data_image0
_cell_length_a       26.484
_cell_length_b       14.0374
_cell_length_c       16.8083
_cell_angle_alpha    90
_cell_angle_beta     108.404
_cell_angle_gamma    90

_symmetry_space_group_name_H-M    "P 1"
_symmetry_int_tables_number       1

loop_
  _symmetry_equiv_pos_as_xyz
  'x, y, z'

loop_
  _atom_site_label
  _atom_site_occupancy
  _atom_site_fract_x
  _atom_site_fract_y
  _atom_site_fract_z
  _atom_site_thermal_displace_type
  _atom_site_B_iso_or_equiv
  _atom_site_type_symbol
  Cu1      1.0000 0.19607  0.78202  0.14330  Biso   1.000  Cu
  Cu2      1.0000 0.80393  0.78202  0.35670  Biso   1.000  Cu
  Cu3      1.0000 0.69607  0.28202  0.14330  Biso   1.000  Cu
  Cu4      1.0000 0.30393  0.28202  0.35670  Biso   1.000  Cu
  Cu5      1.0000 0.80393  0.21798  0.85670  Biso   1.000  Cu
  Cu6      1.0000 0.19607  0.21798  0.64330  Biso   1.000  Cu
  Cu7      1.0000 0.30393  0.71798  0.85670  Biso   1.000  Cu
  Cu8      1.0000 0.69607  0.71798  0.64330  Biso   1.000  Cu
  Cu9      1.0000 0.14395  0.00409  0.91293  Biso   1.000  Cu
  Cu10     1.0000 0.85605  0.00409  0.58707  Biso   1.000  Cu
  Cu11     1.0000 0.64395  0.50409  0.91293  Biso   1.000  Cu
  Cu12     1.0000 0.35605  0.50409  0.58707  Biso   1.000  Cu
  Cu13     1.0000 0.85605  0.99591  0.08707  Biso   1.000  Cu
  Cu14     1.0000 0.14395  0.99591  0.41293  Biso   1.000  Cu
  Cu15     1.0000 0.35605  0.49591  0.08707  Biso   1.000  Cu
  Cu16     1.0000 0.64395  0.49591  0.41293  Biso   1.000  Cu
  N1       1.0000 0.16100  0.90770  0.00660  Biso   1.000  N
  N2       1.0000 0.83900  0.90770  0.49340  Biso   1.000  N
  N3       1.0000 0.66100  0.40770  0.00660  Biso   1.000  N
  N4       1.0000 0.33900  0.40770  0.49340  Biso   1.000  N
  N5       1.0000 0.83900  0.09230  0.99340  Biso   1.000  N
  N6       1.0000 0.16100  0.09230  0.50660  Biso   1.000  N
  N7       1.0000 0.33900  0.59230  0.99340  Biso   1.000  N
  N8       1.0000 0.66100  0.59230  0.50660  Biso   1.000  N
  N9       1.0000 0.20801  0.86710  0.05870  Biso   1.000  N
  N10      1.0000 0.79199  0.86710  0.44130  Biso   1.000  N
  N11      1.0000 0.70801  0.36710  0.05870  Biso   1.000  N
  N12      1.0000 0.29199  0.36710  0.44130  Biso   1.000  N
  N13      1.0000 0.79199  0.13290  0.94130  Biso   1.000  N
  N14      1.0000 0.20801  0.13290  0.55870  Biso   1.000  N
  N15      1.0000 0.29199  0.63290  0.94130  Biso   1.000  N
  N16      1.0000 0.70801  0.63290  0.55870  Biso   1.000  N
  N17      1.0000 0.06961  0.97310  0.91260  Biso   1.000  N
  N18      1.0000 0.93039  0.97310  0.58740  Biso   1.000  N
  N19      1.0000 0.56961  0.47310  0.91260  Biso   1.000  N
  N20      1.0000 0.43039  0.47310  0.58740  Biso   1.000  N
  N21      1.0000 0.93039  0.02690  0.08740  Biso   1.000  N
  N22      1.0000 0.06961  0.02690  0.41260  Biso   1.000  N
  N23      1.0000 0.43039  0.52690  0.08740  Biso   1.000  N
  N24      1.0000 0.56961  0.52690  0.41260  Biso   1.000  N
  N25      1.0000 0.17578  0.67010  0.20120  Biso   1.000  N
  N26      1.0000 0.82422  0.67010  0.29880  Biso   1.000  N
  N27      1.0000 0.67578  0.17010  0.20120  Biso   1.000  N
  N28      1.0000 0.32422  0.17010  0.29880  Biso   1.000  N
  N29      1.0000 0.82422  0.32990  0.79880  Biso   1.000  N
  N30      1.0000 0.17578  0.32990  0.70120  Biso   1.000  N
  N31      1.0000 0.32422  0.82990  0.79880  Biso   1.000  N
  N32      1.0000 0.67578  0.82990  0.70120  Biso   1.000  N
  N33      1.0000 0.16690  0.13840  0.98100  Biso   1.000  N
  N34      1.0000 0.83310  0.13840  0.51900  Biso   1.000  N
  N35      1.0000 0.66690  0.63840  0.98100  Biso   1.000  N
  N36      1.0000 0.33310  0.63840  0.51900  Biso   1.000  N
  N37      1.0000 0.83310  0.86160  0.01900  Biso   1.000  N
  N38      1.0000 0.16690  0.86160  0.48100  Biso   1.000  N
  N39      1.0000 0.33310  0.36160  0.01900  Biso   1.000  N
  N40      1.0000 0.66690  0.36160  0.48100  Biso   1.000  N
  O1       1.0000 0.12165  0.81670  0.08560  Biso   1.000  O
  O2       1.0000 0.87835  0.81670  0.41440  Biso   1.000  O
  O3       1.0000 0.62165  0.31670  0.08560  Biso   1.000  O
  O4       1.0000 0.37835  0.31670  0.41440  Biso   1.000  O
  O5       1.0000 0.87835  0.18330  0.91440  Biso   1.000  O
  O6       1.0000 0.12165  0.18330  0.58560  Biso   1.000  O
  O7       1.0000 0.37835  0.68330  0.91440  Biso   1.000  O
  O8       1.0000 0.62165  0.68330  0.58560  Biso   1.000  O
  O9       1.0000 0.26870  0.74750  0.17940  Biso   1.000  O
  O10      1.0000 0.73130  0.74750  0.32060  Biso   1.000  O
  O11      1.0000 0.76870  0.24750  0.17940  Biso   1.000  O
  O12      1.0000 0.23130  0.24750  0.32060  Biso   1.000  O
  O13      1.0000 0.73130  0.25250  0.82060  Biso   1.000  O
  O14      1.0000 0.26870  0.25250  0.67940  Biso   1.000  O
  O15      1.0000 0.23130  0.75250  0.82060  Biso   1.000  O
  O16      1.0000 0.76870  0.75250  0.67940  Biso   1.000  O
  O17      1.0000 0.12067  0.93220  0.30000  Biso   1.000  O
  O18      1.0000 0.87933  0.93220  0.20000  Biso   1.000  O
  O19      1.0000 0.62067  0.43220  0.30000  Biso   1.000  O
  O20      1.0000 0.37933  0.43220  0.20000  Biso   1.000  O
  O21      1.0000 0.87933  0.06780  0.70000  Biso   1.000  O
  O22      1.0000 0.12067  0.06780  0.80000  Biso   1.000  O
  O23      1.0000 0.37933  0.56780  0.70000  Biso   1.000  O
  O24      1.0000 0.62067  0.56780  0.80000  Biso   1.000  O
  O25      1.0000 0.20303  0.00580  0.35980  Biso   1.000  O
  O26      1.0000 0.79697  0.00580  0.14020  Biso   1.000  O
  O27      1.0000 0.70303  0.50580  0.35980  Biso   1.000  O
  O28      1.0000 0.29697  0.50580  0.14020  Biso   1.000  O
  O29      1.0000 0.79697  0.99420  0.64020  Biso   1.000  O
  O30      1.0000 0.20303  0.99420  0.85980  Biso   1.000  O
  O31      1.0000 0.29697  0.49420  0.64020  Biso   1.000  O
  O32      1.0000 0.70303  0.49420  0.85980  Biso   1.000  O
  O33      1.0000 0.19783  0.87360  0.26400  Biso   1.000  O
  O34      1.0000 0.80217  0.87360  0.23600  Biso   1.000  O
  O35      1.0000 0.69783  0.37360  0.26400  Biso   1.000  O
  O36      1.0000 0.30217  0.37360  0.23600  Biso   1.000  O
  O37      1.0000 0.80217  0.12640  0.73600  Biso   1.000  O
  O38      1.0000 0.19783  0.12640  0.76400  Biso   1.000  O
  O39      1.0000 0.30217  0.62640  0.73600  Biso   1.000  O
  O40      1.0000 0.69783  0.62640  0.76400  Biso   1.000  O
  O41      1.0000 0.15828  0.02420  0.21000  Biso   1.000  O
  O42      1.0000 0.84172  0.02420  0.29000  Biso   1.000  O
  O43      1.0000 0.65828  0.52420  0.21000  Biso   1.000  O
  O44      1.0000 0.34172  0.52420  0.29000  Biso   1.000  O
  O45      1.0000 0.84172  0.97580  0.79000  Biso   1.000  O
  O46      1.0000 0.15828  0.97580  0.71000  Biso   1.000  O
  O47      1.0000 0.34172  0.47580  0.79000  Biso   1.000  O
  O48      1.0000 0.65828  0.47580  0.71000  Biso   1.000  O
  O49      1.0000 0.00000  0.68540  0.25000  Biso   1.000  O
  O50      1.0000 0.50000  0.18540  0.25000  Biso   1.000  O
  O51      1.0000 0.00000  0.31460  0.75000  Biso   1.000  O
  O52      1.0000 0.50000  0.81460  0.75000  Biso   1.000  O
  S1       1.0000 0.17080  0.95834  0.27920  Biso   1.000  S
  S2       1.0000 0.82920  0.95834  0.22080  Biso   1.000  S
  S3       1.0000 0.67080  0.45834  0.27920  Biso   1.000  S
  S4       1.0000 0.32920  0.45834  0.22080  Biso   1.000  S
  S5       1.0000 0.82920  0.04166  0.72080  Biso   1.000  S
  S6       1.0000 0.17080  0.04166  0.77920  Biso   1.000  S
  S7       1.0000 0.32920  0.54166  0.72080  Biso   1.000  S
  S8       1.0000 0.67080  0.54166  0.77920  Biso   1.000  S
  C1       1.0000 0.11950  0.87460  0.02640  Biso   1.000  C
  C2       1.0000 0.88050  0.87460  0.47360  Biso   1.000  C
  C3       1.0000 0.61950  0.37460  0.02640  Biso   1.000  C
  C4       1.0000 0.38050  0.37460  0.47360  Biso   1.000  C
  C5       1.0000 0.88050  0.12540  0.97360  Biso   1.000  C
  C6       1.0000 0.11950  0.12540  0.52640  Biso   1.000  C
  C7       1.0000 0.38050  0.62540  0.97360  Biso   1.000  C
  C8       1.0000 0.61950  0.62540  0.52640  Biso   1.000  C
  C9       1.0000 0.06690  0.90780  0.97080  Biso   1.000  C
  C10      1.0000 0.93310  0.90780  0.52920  Biso   1.000  C
  C11      1.0000 0.56690  0.40780  0.97080  Biso   1.000  C
  C12      1.0000 0.43310  0.40780  0.52920  Biso   1.000  C
  C13      1.0000 0.93310  0.09220  0.02920  Biso   1.000  C
  C14      1.0000 0.06690  0.09220  0.47080  Biso   1.000  C
  C15      1.0000 0.43310  0.59220  0.02920  Biso   1.000  C
  C16      1.0000 0.56690  0.59220  0.47080  Biso   1.000  C
  C17      1.0000 0.01970  0.87310  0.97540  Biso   1.000  C
  C18      1.0000 0.98030  0.87310  0.52460  Biso   1.000  C
  C19      1.0000 0.51970  0.37310  0.97540  Biso   1.000  C
  C20      1.0000 0.48030  0.37310  0.52460  Biso   1.000  C
  C21      1.0000 0.98030  0.12690  0.02460  Biso   1.000  C
  C22      1.0000 0.01970  0.12690  0.47540  Biso   1.000  C
  C23      1.0000 0.48030  0.62690  0.02460  Biso   1.000  C
  C24      1.0000 0.51970  0.62690  0.47540  Biso   1.000  C
  H1       1.0000 0.01910  0.82860  0.01610  Biso   1.000  H
  H2       1.0000 0.98090  0.82860  0.48390  Biso   1.000  H
  H3       1.0000 0.51910  0.32860  0.01610  Biso   1.000  H
  H4       1.0000 0.48090  0.32860  0.48390  Biso   1.000  H
  H5       1.0000 0.98090  0.17140  0.98390  Biso   1.000  H
  H6       1.0000 0.01910  0.17140  0.51610  Biso   1.000  H
  H7       1.0000 0.48090  0.67140  0.98390  Biso   1.000  H
  H8       1.0000 0.51910  0.67140  0.51610  Biso   1.000  H
  C25      1.0000 0.97270  0.90560  0.91800  Biso   1.000  C
  C26      1.0000 0.02730  0.90560  0.58200  Biso   1.000  C
  C27      1.0000 0.47270  0.40560  0.91800  Biso   1.000  C
  C28      1.0000 0.52730  0.40560  0.58200  Biso   1.000  C
  C29      1.0000 0.02730  0.09440  0.08200  Biso   1.000  C
  C30      1.0000 0.97270  0.09440  0.41800  Biso   1.000  C
  C31      1.0000 0.52730  0.59440  0.08200  Biso   1.000  C
  C32      1.0000 0.47270  0.59440  0.41800  Biso   1.000  C
  H9       1.0000 0.94000  0.88280  0.91920  Biso   1.000  H
  H10      1.0000 0.06000  0.88280  0.58080  Biso   1.000  H
  H11      1.0000 0.44000  0.38280  0.91920  Biso   1.000  H
  H12      1.0000 0.56000  0.38280  0.58080  Biso   1.000  H
  H13      1.0000 0.06000  0.11720  0.08080  Biso   1.000  H
  H14      1.0000 0.94000  0.11720  0.41920  Biso   1.000  H
  H15      1.0000 0.56000  0.61720  0.08080  Biso   1.000  H
  H16      1.0000 0.44000  0.61720  0.41920  Biso   1.000  H
  C33      1.0000 0.97530  0.97190  0.85950  Biso   1.000  C
  C34      1.0000 0.02470  0.97190  0.64050  Biso   1.000  C
  C35      1.0000 0.47530  0.47190  0.85950  Biso   1.000  C
  C36      1.0000 0.52470  0.47190  0.64050  Biso   1.000  C
  C37      1.0000 0.02470  0.02810  0.14050  Biso   1.000  C
  C38      1.0000 0.97530  0.02810  0.35950  Biso   1.000  C
  C39      1.0000 0.52470  0.52810  0.14050  Biso   1.000  C
  C40      1.0000 0.47530  0.52810  0.35950  Biso   1.000  C
  H17      1.0000 0.94430  0.99480  0.82060  Biso   1.000  H
  H18      1.0000 0.05570  0.99480  0.67940  Biso   1.000  H
  H19      1.0000 0.44430  0.49480  0.82060  Biso   1.000  H
  H20      1.0000 0.55570  0.49480  0.67940  Biso   1.000  H
  H21      1.0000 0.05570  0.00520  0.17940  Biso   1.000  H
  H22      1.0000 0.94430  0.00520  0.32060  Biso   1.000  H
  H23      1.0000 0.55570  0.50520  0.17940  Biso   1.000  H
  H24      1.0000 0.44430  0.50520  0.32060  Biso   1.000  H
  C41      1.0000 0.02430  0.00400  0.85920  Biso   1.000  C
  C42      1.0000 0.97570  0.00400  0.64080  Biso   1.000  C
  C43      1.0000 0.52430  0.50400  0.85920  Biso   1.000  C
  C44      1.0000 0.47570  0.50400  0.64080  Biso   1.000  C
  C45      1.0000 0.97570  0.99600  0.14080  Biso   1.000  C
  C46      1.0000 0.02430  0.99600  0.35920  Biso   1.000  C
  C47      1.0000 0.47570  0.49600  0.14080  Biso   1.000  C
  C48      1.0000 0.52430  0.49600  0.35920  Biso   1.000  C
  H25      1.0000 0.02570  0.04940  0.81970  Biso   1.000  H
  H26      1.0000 0.97430  0.04940  0.68030  Biso   1.000  H
  H27      1.0000 0.52570  0.54940  0.81970  Biso   1.000  H
  H28      1.0000 0.47430  0.54940  0.68030  Biso   1.000  H
  H29      1.0000 0.97430  0.95060  0.18030  Biso   1.000  H
  H30      1.0000 0.02570  0.95060  0.31970  Biso   1.000  H
  H31      1.0000 0.47430  0.45060  0.18030  Biso   1.000  H
  H32      1.0000 0.52570  0.45060  0.31970  Biso   1.000  H
  C49      1.0000 0.25140  0.87980  0.03990  Biso   1.000  C
  C50      1.0000 0.74860  0.87980  0.46010  Biso   1.000  C
  C51      1.0000 0.75140  0.37980  0.03990  Biso   1.000  C
  C52      1.0000 0.24860  0.37980  0.46010  Biso   1.000  C
  C53      1.0000 0.74860  0.12020  0.96010  Biso   1.000  C
  C54      1.0000 0.25140  0.12020  0.53990  Biso   1.000  C
  C55      1.0000 0.24860  0.62020  0.96010  Biso   1.000  C
  C56      1.0000 0.75140  0.62020  0.53990  Biso   1.000  C
  H33      1.0000 0.24950  0.91840  0.99410  Biso   1.000  H
  H34      1.0000 0.75050  0.91840  0.50590  Biso   1.000  H
  H35      1.0000 0.74950  0.41840  0.99410  Biso   1.000  H
  H36      1.0000 0.25050  0.41840  0.50590  Biso   1.000  H
  H37      1.0000 0.75050  0.08160  0.00590  Biso   1.000  H
  H38      1.0000 0.24950  0.08160  0.49410  Biso   1.000  H
  H39      1.0000 0.25050  0.58160  0.00590  Biso   1.000  H
  H40      1.0000 0.74950  0.58160  0.49410  Biso   1.000  H
  C57      1.0000 0.30200  0.83880  0.08460  Biso   1.000  C
  C58      1.0000 0.69800  0.83880  0.41540  Biso   1.000  C
  C59      1.0000 0.80200  0.33880  0.08460  Biso   1.000  C
  C60      1.0000 0.19800  0.33880  0.41540  Biso   1.000  C
  C61      1.0000 0.69800  0.16120  0.91540  Biso   1.000  C
  C62      1.0000 0.30200  0.16120  0.58460  Biso   1.000  C
  C63      1.0000 0.19800  0.66120  0.91540  Biso   1.000  C
  C64      1.0000 0.80200  0.66120  0.58460  Biso   1.000  C
  C65      1.0000 0.30720  0.77290  0.15180  Biso   1.000  C
  C66      1.0000 0.69280  0.77290  0.34820  Biso   1.000  C
  C67      1.0000 0.80720  0.27290  0.15180  Biso   1.000  C
  C68      1.0000 0.19280  0.27290  0.34820  Biso   1.000  C
  C69      1.0000 0.69280  0.22710  0.84820  Biso   1.000  C
  C70      1.0000 0.30720  0.22710  0.65180  Biso   1.000  C
  C71      1.0000 0.19280  0.72710  0.84820  Biso   1.000  C
  C72      1.0000 0.80720  0.72710  0.65180  Biso   1.000  C
  C73      1.0000 0.35840  0.73170  0.19220  Biso   1.000  C
  C74      1.0000 0.64160  0.73170  0.30780  Biso   1.000  C
  C75      1.0000 0.85840  0.23170  0.19220  Biso   1.000  C
  C76      1.0000 0.14160  0.23170  0.30780  Biso   1.000  C
  C77      1.0000 0.64160  0.26830  0.80780  Biso   1.000  C
  C78      1.0000 0.35840  0.26830  0.69220  Biso   1.000  C
  C79      1.0000 0.14160  0.76830  0.80780  Biso   1.000  C
  C80      1.0000 0.85840  0.76830  0.69220  Biso   1.000  C
  H41      1.0000 0.36160  0.68590  0.23350  Biso   1.000  H
  H42      1.0000 0.63840  0.68590  0.26650  Biso   1.000  H
  H43      1.0000 0.86160  0.18590  0.23350  Biso   1.000  H
  H44      1.0000 0.13840  0.18590  0.26650  Biso   1.000  H
  H45      1.0000 0.63840  0.31410  0.76650  Biso   1.000  H
  H46      1.0000 0.36160  0.31410  0.73350  Biso   1.000  H
  H47      1.0000 0.13840  0.81410  0.76650  Biso   1.000  H
  H48      1.0000 0.86160  0.81410  0.73350  Biso   1.000  H
  C81      1.0000 0.40180  0.75670  0.17270  Biso   1.000  C
  C82      1.0000 0.59820  0.75670  0.32730  Biso   1.000  C
  C83      1.0000 0.90180  0.25670  0.17270  Biso   1.000  C
  C84      1.0000 0.09820  0.25670  0.32730  Biso   1.000  C
  C85      1.0000 0.59820  0.24330  0.82730  Biso   1.000  C
  C86      1.0000 0.40180  0.24330  0.67270  Biso   1.000  C
  C87      1.0000 0.09820  0.74330  0.82730  Biso   1.000  C
  C88      1.0000 0.90180  0.74330  0.67270  Biso   1.000  C
  H49      1.0000 0.43450  0.72990  0.20240  Biso   1.000  H
  H50      1.0000 0.56550  0.72990  0.29760  Biso   1.000  H
  H51      1.0000 0.93450  0.22990  0.20240  Biso   1.000  H
  H52      1.0000 0.06550  0.22990  0.29760  Biso   1.000  H
  H53      1.0000 0.56550  0.27010  0.79760  Biso   1.000  H
  H54      1.0000 0.43450  0.27010  0.70240  Biso   1.000  H
  H55      1.0000 0.06550  0.77010  0.79760  Biso   1.000  H
  H56      1.0000 0.93450  0.77010  0.70240  Biso   1.000  H
  C89      1.0000 0.39940  0.82380  0.10710  Biso   1.000  C
  C90      1.0000 0.60060  0.82380  0.39290  Biso   1.000  C
  C91      1.0000 0.89940  0.32380  0.10710  Biso   1.000  C
  C92      1.0000 0.10060  0.32380  0.39290  Biso   1.000  C
  C93      1.0000 0.60060  0.17620  0.89290  Biso   1.000  C
  C94      1.0000 0.39940  0.17620  0.60710  Biso   1.000  C
  C95      1.0000 0.10060  0.67620  0.89290  Biso   1.000  C
  C96      1.0000 0.89940  0.67620  0.60710  Biso   1.000  C
  C97      1.0000 0.34910  0.86450  0.06210  Biso   1.000  C
  C98      1.0000 0.65090  0.86450  0.43790  Biso   1.000  C
  C99      1.0000 0.84910  0.36450  0.06210  Biso   1.000  C
  C100     1.0000 0.15090  0.36450  0.43790  Biso   1.000  C
  C101     1.0000 0.65090  0.13550  0.93790  Biso   1.000  C
  C102     1.0000 0.34910  0.13550  0.56210  Biso   1.000  C
  C103     1.0000 0.15090  0.63550  0.93790  Biso   1.000  C
  C104     1.0000 0.84910  0.63550  0.56210  Biso   1.000  C
  C105     1.0000 0.34840  0.93120  0.99910  Biso   1.000  C
  C106     1.0000 0.65160  0.93120  0.50090  Biso   1.000  C
  C107     1.0000 0.84840  0.43120  0.99910  Biso   1.000  C
  C108     1.0000 0.15160  0.43120  0.50090  Biso   1.000  C
  C109     1.0000 0.65160  0.06880  0.00090  Biso   1.000  C
  C110     1.0000 0.34840  0.06880  0.49910  Biso   1.000  C
  C111     1.0000 0.15160  0.56880  0.00090  Biso   1.000  C
  C112     1.0000 0.84840  0.56880  0.49910  Biso   1.000  C
  H57      1.0000 0.31620  0.95850  0.96810  Biso   1.000  H
  H58      1.0000 0.68380  0.95850  0.53190  Biso   1.000  H
  H59      1.0000 0.81620  0.45850  0.96810  Biso   1.000  H
  H60      1.0000 0.18380  0.45850  0.53190  Biso   1.000  H
  H61      1.0000 0.68380  0.04150  0.03190  Biso   1.000  H
  H62      1.0000 0.31620  0.04150  0.46810  Biso   1.000  H
  H63      1.0000 0.18380  0.54150  0.03190  Biso   1.000  H
  H64      1.0000 0.81620  0.54150  0.46810  Biso   1.000  H
  C113     1.0000 0.39390  0.95680  0.98230  Biso   1.000  C
  C114     1.0000 0.60610  0.95680  0.51770  Biso   1.000  C
  C115     1.0000 0.89390  0.45680  0.98230  Biso   1.000  C
  C116     1.0000 0.10610  0.45680  0.51770  Biso   1.000  C
  C117     1.0000 0.60610  0.04320  0.01770  Biso   1.000  C
  C118     1.0000 0.39390  0.04320  0.48230  Biso   1.000  C
  C119     1.0000 0.10610  0.54320  0.01770  Biso   1.000  C
  C120     1.0000 0.89390  0.54320  0.48230  Biso   1.000  C
  H65      1.0000 0.39200  0.00090  0.94020  Biso   1.000  H
  H66      1.0000 0.60800  0.00090  0.55980  Biso   1.000  H
  H67      1.0000 0.89200  0.50090  0.94020  Biso   1.000  H
  H68      1.0000 0.10800  0.50090  0.55980  Biso   1.000  H
  H69      1.0000 0.60800  0.99910  0.05980  Biso   1.000  H
  H70      1.0000 0.39200  0.99910  0.44020  Biso   1.000  H
  H71      1.0000 0.10800  0.49910  0.05980  Biso   1.000  H
  H72      1.0000 0.89200  0.49910  0.44020  Biso   1.000  H
  C121     1.0000 0.44270  0.91770  0.02720  Biso   1.000  C
  C122     1.0000 0.55730  0.91770  0.47280  Biso   1.000  C
  C123     1.0000 0.94270  0.41770  0.02720  Biso   1.000  C
  C124     1.0000 0.05730  0.41770  0.47280  Biso   1.000  C
  C125     1.0000 0.55730  0.08230  0.97280  Biso   1.000  C
  C126     1.0000 0.44270  0.08230  0.52720  Biso   1.000  C
  C127     1.0000 0.05730  0.58230  0.97280  Biso   1.000  C
  C128     1.0000 0.94270  0.58230  0.52720  Biso   1.000  C
  H73      1.0000 0.47340  0.93580  0.01560  Biso   1.000  H
  H74      1.0000 0.52660  0.93580  0.48440  Biso   1.000  H
  H75      1.0000 0.97340  0.43580  0.01560  Biso   1.000  H
  H76      1.0000 0.02660  0.43580  0.48440  Biso   1.000  H
  H77      1.0000 0.52660  0.06420  0.98440  Biso   1.000  H
  H78      1.0000 0.47340  0.06420  0.51560  Biso   1.000  H
  H79      1.0000 0.02660  0.56420  0.98440  Biso   1.000  H
  H80      1.0000 0.97340  0.56420  0.51560  Biso   1.000  H
  C129     1.0000 0.44510  0.85250  0.08860  Biso   1.000  C
  C130     1.0000 0.55490  0.85250  0.41140  Biso   1.000  C
  C131     1.0000 0.94510  0.35250  0.08860  Biso   1.000  C
  C132     1.0000 0.05490  0.35250  0.41140  Biso   1.000  C
  C133     1.0000 0.55490  0.14750  0.91140  Biso   1.000  C
  C134     1.0000 0.44510  0.14750  0.58860  Biso   1.000  C
  C135     1.0000 0.05490  0.64750  0.91140  Biso   1.000  C
  C136     1.0000 0.94510  0.64750  0.58860  Biso   1.000  C
  H81      1.0000 0.47790  0.82650  0.11880  Biso   1.000  H
  H82      1.0000 0.52210  0.82650  0.38120  Biso   1.000  H
  H83      1.0000 0.97790  0.32650  0.11880  Biso   1.000  H
  H84      1.0000 0.02210  0.32650  0.38120  Biso   1.000  H
  H85      1.0000 0.52210  0.17350  0.88120  Biso   1.000  H
  H86      1.0000 0.47790  0.17350  0.61880  Biso   1.000  H
  H87      1.0000 0.02210  0.67350  0.88120  Biso   1.000  H
  H88      1.0000 0.97790  0.67350  0.61880  Biso   1.000  H
  C137     1.0000 0.12840  0.66630  0.21320  Biso   1.000  C
  C138     1.0000 0.87160  0.66630  0.28680  Biso   1.000  C
  C139     1.0000 0.62840  0.16630  0.21320  Biso   1.000  C
  C140     1.0000 0.37160  0.16630  0.28680  Biso   1.000  C
  C141     1.0000 0.87160  0.33370  0.78680  Biso   1.000  C
  C142     1.0000 0.12840  0.33370  0.71320  Biso   1.000  C
  C143     1.0000 0.37160  0.83370  0.78680  Biso   1.000  C
  C144     1.0000 0.62840  0.83370  0.71320  Biso   1.000  C
  H89      1.0000 0.10680  0.72000  0.20120  Biso   1.000  H
  H90      1.0000 0.89320  0.72000  0.29880  Biso   1.000  H
  H91      1.0000 0.60680  0.22000  0.20120  Biso   1.000  H
  H92      1.0000 0.39320  0.22000  0.29880  Biso   1.000  H
  H93      1.0000 0.89320  0.28000  0.79880  Biso   1.000  H
  H94      1.0000 0.10680  0.28000  0.70120  Biso   1.000  H
  H95      1.0000 0.39320  0.78000  0.79880  Biso   1.000  H
  H96      1.0000 0.60680  0.78000  0.70120  Biso   1.000  H
  C145     1.0000 0.10990  0.58570  0.24300  Biso   1.000  C
  C146     1.0000 0.89010  0.58570  0.25700  Biso   1.000  C
  C147     1.0000 0.60990  0.08570  0.24300  Biso   1.000  C
  C148     1.0000 0.39010  0.08570  0.25700  Biso   1.000  C
  C149     1.0000 0.89010  0.41430  0.75700  Biso   1.000  C
  C150     1.0000 0.10990  0.41430  0.74300  Biso   1.000  C
  C151     1.0000 0.39010  0.91430  0.75700  Biso   1.000  C
  C152     1.0000 0.60990  0.91430  0.74300  Biso   1.000  C
  H97      1.0000 0.07680  0.58590  0.25120  Biso   1.000  H
  H98      1.0000 0.92320  0.58590  0.24880  Biso   1.000  H
  H99      1.0000 0.57680  0.08590  0.25120  Biso   1.000  H
  H100     1.0000 0.42320  0.08590  0.24880  Biso   1.000  H
  H101     1.0000 0.92320  0.41410  0.74880  Biso   1.000  H
  H102     1.0000 0.07680  0.41410  0.75120  Biso   1.000  H
  H103     1.0000 0.42320  0.91410  0.74880  Biso   1.000  H
  H104     1.0000 0.57680  0.91410  0.75120  Biso   1.000  H
  C153     1.0000 0.14140  0.50580  0.26010  Biso   1.000  C
  C154     1.0000 0.85860  0.50580  0.23990  Biso   1.000  C
  C155     1.0000 0.64140  0.00580  0.26010  Biso   1.000  C
  C156     1.0000 0.35860  0.00580  0.23990  Biso   1.000  C
  C157     1.0000 0.85860  0.49420  0.73990  Biso   1.000  C
  C158     1.0000 0.14140  0.49420  0.76010  Biso   1.000  C
  C159     1.0000 0.35860  0.99420  0.73990  Biso   1.000  C
  C160     1.0000 0.64140  0.99420  0.76010  Biso   1.000  C
  H105     1.0000 0.12940  0.45020  0.27850  Biso   1.000  H
  H106     1.0000 0.87060  0.45020  0.22150  Biso   1.000  H
  H107     1.0000 0.62940  0.95020  0.27850  Biso   1.000  H
  H108     1.0000 0.37060  0.95020  0.22150  Biso   1.000  H
  H109     1.0000 0.87060  0.54980  0.72150  Biso   1.000  H
  H110     1.0000 0.12940  0.54980  0.77850  Biso   1.000  H
  H111     1.0000 0.37060  0.04980  0.72150  Biso   1.000  H
  H112     1.0000 0.62940  0.04980  0.77850  Biso   1.000  H
  C161     1.0000 0.19050  0.50930  0.24980  Biso   1.000  C
  C162     1.0000 0.80950  0.50930  0.25020  Biso   1.000  C
  C163     1.0000 0.69050  0.00930  0.24980  Biso   1.000  C
  C164     1.0000 0.30950  0.00930  0.25020  Biso   1.000  C
  C165     1.0000 0.80950  0.49070  0.75020  Biso   1.000  C
  C166     1.0000 0.19050  0.49070  0.74980  Biso   1.000  C
  C167     1.0000 0.30950  0.99070  0.75020  Biso   1.000  C
  C168     1.0000 0.69050  0.99070  0.74980  Biso   1.000  C
  H113     1.0000 0.21290  0.45670  0.26280  Biso   1.000  H
  H114     1.0000 0.78710  0.45670  0.23720  Biso   1.000  H
  H115     1.0000 0.71290  0.95670  0.26280  Biso   1.000  H
  H116     1.0000 0.28710  0.95670  0.23720  Biso   1.000  H
  H117     1.0000 0.78710  0.54330  0.73720  Biso   1.000  H
  H118     1.0000 0.21290  0.54330  0.76280  Biso   1.000  H
  H119     1.0000 0.28710  0.04330  0.73720  Biso   1.000  H
  H120     1.0000 0.71290  0.04330  0.76280  Biso   1.000  H
  C169     1.0000 0.20660  0.59220  0.21980  Biso   1.000  C
  C170     1.0000 0.79340  0.59220  0.28020  Biso   1.000  C
  C171     1.0000 0.70660  0.09220  0.21980  Biso   1.000  C
  C172     1.0000 0.29340  0.09220  0.28020  Biso   1.000  C
  C173     1.0000 0.79340  0.40780  0.78020  Biso   1.000  C
  C174     1.0000 0.20660  0.40780  0.71980  Biso   1.000  C
  C175     1.0000 0.29340  0.90780  0.78020  Biso   1.000  C
  C176     1.0000 0.70660  0.90780  0.71980  Biso   1.000  C
  H121     1.0000 0.23990  0.59380  0.21240  Biso   1.000  H
  H122     1.0000 0.76010  0.59380  0.28760  Biso   1.000  H
  H123     1.0000 0.73990  0.09380  0.21240  Biso   1.000  H
  H124     1.0000 0.26010  0.09380  0.28760  Biso   1.000  H
  H125     1.0000 0.76010  0.40620  0.78760  Biso   1.000  H
  H126     1.0000 0.23990  0.40620  0.71240  Biso   1.000  H
  H127     1.0000 0.26010  0.90620  0.78760  Biso   1.000  H
  H128     1.0000 0.73990  0.90620  0.71240  Biso   1.000  H
  C177     1.0000 0.17070  0.21970  0.94050  Biso   1.000  C
  C178     1.0000 0.82930  0.21970  0.55950  Biso   1.000  C
  C179     1.0000 0.67070  0.71970  0.94050  Biso   1.000  C
  C180     1.0000 0.32930  0.71970  0.55950  Biso   1.000  C
  C181     1.0000 0.82930  0.78030  0.05950  Biso   1.000  C
  C182     1.0000 0.17070  0.78030  0.44050  Biso   1.000  C
  C183     1.0000 0.32930  0.28030  0.05950  Biso   1.000  C
  C184     1.0000 0.67070  0.28030  0.44050  Biso   1.000  C
  H129     1.0000 0.16220  0.21750  0.88240  Biso   1.000  H
  H130     1.0000 0.83780  0.21750  0.61760  Biso   1.000  H
  H131     1.0000 0.66220  0.71750  0.88240  Biso   1.000  H
  H132     1.0000 0.33780  0.71750  0.61760  Biso   1.000  H
  H133     1.0000 0.83780  0.78250  0.11760  Biso   1.000  H
  H134     1.0000 0.16220  0.78250  0.38240  Biso   1.000  H
  H135     1.0000 0.33780  0.28250  0.11760  Biso   1.000  H
  H136     1.0000 0.66220  0.28250  0.38240  Biso   1.000  H
  C185     1.0000 0.18620  0.30530  0.97970  Biso   1.000  C
  C186     1.0000 0.81380  0.30530  0.52030  Biso   1.000  C
  C187     1.0000 0.68620  0.80530  0.97970  Biso   1.000  C
  C188     1.0000 0.31380  0.80530  0.52030  Biso   1.000  C
  C189     1.0000 0.81380  0.69470  0.02030  Biso   1.000  C
  C190     1.0000 0.18620  0.69470  0.47970  Biso   1.000  C
  C191     1.0000 0.31380  0.19470  0.02030  Biso   1.000  C
  C192     1.0000 0.68620  0.19470  0.47970  Biso   1.000  C
  H137     1.0000 0.18770  0.35980  0.94900  Biso   1.000  H
  H138     1.0000 0.81230  0.35980  0.55100  Biso   1.000  H
  H139     1.0000 0.68770  0.85980  0.94900  Biso   1.000  H
  H140     1.0000 0.31230  0.85980  0.55100  Biso   1.000  H
  H141     1.0000 0.81230  0.64020  0.05100  Biso   1.000  H
  H142     1.0000 0.18770  0.64020  0.44900  Biso   1.000  H
  H143     1.0000 0.31230  0.14020  0.05100  Biso   1.000  H
  H144     1.0000 0.68770  0.14020  0.44900  Biso   1.000  H
  C193     1.0000 0.19950  0.30850  0.06560  Biso   1.000  C
  C194     1.0000 0.80050  0.30850  0.43440  Biso   1.000  C
  C195     1.0000 0.69950  0.80850  0.06560  Biso   1.000  C
  C196     1.0000 0.30050  0.80850  0.43440  Biso   1.000  C
  C197     1.0000 0.80050  0.69150  0.93440  Biso   1.000  C
  C198     1.0000 0.19950  0.69150  0.56560  Biso   1.000  C
  C199     1.0000 0.30050  0.19150  0.93440  Biso   1.000  C
  C200     1.0000 0.69950  0.19150  0.56560  Biso   1.000  C
  H145     1.0000 0.21090  0.36540  0.09390  Biso   1.000  H
  H146     1.0000 0.78910  0.36540  0.40610  Biso   1.000  H
  H147     1.0000 0.71090  0.86540  0.09390  Biso   1.000  H
  H148     1.0000 0.28910  0.86540  0.40610  Biso   1.000  H
  H149     1.0000 0.78910  0.63460  0.90610  Biso   1.000  H
  H150     1.0000 0.21090  0.63460  0.59390  Biso   1.000  H
  H151     1.0000 0.28910  0.13460  0.90610  Biso   1.000  H
  H152     1.0000 0.71090  0.13460  0.59390  Biso   1.000  H
  C201     1.0000 0.19590  0.22810  0.10930  Biso   1.000  C
  C202     1.0000 0.80410  0.22810  0.39070  Biso   1.000  C
  C203     1.0000 0.69590  0.72810  0.10930  Biso   1.000  C
  C204     1.0000 0.30410  0.72810  0.39070  Biso   1.000  C
  C205     1.0000 0.80410  0.77190  0.89070  Biso   1.000  C
  C206     1.0000 0.19590  0.77190  0.60930  Biso   1.000  C
  C207     1.0000 0.30410  0.27190  0.89070  Biso   1.000  C
  C208     1.0000 0.69590  0.27190  0.60930  Biso   1.000  C
  H153     1.0000 0.20420  0.22950  0.16730  Biso   1.000  H
  H154     1.0000 0.79580  0.22950  0.33270  Biso   1.000  H
  H155     1.0000 0.70420  0.72950  0.16730  Biso   1.000  H
  H156     1.0000 0.29580  0.72950  0.33270  Biso   1.000  H
  H157     1.0000 0.79580  0.77050  0.83270  Biso   1.000  H
  H158     1.0000 0.20420  0.77050  0.66730  Biso   1.000  H
  H159     1.0000 0.29580  0.27050  0.83270  Biso   1.000  H
  H160     1.0000 0.70420  0.27050  0.66730  Biso   1.000  H
  C209     1.0000 0.17970  0.14430  0.06460  Biso   1.000  C
  C210     1.0000 0.82030  0.14430  0.43540  Biso   1.000  C
  C211     1.0000 0.67970  0.64430  0.06460  Biso   1.000  C
  C212     1.0000 0.32030  0.64430  0.43540  Biso   1.000  C
  C213     1.0000 0.82030  0.85570  0.93540  Biso   1.000  C
  C214     1.0000 0.17970  0.85570  0.56460  Biso   1.000  C
  C215     1.0000 0.32030  0.35570  0.93540  Biso   1.000  C
  C216     1.0000 0.67970  0.35570  0.56460  Biso   1.000  C
  H161     1.0000 0.17760  0.08940  0.09430  Biso   1.000  H
  H162     1.0000 0.82240  0.08940  0.40570  Biso   1.000  H
  H163     1.0000 0.67760  0.58940  0.09430  Biso   1.000  H
  H164     1.0000 0.32240  0.58940  0.40570  Biso   1.000  H
  H165     1.0000 0.82240  0.91060  0.90570  Biso   1.000  H
  H166     1.0000 0.17760  0.91060  0.59430  Biso   1.000  H
  H167     1.0000 0.32240  0.41060  0.90570  Biso   1.000  H
  H168     1.0000 0.67760  0.41060  0.59430  Biso   1.000  H
  C217     1.0000 0.98080  0.74250  0.17730  Biso   1.000  C
  C218     1.0000 0.01920  0.74250  0.32270  Biso   1.000  C
  C219     1.0000 0.48080  0.24250  0.17730  Biso   1.000  C
  C220     1.0000 0.51920  0.24250  0.32270  Biso   1.000  C
  C221     1.0000 0.01920  0.25750  0.82270  Biso   1.000  C
  C222     1.0000 0.98080  0.25750  0.67730  Biso   1.000  C
  C223     1.0000 0.51920  0.75750  0.82270  Biso   1.000  C
  C224     1.0000 0.48080  0.75750  0.67730  Biso   1.000  C
  H169     1.0000 0.00830  0.78620  0.17330  Biso   1.000  H
  H170     1.0000 0.99170  0.78620  0.32670  Biso   1.000  H
  H171     1.0000 0.50830  0.28620  0.17330  Biso   1.000  H
  H172     1.0000 0.49170  0.28620  0.32670  Biso   1.000  H
  H173     1.0000 0.99170  0.21380  0.82670  Biso   1.000  H
  H174     1.0000 0.00830  0.21380  0.67330  Biso   1.000  H
  H175     1.0000 0.49170  0.71380  0.82670  Biso   1.000  H
  H176     1.0000 0.50830  0.71380  0.67330  Biso   1.000  H
  H177     1.0000 0.95040  0.77950  0.17980  Biso   1.000  H
  H178     1.0000 0.04960  0.77950  0.32020  Biso   1.000  H
  H179     1.0000 0.45040  0.27950  0.17980  Biso   1.000  H
  H180     1.0000 0.54960  0.27950  0.32020  Biso   1.000  H
  H181     1.0000 0.04960  0.22050  0.82020  Biso   1.000  H
  H182     1.0000 0.95040  0.22050  0.67980  Biso   1.000  H
  H183     1.0000 0.54960  0.72050  0.82020  Biso   1.000  H
  H184     1.0000 0.45040  0.72050  0.67980  Biso   1.000  H
  C225     1.0000 0.96440  0.67560  0.10020  Biso   1.000  C
  C226     1.0000 0.03560  0.67560  0.39980  Biso   1.000  C
  C227     1.0000 0.46440  0.17560  0.10020  Biso   1.000  C
  C228     1.0000 0.53560  0.17560  0.39980  Biso   1.000  C
  C229     1.0000 0.03560  0.32440  0.89980  Biso   1.000  C
  C230     1.0000 0.96440  0.32440  0.60020  Biso   1.000  C
  C231     1.0000 0.53560  0.82440  0.89980  Biso   1.000  C
  C232     1.0000 0.46440  0.82440  0.60020  Biso   1.000  C
  H185     1.0000 0.99540  0.64390  0.09520  Biso   1.000  H
  H186     1.0000 0.00460  0.64390  0.40480  Biso   1.000  H
  H187     1.0000 0.49540  0.14390  0.09520  Biso   1.000  H
  H188     1.0000 0.50460  0.14390  0.40480  Biso   1.000  H
  H189     1.0000 0.00460  0.35610  0.90480  Biso   1.000  H
  H190     1.0000 0.99540  0.35610  0.59520  Biso   1.000  H
  H191     1.0000 0.50460  0.85610  0.90480  Biso   1.000  H
  H192     1.0000 0.49540  0.85610  0.59520  Biso   1.000  H
  H193     1.0000 0.94810  0.71220  0.05050  Biso   1.000  H
  H194     1.0000 0.05190  0.71220  0.44950  Biso   1.000  H
  H195     1.0000 0.44810  0.21220  0.05050  Biso   1.000  H
  H196     1.0000 0.55190  0.21220  0.44950  Biso   1.000  H
  H197     1.0000 0.05190  0.28780  0.94950  Biso   1.000  H
  H198     1.0000 0.94810  0.28780  0.55050  Biso   1.000  H
  H199     1.0000 0.55190  0.78780  0.94950  Biso   1.000  H
  H200     1.0000 0.44810  0.78780  0.55050  Biso   1.000  H
  H201     1.0000 0.93960  0.62910  0.10720  Biso   1.000  H
  H202     1.0000 0.06040  0.62910  0.39280  Biso   1.000  H
  H203     1.0000 0.43960  0.12910  0.10720  Biso   1.000  H
  H204     1.0000 0.56040  0.12910  0.39280  Biso   1.000  H
  H205     1.0000 0.06040  0.37090  0.89280  Biso   1.000  H
  H206     1.0000 0.93960  0.37090  0.60720  Biso   1.000  H
  H207     1.0000 0.56040  0.87090  0.89280  Biso   1.000  H
  H208     1.0000 0.43960  0.87090  0.60720  Biso   1.000  H
