data_image0
_cell_length_a       10.6473
_cell_length_b       19.752
_cell_length_c       13.407
_cell_angle_alpha    90
_cell_angle_beta     113.396
_cell_angle_gamma    90

_symmetry_space_group_name_H-M    "P 1"
_symmetry_int_tables_number       1

loop_
  _symmetry_equiv_pos_as_xyz
  'x, y, z'

loop_
  _atom_site_label
  _atom_site_occupancy
  _atom_site_fract_x
  _atom_site_fract_y
  _atom_site_fract_z
  _atom_site_thermal_displace_type
  _atom_site_B_iso_or_equiv
  _atom_site_type_symbol
  Mo1      1.0000 0.36602  0.95239  0.40301  Biso   1.000  Mo
  Mo2      1.0000 0.63398  0.45239  0.09699  Biso   1.000  Mo
  Mo3      1.0000 0.63398  0.04761  0.59699  Biso   1.000  Mo
  Mo4      1.0000 0.36602  0.54761  0.90301  Biso   1.000  Mo
  Mo5      1.0000 0.82131  0.90885  0.58212  Biso   1.000  Mo
  Mo6      1.0000 0.17869  0.40885  0.91788  Biso   1.000  Mo
  Mo7      1.0000 0.17869  0.09115  0.41788  Biso   1.000  Mo
  Mo8      1.0000 0.82131  0.59115  0.08212  Biso   1.000  Mo
  Mo9      1.0000 0.63580  0.98233  0.35193  Biso   1.000  Mo
  Mo10     1.0000 0.36420  0.48233  0.14807  Biso   1.000  Mo
  Mo11     1.0000 0.36420  0.01767  0.64807  Biso   1.000  Mo
  Mo12     1.0000 0.63580  0.51767  0.85193  Biso   1.000  Mo
  Mo13     1.0000 0.55108  0.88186  0.62985  Biso   1.000  Mo
  Mo14     1.0000 0.44892  0.38186  0.87015  Biso   1.000  Mo
  Mo15     1.0000 0.44892  0.11814  0.37015  Biso   1.000  Mo
  Mo16     1.0000 0.55108  0.61814  0.12985  Biso   1.000  Mo
  Cu1      1.0000 0.43224  0.82014  0.84584  Biso   1.000  Cu
  Cu2      1.0000 0.56776  0.32014  0.65416  Biso   1.000  Cu
  Cu3      1.0000 0.56776  0.17986  0.15416  Biso   1.000  Cu
  Cu4      1.0000 0.43224  0.67986  0.34584  Biso   1.000  Cu
  O1       1.0000 0.74300  0.88640  0.68770  Biso   1.000  O
  O2       1.0000 0.25700  0.38640  0.81230  Biso   1.000  O
  O3       1.0000 0.25700  0.11360  0.31230  Biso   1.000  O
  O4       1.0000 0.74300  0.61360  0.18770  Biso   1.000  O
  O5       1.0000 0.81050  0.96730  0.46650  Biso   1.000  O
  O6       1.0000 0.18950  0.46730  0.03350  Biso   1.000  O
  O7       1.0000 0.18950  0.03270  0.53350  Biso   1.000  O
  O8       1.0000 0.81050  0.53270  0.96650  Biso   1.000  O
  O9       1.0000 0.43940  0.00550  0.31640  Biso   1.000  O
  O10      1.0000 0.56060  0.50550  0.18360  Biso   1.000  O
  O11      1.0000 0.56060  0.99450  0.68360  Biso   1.000  O
  O12      1.0000 0.43940  0.49450  0.81640  Biso   1.000  O
  O13      1.0000 0.36770  0.92560  0.54350  Biso   1.000  O
  O14      1.0000 0.63230  0.42560  0.95650  Biso   1.000  O
  O15      1.0000 0.63230  0.07440  0.45650  Biso   1.000  O
  O16      1.0000 0.36770  0.57440  0.04350  Biso   1.000  O
  O17      1.0000 0.34760  0.87620  0.33950  Biso   1.000  O
  O18      1.0000 0.65240  0.37620  0.16050  Biso   1.000  O
  O19      1.0000 0.65240  0.12380  0.66050  Biso   1.000  O
  O20      1.0000 0.34760  0.62380  0.83950  Biso   1.000  O
  O21      1.0000 0.51580  0.86230  0.74040  Biso   1.000  O
  O22      1.0000 0.48420  0.36230  0.75960  Biso   1.000  O
  O23      1.0000 0.48420  0.13770  0.25960  Biso   1.000  O
  O24      1.0000 0.51580  0.63770  0.24040  Biso   1.000  O
  O25      1.0000 0.58180  0.94510  0.50250  Biso   1.000  O
  O26      1.0000 0.41820  0.44510  0.99750  Biso   1.000  O
  O27      1.0000 0.41820  0.05490  0.49750  Biso   1.000  O
  O28      1.0000 0.58180  0.55490  0.00250  Biso   1.000  O
  O29      1.0000 0.99120  0.90610  0.66110  Biso   1.000  O
  O30      1.0000 0.00880  0.40610  0.83890  Biso   1.000  O
  O31      1.0000 0.00880  0.09390  0.33890  Biso   1.000  O
  O32      1.0000 0.99120  0.59390  0.16110  Biso   1.000  O
  O33      1.0000 0.67370  0.03300  0.26650  Biso   1.000  O
  O34      1.0000 0.32630  0.53300  0.23350  Biso   1.000  O
  O35      1.0000 0.32630  0.96700  0.73350  Biso   1.000  O
  O36      1.0000 0.67370  0.46700  0.76650  Biso   1.000  O
  O37      1.0000 0.79600  0.01160  0.64790  Biso   1.000  O
  O38      1.0000 0.20400  0.51160  0.85210  Biso   1.000  O
  O39      1.0000 0.20400  0.98840  0.35210  Biso   1.000  O
  O40      1.0000 0.79600  0.48840  0.14790  Biso   1.000  O
  O41      1.0000 0.52100  0.80880  0.55740  Biso   1.000  O
  O42      1.0000 0.47900  0.30880  0.94260  Biso   1.000  O
  O43      1.0000 0.47900  0.19120  0.44260  Biso   1.000  O
  O44      1.0000 0.52100  0.69120  0.05740  Biso   1.000  O
  O45      1.0000 0.60430  0.90490  0.29210  Biso   1.000  O
  O46      1.0000 0.39570  0.40490  0.20790  Biso   1.000  O
  O47      1.0000 0.39570  0.09510  0.70790  Biso   1.000  O
  O48      1.0000 0.60430  0.59510  0.79210  Biso   1.000  O
  O49      1.0000 0.78280  0.83350  0.51350  Biso   1.000  O
  O50      1.0000 0.21720  0.33350  0.98650  Biso   1.000  O
  O51      1.0000 0.21720  0.16650  0.48650  Biso   1.000  O
  O52      1.0000 0.78280  0.66650  0.01350  Biso   1.000  O
  O53      1.0000 0.53350  0.72830  0.83650  Biso   1.000  O
  O54      1.0000 0.46650  0.22830  0.66350  Biso   1.000  O
  O55      1.0000 0.46650  0.27170  0.16350  Biso   1.000  O
  O56      1.0000 0.53350  0.77170  0.33650  Biso   1.000  O
  N1       1.0000 0.26550  0.79160  0.72400  Biso   1.000  N
  N2       1.0000 0.73450  0.29160  0.77600  Biso   1.000  N
  N3       1.0000 0.73450  0.20840  0.27600  Biso   1.000  N
  N4       1.0000 0.26550  0.70840  0.22400  Biso   1.000  N
  N5       1.0000 0.32770  0.84620  0.93590  Biso   1.000  N
  N6       1.0000 0.67230  0.34620  0.56410  Biso   1.000  N
  N7       1.0000 0.67230  0.15380  0.06410  Biso   1.000  N
  N8       1.0000 0.32770  0.65380  0.43590  Biso   1.000  N
  N9       1.0000 0.09900  0.78560  0.55980  Biso   1.000  N
  N10      1.0000 0.90100  0.28560  0.94020  Biso   1.000  N
  N11      1.0000 0.90100  0.21440  0.44020  Biso   1.000  N
  N12      1.0000 0.09900  0.71440  0.05980  Biso   1.000  N
  N13      1.0000 0.75820  0.86130  0.12640  Biso   1.000  N
  N14      1.0000 0.24180  0.36130  0.37360  Biso   1.000  N
  N15      1.0000 0.24180  0.13870  0.87360  Biso   1.000  N
  N16      1.0000 0.75820  0.63870  0.62640  Biso   1.000  N
  N17      1.0000 0.59960  0.85390  0.96480  Biso   1.000  N
  N18      1.0000 0.40040  0.35390  0.53520  Biso   1.000  N
  N19      1.0000 0.40040  0.14610  0.03520  Biso   1.000  N
  N20      1.0000 0.59960  0.64610  0.46480  Biso   1.000  N
  N21      1.0000 0.19810  0.90640  0.99290  Biso   1.000  N
  N22      1.0000 0.80190  0.40640  0.50710  Biso   1.000  N
  N23      1.0000 0.80190  0.09360  0.00710  Biso   1.000  N
  N24      1.0000 0.19810  0.59360  0.49290  Biso   1.000  N
  C1       1.0000 0.22010  0.81460  0.62410  Biso   1.000  C
  C2       1.0000 0.77990  0.31460  0.87590  Biso   1.000  C
  C3       1.0000 0.77990  0.18540  0.37590  Biso   1.000  C
  C4       1.0000 0.22010  0.68540  0.12410  Biso   1.000  C
  H1       1.0000 0.26530  0.84690  0.60000  Biso   1.000  H
  H2       1.0000 0.73470  0.34690  0.90000  Biso   1.000  H
  H3       1.0000 0.73470  0.15310  0.40000  Biso   1.000  H
  H4       1.0000 0.26530  0.65310  0.10000  Biso   1.000  H
  C5       1.0000 0.02660  0.86840  0.41130  Biso   1.000  C
  C6       1.0000 0.97340  0.36840  0.08870  Biso   1.000  C
  C7       1.0000 0.97340  0.13160  0.58870  Biso   1.000  C
  C8       1.0000 0.02660  0.63160  0.91130  Biso   1.000  C
  H5       1.0000 0.08860  0.89950  0.45680  Biso   1.000  H
  H6       1.0000 0.91140  0.39950  0.04320  Biso   1.000  H
  H7       1.0000 0.91140  0.10050  0.54320  Biso   1.000  H
  H8       1.0000 0.08860  0.60050  0.95680  Biso   1.000  H
  C9       1.0000 0.36810  0.83620  0.04510  Biso   1.000  C
  C10      1.0000 0.63190  0.33620  0.45490  Biso   1.000  C
  C11      1.0000 0.63190  0.16380  0.95490  Biso   1.000  C
  C12      1.0000 0.36810  0.66380  0.54510  Biso   1.000  C
  H9       1.0000 0.43880  0.80790  0.08770  Biso   1.000  H
  H10      1.0000 0.56120  0.30790  0.41230  Biso   1.000  H
  H11      1.0000 0.56120  0.19210  0.91230  Biso   1.000  H
  H12      1.0000 0.43880  0.69210  0.58770  Biso   1.000  H
  C13      1.0000 0.84280  0.77510  0.27420  Biso   1.000  C
  C14      1.0000 0.15720  0.27510  0.22580  Biso   1.000  C
  C15      1.0000 0.15720  0.22490  0.72580  Biso   1.000  C
  C16      1.0000 0.84280  0.72490  0.77420  Biso   1.000  C
  H13      1.0000 0.78040  0.74410  0.22870  Biso   1.000  H
  H14      1.0000 0.21960  0.24410  0.27130  Biso   1.000  H
  H15      1.0000 0.21960  0.25590  0.77130  Biso   1.000  H
  H16      1.0000 0.78040  0.75590  0.72870  Biso   1.000  H
  C17      1.0000 0.92930  0.75690  0.37870  Biso   1.000  C
  C18      1.0000 0.07070  0.25690  0.12130  Biso   1.000  C
  C19      1.0000 0.07070  0.24310  0.62130  Biso   1.000  C
  C20      1.0000 0.92930  0.74310  0.87870  Biso   1.000  C
  H17      1.0000 0.92760  0.71280  0.40210  Biso   1.000  H
  H18      1.0000 0.07240  0.21280  0.09790  Biso   1.000  H
  H19      1.0000 0.07240  0.28720  0.59790  Biso   1.000  H
  H20      1.0000 0.92760  0.78720  0.90210  Biso   1.000  H
  C21      1.0000 0.85060  0.84010  0.23850  Biso   1.000  C
  C22      1.0000 0.14940  0.34010  0.26150  Biso   1.000  C
  C23      1.0000 0.14940  0.15990  0.76150  Biso   1.000  C
  C24      1.0000 0.85060  0.65990  0.73850  Biso   1.000  C
  C25      1.0000 0.94390  0.88600  0.30850  Biso   1.000  C
  C26      1.0000 0.05610  0.38600  0.19150  Biso   1.000  C
  C27      1.0000 0.05610  0.11400  0.69150  Biso   1.000  C
  C28      1.0000 0.94390  0.61400  0.80850  Biso   1.000  C
  H21      1.0000 0.94940  0.92950  0.28400  Biso   1.000  H
  H22      1.0000 0.05060  0.42950  0.21600  Biso   1.000  H
  H23      1.0000 0.05060  0.07050  0.71600  Biso   1.000  H
  H24      1.0000 0.94940  0.57050  0.78400  Biso   1.000  H
  C29      1.0000 0.06320  0.74410  0.62600  Biso   1.000  C
  C30      1.0000 0.93680  0.24410  0.87400  Biso   1.000  C
  C31      1.0000 0.93680  0.25590  0.37400  Biso   1.000  C
  C32      1.0000 0.06320  0.75590  0.12600  Biso   1.000  C
  H25      1.0000 0.98370  0.71840  0.60520  Biso   1.000  H
  H26      1.0000 0.01630  0.21840  0.89480  Biso   1.000  H
  H27      1.0000 0.01630  0.28160  0.39480  Biso   1.000  H
  H28      1.0000 0.98370  0.78160  0.10520  Biso   1.000  H
  C33      1.0000 0.16310  0.74700  0.72660  Biso   1.000  C
  C34      1.0000 0.83690  0.24700  0.77340  Biso   1.000  C
  C35      1.0000 0.83690  0.25300  0.27340  Biso   1.000  C
  C36      1.0000 0.16310  0.75300  0.22660  Biso   1.000  C
  H29      1.0000 0.16450  0.72370  0.78730  Biso   1.000  H
  H30      1.0000 0.83550  0.22370  0.71270  Biso   1.000  H
  H31      1.0000 0.83550  0.27630  0.21270  Biso   1.000  H
  H32      1.0000 0.16450  0.77630  0.28730  Biso   1.000  H
  C37      1.0000 0.22260  0.88830  0.90730  Biso   1.000  C
  C38      1.0000 0.77740  0.38830  0.59270  Biso   1.000  C
  C39      1.0000 0.77740  0.11170  0.09270  Biso   1.000  C
  C40      1.0000 0.22260  0.61170  0.40730  Biso   1.000  C
  H33      1.0000 0.17280  0.90310  0.83670  Biso   1.000  H
  H34      1.0000 0.82720  0.40310  0.66330  Biso   1.000  H
  H35      1.0000 0.82720  0.09690  0.16330  Biso   1.000  H
  H36      1.0000 0.17280  0.59690  0.33670  Biso   1.000  H
  C41      1.0000 0.09690  0.95400  0.99670  Biso   1.000  C
  C42      1.0000 0.90310  0.45400  0.50330  Biso   1.000  C
  C43      1.0000 0.90310  0.04600  0.00330  Biso   1.000  C
  C44      1.0000 0.09690  0.54600  0.49670  Biso   1.000  C
  C45      1.0000 0.96770  0.95570  0.91280  Biso   1.000  C
  C46      1.0000 0.03230  0.45570  0.58720  Biso   1.000  C
  C47      1.0000 0.03230  0.04430  0.08720  Biso   1.000  C
  C48      1.0000 0.96770  0.54430  0.41280  Biso   1.000  C
  H37      1.0000 0.94570  0.92600  0.85450  Biso   1.000  H
  H38      1.0000 0.05430  0.42600  0.64550  Biso   1.000  H
  H39      1.0000 0.05430  0.07400  0.14550  Biso   1.000  H
  H40      1.0000 0.94570  0.57400  0.35450  Biso   1.000  H
  C49      1.0000 0.29030  0.87360  0.08130  Biso   1.000  C
  C50      1.0000 0.70970  0.37360  0.41870  Biso   1.000  C
  C51      1.0000 0.70970  0.12640  0.91870  Biso   1.000  C
  C52      1.0000 0.29030  0.62640  0.58130  Biso   1.000  C
  H41      1.0000 0.29760  0.87660  0.15260  Biso   1.000  H
  H42      1.0000 0.70240  0.37660  0.34740  Biso   1.000  H
  H43      1.0000 0.70240  0.12340  0.84740  Biso   1.000  H
  H44      1.0000 0.29760  0.62340  0.65260  Biso   1.000  H
  C53      1.0000 0.68460  0.82050  0.05150  Biso   1.000  C
  C54      1.0000 0.31540  0.32050  0.44850  Biso   1.000  C
  C55      1.0000 0.31540  0.17950  0.94850  Biso   1.000  C
  C56      1.0000 0.68460  0.67950  0.55150  Biso   1.000  C
  H45      1.0000 0.69010  0.77360  0.05710  Biso   1.000  H
  H46      1.0000 0.30990  0.27360  0.44290  Biso   1.000  H
  H47      1.0000 0.30990  0.22640  0.94290  Biso   1.000  H
  H48      1.0000 0.69010  0.72640  0.55710  Biso   1.000  H
  C57      1.0000 0.61760  0.92180  0.99600  Biso   1.000  C
  C58      1.0000 0.38240  0.42180  0.50400  Biso   1.000  C
  C59      1.0000 0.38240  0.07820  0.00400  Biso   1.000  C
  C60      1.0000 0.61760  0.57820  0.49600  Biso   1.000  C
  H49      1.0000 0.57030  0.95850  0.95480  Biso   1.000  H
  H50      1.0000 0.42970  0.45850  0.54520  Biso   1.000  H
  H51      1.0000 0.42970  0.04150  0.04520  Biso   1.000  H
  H52      1.0000 0.57030  0.54150  0.45480  Biso   1.000  H
  C61      1.0000 0.71670  0.92410  0.09740  Biso   1.000  C
  C62      1.0000 0.28330  0.42410  0.40260  Biso   1.000  C
  C63      1.0000 0.28330  0.07590  0.90260  Biso   1.000  C
  C64      1.0000 0.71670  0.57590  0.59740  Biso   1.000  C
  H53      1.0000 0.74980  0.96280  0.13910  Biso   1.000  H
  H54      1.0000 0.25020  0.46280  0.36090  Biso   1.000  H
  H55      1.0000 0.25020  0.03720  0.86090  Biso   1.000  H
  H56      1.0000 0.74980  0.53720  0.63910  Biso   1.000  H
  C65      1.0000 0.12870  0.99780  0.08330  Biso   1.000  C
  C66      1.0000 0.87130  0.49780  0.41670  Biso   1.000  C
  C67      1.0000 0.87130  0.00220  0.91670  Biso   1.000  C
  C68      1.0000 0.12870  0.50220  0.58330  Biso   1.000  C
  H57      1.0000 0.21520  0.99630  0.13950  Biso   1.000  H
  H58      1.0000 0.78480  0.49630  0.36050  Biso   1.000  H
  H59      1.0000 0.78480  0.00370  0.86050  Biso   1.000  H
  H60      1.0000 0.21520  0.50370  0.63950  Biso   1.000  H
  C69      1.0000 0.01820  0.80330  0.44890  Biso   1.000  C
  C70      1.0000 0.98180  0.30330  0.05110  Biso   1.000  C
  C71      1.0000 0.98180  0.19670  0.55110  Biso   1.000  C
  C72      1.0000 0.01820  0.69670  0.94890  Biso   1.000  C
