data_image0
_cell_length_a       7.9903
_cell_length_b       9.3545
_cell_length_c       10.754
_cell_angle_alpha    113.485
_cell_angle_beta     101.399
_cell_angle_gamma    101.897

_symmetry_space_group_name_H-M    "P 1"
_symmetry_int_tables_number       1

loop_
  _symmetry_equiv_pos_as_xyz
  'x, y, z'

loop_
  _atom_site_label
  _atom_site_occupancy
  _atom_site_fract_x
  _atom_site_fract_y
  _atom_site_fract_z
  _atom_site_thermal_displace_type
  _atom_site_B_iso_or_equiv
  _atom_site_type_symbol
  Cu1      1.0000 0.70633  0.99970  0.59009  Biso   1.000  Cu
  Cu2      1.0000 0.29367  0.00030  0.40991  Biso   1.000  Cu
  N1       1.0000 0.54930  0.86430  0.38890  Biso   1.000  N
  N2       1.0000 0.45070  0.13570  0.61110  Biso   1.000  N
  N3       1.0000 0.59940  0.86810  0.29250  Biso   1.000  N
  N4       1.0000 0.40060  0.13190  0.70750  Biso   1.000  N
  N5       1.0000 0.64090  0.87020  0.19750  Biso   1.000  N
  N6       1.0000 0.35910  0.12980  0.80250  Biso   1.000  N
  N7       1.0000 0.84690  0.17310  0.55710  Biso   1.000  N
  N8       1.0000 0.15310  0.82690  0.44290  Biso   1.000  N
  N9       1.0000 0.96020  0.16350  0.50310  Biso   1.000  N
  N10      1.0000 0.03980  0.83650  0.49690  Biso   1.000  N
  N11      1.0000 0.07520  0.16060  0.45280  Biso   1.000  N
  N12      1.0000 0.92480  0.83940  0.54720  Biso   1.000  N
  N13      1.0000 0.57710  0.84720  0.65580  Biso   1.000  N
  N14      1.0000 0.42290  0.15280  0.34420  Biso   1.000  N
  N15      1.0000 0.84010  0.12060  0.80230  Biso   1.000  N
  N16      1.0000 0.15990  0.87940  0.19770  Biso   1.000  N
  C1       1.0000 0.98020  0.25990  0.87080  Biso   1.000  C
  C2       1.0000 0.01980  0.74010  0.12920  Biso   1.000  C
  H1       1.0000 0.01790  0.29680  0.81010  Biso   1.000  H
  H2       1.0000 0.98210  0.70320  0.18990  Biso   1.000  H
  C3       1.0000 0.06100  0.33630  0.01390  Biso   1.000  C
  C4       1.0000 0.93900  0.66370  0.98610  Biso   1.000  C
  H3       1.0000 0.14460  0.41690  0.04790  Biso   1.000  H
  H4       1.0000 0.85540  0.58310  0.95210  Biso   1.000  H
  C5       1.0000 0.99500  0.27540  0.09840  Biso   1.000  C
  C6       1.0000 0.00500  0.72460  0.90160  Biso   1.000  C
  C7       1.0000 0.85280  0.12920  0.02820  Biso   1.000  C
  C8       1.0000 0.14720  0.87080  0.97180  Biso   1.000  C
  H5       1.0000 0.80810  0.08850  0.07060  Biso   1.000  H
  H6       1.0000 0.19190  0.91150  0.92940  Biso   1.000  H
  C9       1.0000 0.77910  0.05430  0.88160  Biso   1.000  C
  C10      1.0000 0.22090  0.94570  0.11840  Biso   1.000  C
  C11      1.0000 0.07560  0.36070  0.25620  Biso   1.000  C
  C12      1.0000 0.92440  0.63930  0.74380  Biso   1.000  C
  H7       1.0000 0.17700  0.35300  0.28500  Biso   1.000  H
  H8       1.0000 0.82300  0.64700  0.71500  Biso   1.000  H
  H9       1.0000 0.98200  0.35730  0.30900  Biso   1.000  H
  H10      1.0000 0.01800  0.64270  0.69100  Biso   1.000  H
  H11      1.0000 0.09300  0.46900  0.29610  Biso   1.000  H
  H12      1.0000 0.90700  0.53100  0.70390  Biso   1.000  H
  C13      1.0000 0.44870  0.70170  0.57220  Biso   1.000  C
  C14      1.0000 0.55130  0.29830  0.42780  Biso   1.000  C
  H13      1.0000 0.41490  0.68310  0.47650  Biso   1.000  H
  H14      1.0000 0.58510  0.31690  0.52350  Biso   1.000  H
  C15      1.0000 0.37670  0.60210  0.62450  Biso   1.000  C
  C16      1.0000 0.62330  0.39790  0.37550  Biso   1.000  C
  H15      1.0000 0.30830  0.52190  0.57800  Biso   1.000  H
  H16      1.0000 0.69170  0.47810  0.42200  Biso   1.000  H
  C17      1.0000 0.43320  0.64690  0.76880  Biso   1.000  C
  C18      1.0000 0.56680  0.35310  0.23120  Biso   1.000  C
  C19      1.0000 0.56220  0.79930  0.85600  Biso   1.000  C
  C20      1.0000 0.43780  0.20070  0.14400  Biso   1.000  C
  H17      1.0000 0.60270  0.84330  0.94270  Biso   1.000  H
  H18      1.0000 0.39730  0.15670  0.05730  Biso   1.000  H
  C21      1.0000 0.63200  0.89580  0.79800  Biso   1.000  C
  C22      1.0000 0.36800  0.10420  0.20200  Biso   1.000  C
  C23      1.0000 0.36220  0.53640  0.82820  Biso   1.000  C
  C24      1.0000 0.63780  0.46360  0.17180  Biso   1.000  C
  H19      1.0000 0.45300  0.51700  0.86380  Biso   1.000  H
  H20      1.0000 0.54700  0.48300  0.13620  Biso   1.000  H
  H21      1.0000 0.25400  0.44800  0.76440  Biso   1.000  H
  H22      1.0000 0.74600  0.55200  0.23560  Biso   1.000  H
  H23      1.0000 0.34900  0.57300  0.89100  Biso   1.000  H
  H24      1.0000 0.65100  0.42700  0.10900  Biso   1.000  H
