data_image0
_cell_length_a       7.961
_cell_length_b       9.392
_cell_length_c       10.7626
_cell_angle_alpha    113.439
_cell_angle_beta     101.228
_cell_angle_gamma    101.982

_symmetry_space_group_name_H-M    "P 1"
_symmetry_int_tables_number       1

loop_
  _symmetry_equiv_pos_as_xyz
  'x, y, z'

loop_
  _atom_site_label
  _atom_site_occupancy
  _atom_site_fract_x
  _atom_site_fract_y
  _atom_site_fract_z
  _atom_site_thermal_displace_type
  _atom_site_B_iso_or_equiv
  _atom_site_type_symbol
  Cu1      1.0000 0.70746  0.00051  0.09009  Biso   1.000  Cu
  Cu2      1.0000 0.29254  0.99949  0.90991  Biso   1.000  Cu
  N1       1.0000 0.84100  0.12060  0.30230  Biso   1.000  N
  N2       1.0000 0.15900  0.87940  0.69770  Biso   1.000  N
  N3       1.0000 0.57820  0.84850  0.15640  Biso   1.000  N
  N4       1.0000 0.42180  0.15150  0.84360  Biso   1.000  N
  N5       1.0000 0.84980  0.17430  0.05630  Biso   1.000  N
  N6       1.0000 0.15020  0.82570  0.94370  Biso   1.000  N
  N7       1.0000 0.95880  0.16360  0.00490  Biso   1.000  N
  N8       1.0000 0.04120  0.83640  0.99510  Biso   1.000  N
  N9       1.0000 0.07640  0.16400  0.95440  Biso   1.000  N
  N10      1.0000 0.92360  0.83600  0.04560  Biso   1.000  N
  N11      1.0000 0.55060  0.86410  0.88910  Biso   1.000  N
  N12      1.0000 0.44940  0.13590  0.11090  Biso   1.000  N
  N13      1.0000 0.60050  0.86860  0.79220  Biso   1.000  N
  N14      1.0000 0.39950  0.13140  0.20780  Biso   1.000  N
  N15      1.0000 0.63900  0.86870  0.69570  Biso   1.000  N
  N16      1.0000 0.36100  0.13130  0.30430  Biso   1.000  N
  C1       1.0000 0.98130  0.25920  0.36880  Biso   1.000  C
  C2       1.0000 0.01870  0.74080  0.63120  Biso   1.000  C
  H1       1.0000 0.02720  0.30390  0.31450  Biso   1.000  H
  H2       1.0000 0.97280  0.69610  0.68550  Biso   1.000  H
  C3       1.0000 0.05980  0.33770  0.51410  Biso   1.000  C
  C4       1.0000 0.94020  0.66230  0.48590  Biso   1.000  C
  H3       1.0000 0.15730  0.43340  0.55610  Biso   1.000  H
  H4       1.0000 0.84270  0.56660  0.44390  Biso   1.000  H
  C5       1.0000 0.99510  0.27540  0.59780  Biso   1.000  C
  C6       1.0000 0.00490  0.72460  0.40220  Biso   1.000  C
  C7       1.0000 0.85190  0.12870  0.52820  Biso   1.000  C
  C8       1.0000 0.14810  0.87130  0.47180  Biso   1.000  C
  H5       1.0000 0.80540  0.08100  0.58040  Biso   1.000  H
  H6       1.0000 0.19460  0.91900  0.41960  Biso   1.000  H
  C9       1.0000 0.77980  0.05500  0.38220  Biso   1.000  C
  C10      1.0000 0.22020  0.94500  0.61780  Biso   1.000  C
  C11      1.0000 0.63260  0.89590  0.29730  Biso   1.000  C
  C12      1.0000 0.36740  0.10410  0.70270  Biso   1.000  C
  C13      1.0000 0.56290  0.80070  0.35700  Biso   1.000  C
  C14      1.0000 0.43710  0.19930  0.64300  Biso   1.000  C
  H7       1.0000 0.60160  0.83830  0.45500  Biso   1.000  H
  H8       1.0000 0.39840  0.16170  0.54500  Biso   1.000  H
  C15      1.0000 0.43340  0.64690  0.26820  Biso   1.000  C
  C16      1.0000 0.56660  0.35310  0.73180  Biso   1.000  C
  C17      1.0000 0.37680  0.60190  0.12450  Biso   1.000  C
  C18      1.0000 0.62320  0.39810  0.87550  Biso   1.000  C
  H9       1.0000 0.28890  0.50180  0.06240  Biso   1.000  H
  H10      1.0000 0.71110  0.49820  0.93760  Biso   1.000  H
  C19      1.0000 0.44950  0.70390  0.07230  Biso   1.000  C
  C20      1.0000 0.55050  0.29610  0.92770  Biso   1.000  C
  H11      1.0000 0.40780  0.67140  0.97520  Biso   1.000  H
  H12      1.0000 0.59220  0.32860  0.02480  Biso   1.000  H
  C21      1.0000 0.07310  0.36240  0.75750  Biso   1.000  C
  C22      1.0000 0.92690  0.63760  0.24250  Biso   1.000  C
  H13      1.0000 0.09500  0.47780  0.79080  Biso   1.000  H
  H14      1.0000 0.90500  0.52220  0.20920  Biso   1.000  H
  H15      1.0000 0.18460  0.34260  0.78520  Biso   1.000  H
  H16      1.0000 0.81540  0.65740  0.21480  Biso   1.000  H
  H17      1.0000 0.98940  0.32240  0.79850  Biso   1.000  H
  H18      1.0000 0.01060  0.67760  0.20150  Biso   1.000  H
  C23      1.0000 0.36320  0.53640  0.32810  Biso   1.000  C
  C24      1.0000 0.63680  0.46360  0.67190  Biso   1.000  C
  H19      1.0000 0.34680  0.59990  0.41730  Biso   1.000  H
  H20      1.0000 0.65320  0.40010  0.58270  Biso   1.000  H
  H21      1.0000 0.44800  0.48090  0.34260  Biso   1.000  H
  H22      1.0000 0.55200  0.51910  0.65740  Biso   1.000  H
  H23      1.0000 0.24960  0.45730  0.26270  Biso   1.000  H
  H24      1.0000 0.75040  0.54270  0.73730  Biso   1.000  H
