data_image0
_cell_length_a       7.5234
_cell_length_b       7.7774
_cell_length_c       19.444
_cell_angle_alpha    90
_cell_angle_beta     90
_cell_angle_gamma    90

_symmetry_space_group_name_H-M    "P 1"
_symmetry_int_tables_number       1

loop_
  _symmetry_equiv_pos_as_xyz
  'x, y, z'

loop_
  _atom_site_label
  _atom_site_occupancy
  _atom_site_fract_x
  _atom_site_fract_y
  _atom_site_fract_z
  _atom_site_thermal_displace_type
  _atom_site_B_iso_or_equiv
  _atom_site_type_symbol
  Cu1      1.0000 0.17368  0.52585  0.03380  Biso   1.000  Cu
  Cu2      1.0000 0.67368  0.97415  0.96620  Biso   1.000  Cu
  Cu3      1.0000 0.82632  0.02585  0.46620  Biso   1.000  Cu
  Cu4      1.0000 0.32632  0.47415  0.53380  Biso   1.000  Cu
  O1       1.0000 0.29550  0.52480  0.12426  Biso   1.000  O
  O2       1.0000 0.79550  0.97520  0.87574  Biso   1.000  O
  O3       1.0000 0.70450  0.02480  0.37574  Biso   1.000  O
  O4       1.0000 0.20450  0.47520  0.62426  Biso   1.000  O
  O5       1.0000 0.55950  0.48170  0.07763  Biso   1.000  O
  O6       1.0000 0.05950  0.01830  0.92237  Biso   1.000  O
  O7       1.0000 0.44050  0.98170  0.42237  Biso   1.000  O
  O8       1.0000 0.94050  0.51830  0.57763  Biso   1.000  O
  O9       1.0000 0.46990  0.47720  0.44849  Biso   1.000  O
  O10      1.0000 0.96990  0.02280  0.55151  Biso   1.000  O
  O11      1.0000 0.53010  0.97720  0.05151  Biso   1.000  O
  O12      1.0000 0.03010  0.52280  0.94849  Biso   1.000  O
  O13      1.0000 0.27170  0.56710  0.88668  Biso   1.000  O
  O14      1.0000 0.77170  0.93290  0.11332  Biso   1.000  O
  O15      1.0000 0.72830  0.06710  0.61332  Biso   1.000  O
  O16      1.0000 0.22830  0.43290  0.38668  Biso   1.000  O
  O17      1.0000 0.92160  0.48070  0.10041  Biso   1.000  O
  O18      1.0000 0.42160  0.01930  0.89959  Biso   1.000  O
  O19      1.0000 0.07840  0.98070  0.39959  Biso   1.000  O
  O20      1.0000 0.57840  0.51930  0.60041  Biso   1.000  O
  O21      1.0000 0.00610  0.74080  0.20250  Biso   1.000  O
  O22      1.0000 0.50610  0.75920  0.79750  Biso   1.000  O
  O23      1.0000 0.99390  0.24080  0.29750  Biso   1.000  O
  O24      1.0000 0.49390  0.25920  0.70250  Biso   1.000  O
  O25      1.0000 0.01950  0.17750  0.15930  Biso   1.000  O
  O26      1.0000 0.51950  0.32250  0.84070  Biso   1.000  O
  O27      1.0000 0.98050  0.67750  0.34070  Biso   1.000  O
  O28      1.0000 0.48050  0.82250  0.65930  Biso   1.000  O
  N1       1.0000 0.16510  0.78230  0.03850  Biso   1.000  N
  N2       1.0000 0.66510  0.71770  0.96150  Biso   1.000  N
  N3       1.0000 0.83490  0.28230  0.46150  Biso   1.000  N
  N4       1.0000 0.33490  0.21770  0.53850  Biso   1.000  N
  N5       1.0000 0.21720  0.27220  0.02740  Biso   1.000  N
  N6       1.0000 0.71720  0.22780  0.97260  Biso   1.000  N
  N7       1.0000 0.78280  0.77220  0.47260  Biso   1.000  N
  N8       1.0000 0.28280  0.72780  0.52740  Biso   1.000  N
  C1       1.0000 0.46120  0.49840  0.12871  Biso   1.000  C
  C2       1.0000 0.96120  0.00160  0.87129  Biso   1.000  C
  C3       1.0000 0.53880  0.99840  0.37129  Biso   1.000  C
  C4       1.0000 0.03880  0.50160  0.62871  Biso   1.000  C
  C5       1.0000 0.54010  0.48580  0.20004  Biso   1.000  C
  C6       1.0000 0.04010  0.01420  0.79996  Biso   1.000  C
  C7       1.0000 0.45990  0.98580  0.29996  Biso   1.000  C
  C8       1.0000 0.95990  0.51420  0.70004  Biso   1.000  C
  C9       1.0000 0.41180  0.48000  0.25958  Biso   1.000  C
  C10      1.0000 0.91180  0.02000  0.74042  Biso   1.000  C
  C11      1.0000 0.58820  0.98000  0.24042  Biso   1.000  C
  C12      1.0000 0.08820  0.52000  0.75958  Biso   1.000  C
  C13      1.0000 0.50710  0.47090  0.32842  Biso   1.000  C
  C14      1.0000 0.00710  0.02910  0.67158  Biso   1.000  C
  C15      1.0000 0.49290  0.97090  0.17158  Biso   1.000  C
  C16      1.0000 0.99290  0.52910  0.82842  Biso   1.000  C
  C17      1.0000 0.39040  0.46010  0.39150  Biso   1.000  C
  C18      1.0000 0.89040  0.03990  0.60850  Biso   1.000  C
  C19      1.0000 0.60960  0.96010  0.10850  Biso   1.000  C
  C20      1.0000 0.10960  0.53990  0.89150  Biso   1.000  C
  H1       1.0000 0.81370  0.48980  0.09580  Biso   1.000  H
  H2       1.0000 0.31370  0.01020  0.90420  Biso   1.000  H
  H3       1.0000 0.18630  0.98980  0.40420  Biso   1.000  H
  H4       1.0000 0.68630  0.51020  0.59580  Biso   1.000  H
  H5       1.0000 0.92490  0.39000  0.12180  Biso   1.000  H
  H6       1.0000 0.42490  0.11000  0.87820  Biso   1.000  H
  H7       1.0000 0.07510  0.89000  0.37820  Biso   1.000  H
  H8       1.0000 0.57510  0.61000  0.62180  Biso   1.000  H
  H9       1.0000 0.02020  0.64740  0.18370  Biso   1.000  H
  H10      1.0000 0.52020  0.85260  0.81630  Biso   1.000  H
  H11      1.0000 0.97980  0.14740  0.31630  Biso   1.000  H
  H12      1.0000 0.47980  0.35260  0.68370  Biso   1.000  H
  H13      1.0000 0.92280  0.78950  0.18360  Biso   1.000  H
  H14      1.0000 0.42280  0.71050  0.81640  Biso   1.000  H
  H15      1.0000 0.07720  0.28950  0.31640  Biso   1.000  H
  H16      1.0000 0.57720  0.21050  0.68360  Biso   1.000  H
  H17      1.0000 0.03050  0.17600  0.20120  Biso   1.000  H
  H18      1.0000 0.53050  0.32400  0.79880  Biso   1.000  H
  H19      1.0000 0.96950  0.67600  0.29880  Biso   1.000  H
  H20      1.0000 0.46950  0.82400  0.70120  Biso   1.000  H
  H21      1.0000 0.95550  0.09460  0.15110  Biso   1.000  H
  H22      1.0000 0.45550  0.40540  0.84890  Biso   1.000  H
  H23      1.0000 0.04450  0.59460  0.34890  Biso   1.000  H
  H24      1.0000 0.54450  0.90540  0.65110  Biso   1.000  H
  H25      1.0000 0.12650  0.82390  0.99860  Biso   1.000  H
  H26      1.0000 0.62650  0.67610  0.00140  Biso   1.000  H
  H27      1.0000 0.87350  0.32390  0.50140  Biso   1.000  H
  H28      1.0000 0.37350  0.17610  0.49860  Biso   1.000  H
  H29      1.0000 0.27340  0.82290  0.04710  Biso   1.000  H
  H30      1.0000 0.77340  0.67710  0.95290  Biso   1.000  H
  H31      1.0000 0.72660  0.32290  0.45290  Biso   1.000  H
  H32      1.0000 0.22660  0.17710  0.54710  Biso   1.000  H
  H33      1.0000 0.09140  0.81430  0.07200  Biso   1.000  H
  H34      1.0000 0.59140  0.68570  0.92800  Biso   1.000  H
  H35      1.0000 0.90860  0.31430  0.42800  Biso   1.000  H
  H36      1.0000 0.40860  0.18570  0.57200  Biso   1.000  H
  H37      1.0000 0.16070  0.23020  0.99080  Biso   1.000  H
  H38      1.0000 0.66070  0.26980  0.00920  Biso   1.000  H
  H39      1.0000 0.83930  0.73020  0.50920  Biso   1.000  H
  H40      1.0000 0.33930  0.76980  0.49080  Biso   1.000  H
  H41      1.0000 0.17690  0.22100  0.06520  Biso   1.000  H
  H42      1.0000 0.67690  0.27900  0.93480  Biso   1.000  H
  H43      1.0000 0.82310  0.72100  0.43480  Biso   1.000  H
  H44      1.0000 0.32310  0.77900  0.56520  Biso   1.000  H
  H45      1.0000 0.33330  0.25270  0.02320  Biso   1.000  H
  H46      1.0000 0.83330  0.24730  0.97680  Biso   1.000  H
  H47      1.0000 0.66670  0.75270  0.47680  Biso   1.000  H
  H48      1.0000 0.16670  0.74730  0.52320  Biso   1.000  H
  H49      1.0000 0.61310  0.38310  0.20188  Biso   1.000  H
  H50      1.0000 0.11310  0.11690  0.79812  Biso   1.000  H
  H51      1.0000 0.38690  0.88310  0.29812  Biso   1.000  H
  H52      1.0000 0.88690  0.61690  0.70188  Biso   1.000  H
  H53      1.0000 0.61830  0.58350  0.20669  Biso   1.000  H
  H54      1.0000 0.11830  0.91650  0.79331  Biso   1.000  H
  H55      1.0000 0.38170  0.08350  0.29331  Biso   1.000  H
  H56      1.0000 0.88170  0.41650  0.70669  Biso   1.000  H
  H57      1.0000 0.33520  0.38040  0.25470  Biso   1.000  H
  H58      1.0000 0.83520  0.11960  0.74530  Biso   1.000  H
  H59      1.0000 0.66480  0.88040  0.24530  Biso   1.000  H
  H60      1.0000 0.16480  0.61960  0.75470  Biso   1.000  H
  H61      1.0000 0.33730  0.58180  0.25852  Biso   1.000  H
  H62      1.0000 0.83730  0.91820  0.74148  Biso   1.000  H
  H63      1.0000 0.66270  0.08180  0.24148  Biso   1.000  H
  H64      1.0000 0.16270  0.41820  0.75852  Biso   1.000  H
  H65      1.0000 0.58460  0.37120  0.32795  Biso   1.000  H
  H66      1.0000 0.08460  0.12880  0.67205  Biso   1.000  H
  H67      1.0000 0.41540  0.87120  0.17205  Biso   1.000  H
  H68      1.0000 0.91540  0.62880  0.82795  Biso   1.000  H
  H69      1.0000 0.58200  0.57180  0.33272  Biso   1.000  H
  H70      1.0000 0.08200  0.92820  0.66728  Biso   1.000  H
  H71      1.0000 0.41800  0.07180  0.16728  Biso   1.000  H
  H72      1.0000 0.91800  0.42820  0.83272  Biso   1.000  H
