data_image0
_cell_length_a       6.8948
_cell_length_b       10.7098
_cell_length_c       12.4332
_cell_angle_alpha    82.112
_cell_angle_beta     80.495
_cell_angle_gamma    72.956

_symmetry_space_group_name_H-M    "P 1"
_symmetry_int_tables_number       1

loop_
  _symmetry_equiv_pos_as_xyz
  'x, y, z'

loop_
  _atom_site_label
  _atom_site_occupancy
  _atom_site_fract_x
  _atom_site_fract_y
  _atom_site_fract_z
  _atom_site_thermal_displace_type
  _atom_site_B_iso_or_equiv
  _atom_site_type_symbol
  Cu1      1.0000 0.74769  0.28109  0.21243  Biso   1.000  Cu
  Cu2      1.0000 0.25231  0.71891  0.78757  Biso   1.000  Cu
  O1       1.0000 0.07567  0.22111  0.24714  Biso   1.000  O
  O2       1.0000 0.92433  0.77889  0.75286  Biso   1.000  O
  O3       1.0000 0.61957  0.33398  0.36013  Biso   1.000  O
  O4       1.0000 0.38043  0.66602  0.63987  Biso   1.000  O
  O5       1.0000 0.34913  0.35346  0.27742  Biso   1.000  O
  O6       1.0000 0.65087  0.64654  0.72258  Biso   1.000  O
  O7       1.0000 0.72871  0.10085  0.25229  Biso   1.000  O
  O8       1.0000 0.27129  0.89915  0.74771  Biso   1.000  O
  O9       1.0000 0.95006  0.03409  0.37482  Biso   1.000  O
  O10      1.0000 0.04994  0.96591  0.62518  Biso   1.000  O
  N1       1.0000 0.72974  0.46860  0.15494  Biso   1.000  N
  N2       1.0000 0.27026  0.53140  0.84506  Biso   1.000  N
  N3       1.0000 0.79334  0.26266  0.05057  Biso   1.000  N
  N4       1.0000 0.20666  0.73734  0.94943  Biso   1.000  N
  C1       1.0000 0.42520  0.36748  0.35771  Biso   1.000  C
  C2       1.0000 0.57480  0.63252  0.64229  Biso   1.000  C
  C3       1.0000 0.78340  0.37580  0.98533  Biso   1.000  C
  C4       1.0000 0.21660  0.62420  0.01467  Biso   1.000  C
  C5       1.0000 0.59330  0.94052  0.49863  Biso   1.000  C
  C6       1.0000 0.40670  0.05948  0.50137  Biso   1.000  C
  H1       1.0000 0.55100  0.86340  0.53110  Biso   1.000  H
  H2       1.0000 0.44900  0.13660  0.46890  Biso   1.000  H
  H3       1.0000 0.68900  0.95280  0.54260  Biso   1.000  H
  H4       1.0000 0.31100  0.04720  0.45740  Biso   1.000  H
  C7       1.0000 0.70190  0.91721  0.38175  Biso   1.000  C
  C8       1.0000 0.29810  0.08279  0.61825  Biso   1.000  C
  H5       1.0000 0.80480  0.83300  0.38310  Biso   1.000  H
  H6       1.0000 0.19520  0.16700  0.61690  Biso   1.000  H
  H7       1.0000 0.60310  0.91450  0.33550  Biso   1.000  H
  H8       1.0000 0.39690  0.08550  0.66450  Biso   1.000  H
  C9       1.0000 0.69000  0.56921  0.21638  Biso   1.000  C
  C10      1.0000 0.31000  0.43079  0.78362  Biso   1.000  C
  H9       1.0000 0.68250  0.55190  0.29210  Biso   1.000  H
  H10      1.0000 0.31750  0.44810  0.70790  Biso   1.000  H
  C11      1.0000 0.74340  0.49349  0.04486  Biso   1.000  C
  C12      1.0000 0.25660  0.50651  0.95514  Biso   1.000  C
  C13      1.0000 0.66000  0.69776  0.17093  Biso   1.000  C
  C14      1.0000 0.34000  0.30224  0.82907  Biso   1.000  C
  H11      1.0000 0.63150  0.76560  0.21550  Biso   1.000  H
  H12      1.0000 0.36850  0.23440  0.78450  Biso   1.000  H
  C15      1.0000 0.29180  0.42887  0.45686  Biso   1.000  C
  C16      1.0000 0.70820  0.57113  0.54314  Biso   1.000  C
  H13      1.0000 0.32900  0.50690  0.46640  Biso   1.000  H
  H14      1.0000 0.67100  0.49310  0.53360  Biso   1.000  H
  H15      1.0000 0.32020  0.36770  0.52130  Biso   1.000  H
  H16      1.0000 0.67980  0.63230  0.47870  Biso   1.000  H
  C17      1.0000 0.84540  0.14849  0.89130  Biso   1.000  C
  C18      1.0000 0.15460  0.85151  0.10870  Biso   1.000  C
  H17      1.0000 0.86650  0.07000  0.86120  Biso   1.000  H
  H18      1.0000 0.13350  0.93000  0.13880  Biso   1.000  H
  C19      1.0000 0.80330  0.02473  0.33363  Biso   1.000  C
  C20      1.0000 0.19670  0.97527  0.66637  Biso   1.000  C
  C21      1.0000 0.67290  0.72411  0.05804  Biso   1.000  C
  C22      1.0000 0.32710  0.27589  0.94196  Biso   1.000  C
  H19      1.0000 0.65320  0.80980  0.02580  Biso   1.000  H
  H20      1.0000 0.34680  0.19020  0.97420  Biso   1.000  H
  C23      1.0000 0.82310  0.15161  0.00378  Biso   1.000  C
  C24      1.0000 0.17690  0.84839  0.99622  Biso   1.000  C
  H21      1.0000 0.82890  0.07390  0.04850  Biso   1.000  H
  H22      1.0000 0.17110  0.92610  0.95150  Biso   1.000  H
  C25      1.0000 0.06330  0.46628  0.45004  Biso   1.000  C
  C26      1.0000 0.93670  0.53372  0.54996  Biso   1.000  C
  H23      1.0000 0.02340  0.38800  0.44470  Biso   1.000  H
  H24      1.0000 0.97660  0.61200  0.55530  Biso   1.000  H
  H25      1.0000 0.03430  0.52480  0.38430  Biso   1.000  H
  H26      1.0000 0.96570  0.47520  0.61570  Biso   1.000  H
  C27      1.0000 0.83560  0.26432  0.82426  Biso   1.000  C
  C28      1.0000 0.16440  0.73568  0.17574  Biso   1.000  C
  H27      1.0000 0.84950  0.26470  0.74850  Biso   1.000  H
  H28      1.0000 0.15050  0.73530  0.25150  Biso   1.000  H
  C29      1.0000 0.71580  0.62035  0.99379  Biso   1.000  C
  C30      1.0000 0.28420  0.37965  0.00621  Biso   1.000  C
  H29      1.0000 0.72590  0.63550  0.91790  Biso   1.000  H
  H30      1.0000 0.27410  0.36450  0.08210  Biso   1.000  H
  C31      1.0000 0.80480  0.37975  0.87191  Biso   1.000  C
  C32      1.0000 0.19520  0.62025  0.12809  Biso   1.000  C
  H31      1.0000 0.79870  0.45850  0.82860  Biso   1.000  H
  H32      1.0000 0.20130  0.54150  0.17140  Biso   1.000  H
  O11      1.0000 0.76850  0.22369  0.57220  Biso   1.000  O
  O12      1.0000 0.23150  0.77631  0.42780  Biso   1.000  O
  O13      1.0000 0.43720  0.04219  0.14848  Biso   1.000  O
  O14      1.0000 0.56280  0.95781  0.85152  Biso   1.000  O
  H33      1.0000 0.74400  0.24400  0.51100  Biso   1.000  H
  H34      1.0000 0.25600  0.75600  0.48900  Biso   1.000  H
  H35      1.0000 0.83800  0.15600  0.57100  Biso   1.000  H
  H36      1.0000 0.16200  0.84400  0.42900  Biso   1.000  H
  H37      1.0000 0.05800  0.16400  0.29300  Biso   1.000  H
  H38      1.0000 0.94200  0.83600  0.70700  Biso   1.000  H
  H39      1.0000 0.13300  0.26200  0.26600  Biso   1.000  H
  H40      1.0000 0.86700  0.73800  0.73400  Biso   1.000  H
  H41      1.0000 0.55300  0.06600  0.18600  Biso   1.000  H
  H42      1.0000 0.44700  0.93400  0.81400  Biso   1.000  H
  H43      1.0000 0.30000  0.10100  0.18400  Biso   1.000  H
  H44      1.0000 0.70000  0.89900  0.81600  Biso   1.000  H
