data_image0
_cell_length_a       6.9934
_cell_length_b       10.902
_cell_length_c       12.396
_cell_angle_alpha    82.289
_cell_angle_beta     80.859
_cell_angle_gamma    72.673

_symmetry_space_group_name_H-M    "P 1"
_symmetry_int_tables_number       1

loop_
  _symmetry_equiv_pos_as_xyz
  'x, y, z'

loop_
  _atom_site_label
  _atom_site_occupancy
  _atom_site_fract_x
  _atom_site_fract_y
  _atom_site_fract_z
  _atom_site_thermal_displace_type
  _atom_site_B_iso_or_equiv
  _atom_site_type_symbol
  C1       1.0000 0.81680  0.65230  0.50400  Biso   1.000  C
  C2       1.0000 0.18320  0.34770  0.49600  Biso   1.000  C
  H1       1.0000 0.81980  0.57600  0.54840  Biso   1.000  H
  H2       1.0000 0.18020  0.42400  0.45160  Biso   1.000  H
  C3       1.0000 0.84320  0.64950  0.39210  Biso   1.000  C
  C4       1.0000 0.15680  0.35050  0.60790  Biso   1.000  C
  H3       1.0000 0.86600  0.57230  0.36150  Biso   1.000  H
  H4       1.0000 0.13400  0.42770  0.63850  Biso   1.000  H
  C5       1.0000 0.83540  0.76270  0.32550  Biso   1.000  C
  C6       1.0000 0.16460  0.23730  0.67450  Biso   1.000  C
  H5       1.0000 0.85060  0.76280  0.24960  Biso   1.000  H
  H6       1.0000 0.14940  0.23720  0.75040  Biso   1.000  H
  C7       1.0000 0.80520  0.87460  0.37260  Biso   1.000  C
  C8       1.0000 0.19480  0.12540  0.62740  Biso   1.000  C
  H7       1.0000 0.80170  0.95140  0.32890  Biso   1.000  H
  H8       1.0000 0.19830  0.04860  0.67110  Biso   1.000  H
  C9       1.0000 0.77950  0.87250  0.48680  Biso   1.000  C
  C10      1.0000 0.22050  0.12750  0.51320  Biso   1.000  C
  C11      1.0000 0.74240  0.98610  0.54580  Biso   1.000  C
  C12      1.0000 0.25760  0.01390  0.45420  Biso   1.000  C
  C13      1.0000 0.72190  0.11180  0.49600  Biso   1.000  C
  C14      1.0000 0.27810  0.88820  0.50400  Biso   1.000  C
  H9       1.0000 0.73580  0.12670  0.41990  Biso   1.000  H
  H10      1.0000 0.26420  0.87330  0.58010  Biso   1.000  H
  C15      1.0000 0.68170  0.21260  0.55850  Biso   1.000  C
  C16      1.0000 0.31830  0.78740  0.44150  Biso   1.000  C
  H11      1.0000 0.66590  0.29630  0.52570  Biso   1.000  H
  H12      1.0000 0.33410  0.70370  0.47430  Biso   1.000  H
  C17      1.0000 0.66480  0.18820  0.67210  Biso   1.000  C
  C18      1.0000 0.33520  0.81180  0.32790  Biso   1.000  C
  H13      1.0000 0.63990  0.25470  0.71670  Biso   1.000  H
  H14      1.0000 0.36010  0.74530  0.28330  Biso   1.000  H
  C19      1.0000 0.68610  0.06150  0.71730  Biso   1.000  C
  C20      1.0000 0.31390  0.93850  0.28270  Biso   1.000  C
  H15      1.0000 0.67300  0.04490  0.79330  Biso   1.000  H
  H16      1.0000 0.32700  0.95510  0.20670  Biso   1.000  H
  C21      1.0000 0.79870  0.52660  0.83320  Biso   1.000  C
  C22      1.0000 0.20130  0.47340  0.16680  Biso   1.000  C
  C23      1.0000 0.69940  0.42170  0.88130  Biso   1.000  C
  C24      1.0000 0.30060  0.57830  0.11870  Biso   1.000  C
  H17      1.0000 0.60480  0.41780  0.83340  Biso   1.000  H
  H18      1.0000 0.39520  0.58220  0.16660  Biso   1.000  H
  H19      1.0000 0.80200  0.33920  0.88400  Biso   1.000  H
  H20      1.0000 0.19800  0.66080  0.11600  Biso   1.000  H
  C25      1.0000 0.58840  0.44370  0.99570  Biso   1.000  C
  C26      1.0000 0.41160  0.55630  0.00430  Biso   1.000  C
  H21      1.0000 0.54590  0.36760  0.02510  Biso   1.000  H
  H22      1.0000 0.45410  0.63240  0.97490  Biso   1.000  H
  H23      1.0000 0.68280  0.45180  0.04200  Biso   1.000  H
  H24      1.0000 0.31720  0.54820  0.95800  Biso   1.000  H
  C27      1.0000 0.41610  0.86680  0.85790  Biso   1.000  C
  C28      1.0000 0.58390  0.13320  0.14210  Biso   1.000  C
  C29      1.0000 0.28610  0.92540  0.95710  Biso   1.000  C
  C30      1.0000 0.71390  0.07460  0.04290  Biso   1.000  C
  H25      1.0000 0.32620  0.99980  0.96930  Biso   1.000  H
  H26      1.0000 0.67380  0.00020  0.03070  Biso   1.000  H
  H27      1.0000 0.31200  0.86310  0.02050  Biso   1.000  H
  H28      1.0000 0.68800  0.13690  0.97950  Biso   1.000  H
  C31      1.0000 0.06130  0.96750  0.94980  Biso   1.000  C
  C32      1.0000 0.93870  0.03250  0.05020  Biso   1.000  C
  H29      1.0000 0.01820  0.89260  0.94230  Biso   1.000  H
  H30      1.0000 0.98180  0.10740  0.05770  Biso   1.000  H
  H31      1.0000 0.03460  0.02690  0.88480  Biso   1.000  H
  H32      1.0000 0.96540  0.97310  0.11520  Biso   1.000  H
  Cu1      1.0000 0.73673  0.77939  0.71374  Biso   1.000  Cu
  Cu2      1.0000 0.26327  0.22061  0.28626  Biso   1.000  Cu
  N1       1.0000 0.72420  0.96370  0.65660  Biso   1.000  N
  N2       1.0000 0.27580  0.03630  0.34340  Biso   1.000  N
  N3       1.0000 0.78660  0.76150  0.55190  Biso   1.000  N
  N4       1.0000 0.21340  0.23850  0.44810  Biso   1.000  N
  O1       1.0000 0.71840  0.60400  0.75330  Biso   1.000  O
  O2       1.0000 0.28160  0.39600  0.24670  Biso   1.000  O
  O3       1.0000 0.94450  0.53500  0.87050  Biso   1.000  O
  O4       1.0000 0.05550  0.46500  0.12950  Biso   1.000  O
  O5       1.0000 0.60790  0.83220  0.86030  Biso   1.000  O
  O6       1.0000 0.39210  0.16780  0.13970  Biso   1.000  O
  O7       1.0000 0.34200  0.85260  0.77720  Biso   1.000  O
  O8       1.0000 0.65800  0.14740  0.22280  Biso   1.000  O
  O9       1.0000 0.06880  0.72060  0.74620  Biso   1.000  O
  O10      1.0000 0.93120  0.27940  0.25380  Biso   1.000  O
  H33      1.0000 0.09290  0.78050  0.76850  Biso   1.000  H
  H34      1.0000 0.90710  0.21950  0.23150  Biso   1.000  H
  H35      1.0000 0.01300  0.66830  0.79180  Biso   1.000  H
  H36      1.0000 0.98700  0.33170  0.20820  Biso   1.000  H
  O11      1.0000 0.56810  0.45570  0.35530  Biso   1.000  O
  O12      1.0000 0.43190  0.54430  0.64470  Biso   1.000  O
  H37      1.0000 0.68080  0.40330  0.32190  Biso   1.000  H
  H38      1.0000 0.31920  0.59670  0.67810  Biso   1.000  H
  H39      1.0000 0.48340  0.43650  0.32180  Biso   1.000  H
  H40      1.0000 0.51660  0.56350  0.67820  Biso   1.000  H
  O13      1.0000 0.77610  0.72550  0.07060  Biso   1.000  O
  O14      1.0000 0.22390  0.27450  0.92940  Biso   1.000  O
  H41      1.0000 0.74290  0.72770  0.00430  Biso   1.000  H
  H42      1.0000 0.25710  0.27230  0.99570  Biso   1.000  H
  H43      1.0000 0.80690  0.63870  0.08510  Biso   1.000  H
  H44      1.0000 0.19310  0.36130  0.91490  Biso   1.000  H
