data_image0
_cell_length_a       6.974
_cell_length_b       9.127
_cell_length_c       11.243
_cell_angle_alpha    107.35
_cell_angle_beta     105.14
_cell_angle_gamma    101.99

_symmetry_space_group_name_H-M    "P 1"
_symmetry_int_tables_number       1

loop_
  _symmetry_equiv_pos_as_xyz
  'x, y, z'

loop_
  _atom_site_label
  _atom_site_occupancy
  _atom_site_fract_x
  _atom_site_fract_y
  _atom_site_fract_z
  _atom_site_thermal_displace_type
  _atom_site_B_iso_or_equiv
  _atom_site_type_symbol
  Cu1      1.0000 0.20184  0.66800  0.23165  Biso   1.000  Cu
  Cu2      1.0000 0.79816  0.33200  0.76835  Biso   1.000  Cu
  Cl1      1.0000 0.41318  0.92462  0.29497  Biso   1.000  Cl
  Cl2      1.0000 0.58682  0.07538  0.70503  Biso   1.000  Cl
  N1       1.0000 0.30370  0.70720  0.63916  Biso   1.000  N
  N2       1.0000 0.69630  0.29280  0.36084  Biso   1.000  N
  C1       1.0000 0.20270  0.77780  0.71910  Biso   1.000  C
  C2       1.0000 0.79730  0.22220  0.28090  Biso   1.000  C
  N3       1.0000 0.03500  0.82010  0.67740  Biso   1.000  N
  N4       1.0000 0.96500  0.17990  0.32260  Biso   1.000  N
  C3       1.0000 0.96530  0.80670  0.55060  Biso   1.000  C
  C4       1.0000 0.03470  0.19330  0.44940  Biso   1.000  C
  C5       1.0000 0.07050  0.74730  0.46140  Biso   1.000  C
  C6       1.0000 0.92950  0.25270  0.53860  Biso   1.000  C
  C7       1.0000 0.24880  0.69520  0.50790  Biso   1.000  C
  C8       1.0000 0.75120  0.30480  0.49210  Biso   1.000  C
  C9       1.0000 0.48200  0.65490  0.69240  Biso   1.000  C
  C10      1.0000 0.51800  0.34510  0.30760  Biso   1.000  C
  H1       1.0000 0.53190  0.60880  0.62260  Biso   1.000  H
  H2       1.0000 0.46810  0.39120  0.37740  Biso   1.000  H
  H3       1.0000 0.43870  0.57560  0.72810  Biso   1.000  H
  H4       1.0000 0.56130  0.42440  0.27190  Biso   1.000  H
  H5       1.0000 0.59180  0.74620  0.76140  Biso   1.000  H
  H6       1.0000 0.40820  0.25380  0.23860  Biso   1.000  H
  N5       1.0000 0.80020  0.85270  0.51170  Biso   1.000  N
  N6       1.0000 0.19980  0.14730  0.48830  Biso   1.000  N
  H7       1.0000 0.74110  0.88980  0.56720  Biso   1.000  H
  H8       1.0000 0.25890  0.11020  0.43280  Biso   1.000  H
  H9       1.0000 0.75160  0.84560  0.43090  Biso   1.000  H
  H10      1.0000 0.24840  0.15440  0.56910  Biso   1.000  H
  N7       1.0000 0.02440  0.73930  0.33572  Biso   1.000  N
  N8       1.0000 0.97560  0.26070  0.66428  Biso   1.000  N
  O1       1.0000 0.87080  0.77920  0.28367  Biso   1.000  O
  O2       1.0000 0.12920  0.22080  0.71633  Biso   1.000  O
  O3       1.0000 0.34580  0.64160  0.43760  Biso   1.000  O
  O4       1.0000 0.65420  0.35840  0.56240  Biso   1.000  O
  N9       1.0000 0.28160  0.80640  0.84800  Biso   1.000  N
  N10      1.0000 0.71840  0.19360  0.15200  Biso   1.000  N
  H11      1.0000 0.40830  0.80800  0.88110  Biso   1.000  H
  H12      1.0000 0.59170  0.19200  0.11890  Biso   1.000  H
  C11      1.0000 0.16020  0.83500  0.93410  Biso   1.000  C
  C12      1.0000 0.83980  0.16500  0.06590  Biso   1.000  C
  H13      1.0000 0.07670  0.90140  0.91000  Biso   1.000  H
  H14      1.0000 0.92330  0.09860  0.09000  Biso   1.000  H
  H15      1.0000 0.25410  0.89380  0.02510  Biso   1.000  H
  H16      1.0000 0.74590  0.10620  0.97490  Biso   1.000  H
  C13      1.0000 0.01690  0.67830  0.92470  Biso   1.000  C
  C14      1.0000 0.98310  0.32170  0.07530  Biso   1.000  C
  O5       1.0000 0.93630  0.68700  0.01290  Biso   1.000  O
  O6       1.0000 0.06370  0.31300  0.98710  Biso   1.000  O
  O7       1.0000 0.99380  0.55220  0.83070  Biso   1.000  O
  O8       1.0000 0.00620  0.44780  0.16930  Biso   1.000  O
  O9       1.0000 0.36700  0.58220  0.12730  Biso   1.000  O
  O10      1.0000 0.63300  0.41780  0.87270  Biso   1.000  O
  H17      1.0000 0.29730  0.50130  0.07200  Biso   1.000  H
  H18      1.0000 0.70270  0.49870  0.92800  Biso   1.000  H
  H19      1.0000 0.48600  0.60590  0.16490  Biso   1.000  H
  H20      1.0000 0.51400  0.39410  0.83510  Biso   1.000  H
  O11      1.0000 0.39150  0.20330  0.94620  Biso   1.000  O
  O12      1.0000 0.60850  0.79670  0.05380  Biso   1.000  O
  H21      1.0000 0.42050  0.21330  0.02600  Biso   1.000  H
  H22      1.0000 0.57950  0.78670  0.97400  Biso   1.000  H
  H23      1.0000 0.36260  0.11540  0.88680  Biso   1.000  H
  H24      1.0000 0.63740  0.88460  0.11320  Biso   1.000  H
