data_image0
_cell_length_a       6.9807
_cell_length_b       9.1462
_cell_length_c       11.2512
_cell_angle_alpha    107.357
_cell_angle_beta     105.037
_cell_angle_gamma    102.028

_symmetry_space_group_name_H-M    "P 1"
_symmetry_int_tables_number       1

loop_
  _symmetry_equiv_pos_as_xyz
  'x, y, z'

loop_
  _atom_site_label
  _atom_site_occupancy
  _atom_site_fract_x
  _atom_site_fract_y
  _atom_site_fract_z
  _atom_site_thermal_displace_type
  _atom_site_B_iso_or_equiv
  _atom_site_type_symbol
  Cu1      1.0000 0.29780  0.33211  0.76823  Biso   1.000  Cu
  Cu2      1.0000 0.70220  0.66789  0.23177  Biso   1.000  Cu
  Cl1      1.0000 0.08612  0.07568  0.70490  Biso   1.000  Cl
  Cl2      1.0000 0.91388  0.92432  0.29510  Biso   1.000  Cl
  N1       1.0000 0.46390  0.17910  0.32186  Biso   1.000  N
  N2       1.0000 0.53610  0.82090  0.67814  Biso   1.000  N
  C1       1.0000 0.29670  0.22200  0.28061  Biso   1.000  C
  C2       1.0000 0.70330  0.77800  0.71939  Biso   1.000  C
  N3       1.0000 0.19620  0.29280  0.36055  Biso   1.000  N
  N4       1.0000 0.80380  0.70720  0.63945  Biso   1.000  N
  C3       1.0000 0.25100  0.30520  0.49225  Biso   1.000  C
  C4       1.0000 0.74900  0.69480  0.50775  Biso   1.000  C
  C5       1.0000 0.42890  0.25220  0.53803  Biso   1.000  C
  C6       1.0000 0.57110  0.74780  0.46197  Biso   1.000  C
  C7       1.0000 0.53480  0.19310  0.44880  Biso   1.000  C
  C8       1.0000 0.46520  0.80690  0.55120  Biso   1.000  C
  N5       1.0000 0.21790  0.19320  0.15159  Biso   1.000  N
  N6       1.0000 0.78210  0.80680  0.84841  Biso   1.000  N
  H1       1.0000 0.10800  0.21000  0.12200  Biso   1.000  H
  H2       1.0000 0.89200  0.79000  0.87800  Biso   1.000  H
  C9       1.0000 0.34000  0.16530  0.06560  Biso   1.000  C
  C10      1.0000 0.66000  0.83470  0.93440  Biso   1.000  C
  H3       1.0000 0.24460  0.10520  0.97280  Biso   1.000  H
  H4       1.0000 0.75540  0.89480  0.02720  Biso   1.000  H
  H5       1.0000 0.42540  0.09800  0.09010  Biso   1.000  H
  H6       1.0000 0.57460  0.90200  0.90990  Biso   1.000  H
  C11      1.0000 0.48300  0.32190  0.07460  Biso   1.000  C
  C12      1.0000 0.51700  0.67810  0.92540  Biso   1.000  C
  O1       1.0000 0.56370  0.31380  0.98690  Biso   1.000  O
  O2       1.0000 0.43630  0.68620  0.01310  Biso   1.000  O
  O3       1.0000 0.50630  0.44739  0.16947  Biso   1.000  O
  O4       1.0000 0.49370  0.55261  0.83053  Biso   1.000  O
  C13      1.0000 0.01820  0.34500  0.30770  Biso   1.000  C
  C14      1.0000 0.98180  0.65500  0.69230  Biso   1.000  C
  H7       1.0000 0.05750  0.41580  0.26170  Biso   1.000  H
  H8       1.0000 0.94250  0.58420  0.73830  Biso   1.000  H
  H9       1.0000 0.97820  0.40360  0.38080  Biso   1.000  H
  H10      1.0000 0.02180  0.59640  0.61920  Biso   1.000  H
  H11      1.0000 0.90020  0.25040  0.24520  Biso   1.000  H
  H12      1.0000 0.09980  0.74960  0.75480  Biso   1.000  H
  O5       1.0000 0.15450  0.35870  0.56229  Biso   1.000  O
  O6       1.0000 0.84550  0.64130  0.43771  Biso   1.000  O
  N7       1.0000 0.47500  0.25990  0.66369  Biso   1.000  N
  N8       1.0000 0.52500  0.74010  0.33631  Biso   1.000  N
  O7       1.0000 0.62890  0.22090  0.71611  Biso   1.000  O
  O8       1.0000 0.37110  0.77910  0.28389  Biso   1.000  O
  N9       1.0000 0.69830  0.14740  0.48730  Biso   1.000  N
  N10      1.0000 0.30170  0.85260  0.51270  Biso   1.000  N
  H13      1.0000 0.74600  0.10900  0.42700  Biso   1.000  H
  H14      1.0000 0.25400  0.89100  0.57300  Biso   1.000  H
  H15      1.0000 0.73900  0.16000  0.56500  Biso   1.000  H
  H16      1.0000 0.26100  0.84000  0.43500  Biso   1.000  H
  O9       1.0000 0.13220  0.41820  0.87222  Biso   1.000  O
  O10      1.0000 0.86780  0.58180  0.12778  Biso   1.000  O
  H17      1.0000 0.05900  0.35800  0.89400  Biso   1.000  H
  H18      1.0000 0.94100  0.64200  0.10600  Biso   1.000  H
  H19      1.0000 0.21400  0.49100  0.93200  Biso   1.000  H
  H20      1.0000 0.78600  0.50900  0.06800  Biso   1.000  H
  O11      1.0000 0.89160  0.20310  0.94650  Biso   1.000  O
  O12      1.0000 0.10840  0.79690  0.05350  Biso   1.000  O
  H21      1.0000 0.78000  0.21800  0.95100  Biso   1.000  H
  H22      1.0000 0.22000  0.78200  0.04900  Biso   1.000  H
  H23      1.0000 0.87100  0.13100  0.88200  Biso   1.000  H
  H24      1.0000 0.12900  0.86900  0.11800  Biso   1.000  H
