data_image0
_cell_length_a       9.32
_cell_length_b       9.829
_cell_length_c       10.927
_cell_angle_alpha    76.83
_cell_angle_beta     70.46
_cell_angle_gamma    83.42

_symmetry_space_group_name_H-M    "P 1"
_symmetry_int_tables_number       1

loop_
  _symmetry_equiv_pos_as_xyz
  'x, y, z'

loop_
  _atom_site_label
  _atom_site_occupancy
  _atom_site_fract_x
  _atom_site_fract_y
  _atom_site_fract_z
  _atom_site_thermal_displace_type
  _atom_site_B_iso_or_equiv
  _atom_site_type_symbol
  Cu1      1.0000 0.48555  0.17580  0.22324  Biso   1.000  Cu
  Cu2      1.0000 0.51445  0.82420  0.77676  Biso   1.000  Cu
  N1       1.0000 0.55000  0.34230  0.26530  Biso   1.000  N
  N2       1.0000 0.45000  0.65770  0.73470  Biso   1.000  N
  C1       1.0000 0.65320  0.34380  0.32710  Biso   1.000  C
  C2       1.0000 0.34680  0.65620  0.67290  Biso   1.000  C
  C3       1.0000 0.68550  0.45950  0.36000  Biso   1.000  C
  C4       1.0000 0.31450  0.54050  0.64000  Biso   1.000  C
  C5       1.0000 0.60780  0.58140  0.32810  Biso   1.000  C
  C6       1.0000 0.39220  0.41860  0.67190  Biso   1.000  C
  C7       1.0000 0.49990  0.58510  0.26460  Biso   1.000  C
  C8       1.0000 0.50010  0.41490  0.73540  Biso   1.000  C
  C9       1.0000 0.47660  0.46520  0.23230  Biso   1.000  C
  C10      1.0000 0.52340  0.53480  0.76770  Biso   1.000  C
  N3       1.0000 0.36550  0.32680  0.13760  Biso   1.000  N
  N4       1.0000 0.63450  0.67320  0.86240  Biso   1.000  N
  C11      1.0000 0.37430  0.45570  0.15660  Biso   1.000  C
  C12      1.0000 0.62570  0.54430  0.84340  Biso   1.000  C
  C13      1.0000 0.29540  0.56910  0.10670  Biso   1.000  C
  C14      1.0000 0.70460  0.43090  0.89330  Biso   1.000  C
  C15      1.0000 0.20100  0.55100  0.03810  Biso   1.000  C
  C16      1.0000 0.79900  0.44900  0.96190  Biso   1.000  C
  C17      1.0000 0.18810  0.41820  0.02120  Biso   1.000  C
  C18      1.0000 0.81190  0.58180  0.97880  Biso   1.000  C
  C19      1.0000 0.27390  0.31020  0.07160  Biso   1.000  C
  C20      1.0000 0.72610  0.68980  0.92840  Biso   1.000  C
  O1       1.0000 0.39120  0.95130  0.68340  Biso   1.000  O
  O2       1.0000 0.60880  0.04870  0.31660  Biso   1.000  O
  O3       1.0000 0.22640  0.12520  0.66400  Biso   1.000  O
  O4       1.0000 0.77360  0.87480  0.33600  Biso   1.000  O
  C21      1.0000 0.28240  0.03050  0.73440  Biso   1.000  C
  C22      1.0000 0.71760  0.96950  0.26560  Biso   1.000  C
  C23      1.0000 0.21250  0.01070  0.88420  Biso   1.000  C
  C24      1.0000 0.78750  0.98930  0.11580  Biso   1.000  C
  O5       1.0000 0.28180  0.89010  0.94670  Biso   1.000  O
  O6       1.0000 0.71820  0.10990  0.05330  Biso   1.000  O
  C25      1.0000 0.03820  0.99790  0.92690  Biso   1.000  C
  C26      1.0000 0.96180  0.00210  0.07310  Biso   1.000  C
  O7       1.0000 0.99710  0.13070  0.09310  Biso   1.000  O
  O8       1.0000 0.00290  0.86930  0.90690  Biso   1.000  O
  C27      1.0000 0.04140  0.99810  0.42660  Biso   1.000  C
  C28      1.0000 0.95860  0.00190  0.57340  Biso   1.000  C
  O9       1.0000 0.99970  0.12130  0.34450  Biso   1.000  O
  O10      1.0000 0.00030  0.87870  0.65550  Biso   1.000  O
  O11      1.0000 0.40080  0.02700  0.17780  Biso   1.000  O
  O12      1.0000 0.59920  0.97300  0.82220  Biso   1.000  O
  O13      1.0000 0.24170  0.86160  0.22340  Biso   1.000  O
  O14      1.0000 0.75830  0.13840  0.77660  Biso   1.000  O
  C29      1.0000 0.21540  0.98350  0.39450  Biso   1.000  C
  C30      1.0000 0.78460  0.01650  0.60550  Biso   1.000  C
  C31      1.0000 0.29200  0.95580  0.25520  Biso   1.000  C
  C32      1.0000 0.70800  0.04420  0.74480  Biso   1.000  C
  O15      1.0000 0.27130  0.10700  0.40630  Biso   1.000  O
  O16      1.0000 0.72870  0.89300  0.59370  Biso   1.000  O
  O17      1.0000 0.00130  0.67260  0.33330  Biso   1.000  O
  O18      1.0000 0.99870  0.32740  0.66670  Biso   1.000  O
  O19      1.0000 0.04150  0.37520  0.39190  Biso   1.000  O
  O20      1.0000 0.95850  0.62480  0.60810  Biso   1.000  O
  H1       1.0000 0.70370  0.25150  0.34660  Biso   1.000  H
  H2       1.0000 0.29630  0.74850  0.65340  Biso   1.000  H
  H3       1.0000 0.78400  0.43550  0.39810  Biso   1.000  H
  H4       1.0000 0.21600  0.56450  0.60190  Biso   1.000  H
  H5       1.0000 0.58570  0.66250  0.34840  Biso   1.000  H
  H6       1.0000 0.41430  0.33750  0.65160  Biso   1.000  H
  H7       1.0000 0.42540  0.66660  0.25870  Biso   1.000  H
  H8       1.0000 0.57460  0.33340  0.74130  Biso   1.000  H
  H9       1.0000 0.31720  0.66230  0.13340  Biso   1.000  H
  H10      1.0000 0.68280  0.33770  0.86660  Biso   1.000  H
  H11      1.0000 0.14860  0.63980  0.98390  Biso   1.000  H
  H12      1.0000 0.85140  0.36020  0.01610  Biso   1.000  H
  H13      1.0000 0.10060  0.41860  0.97460  Biso   1.000  H
  H14      1.0000 0.89940  0.58140  0.02540  Biso   1.000  H
  H15      1.0000 0.27310  0.21130  0.06190  Biso   1.000  H
  H16      1.0000 0.72690  0.78870  0.93810  Biso   1.000  H
  H17      1.0000 0.75370  0.90270  0.10280  Biso   1.000  H
  H18      1.0000 0.24630  0.09730  0.89720  Biso   1.000  H
  H19      1.0000 0.62430  0.13630  0.11910  Biso   1.000  H
  H20      1.0000 0.37570  0.86370  0.88090  Biso   1.000  H
  H21      1.0000 0.98880  0.93160  0.13330  Biso   1.000  H
  H22      1.0000 0.01120  0.06840  0.86670  Biso   1.000  H
  H23      1.0000 0.97590  0.10690  0.17320  Biso   1.000  H
  H24      1.0000 0.02410  0.89310  0.82680  Biso   1.000  H
  H25      1.0000 0.01080  0.90890  0.42070  Biso   1.000  H
  H26      1.0000 0.98920  0.09110  0.57930  Biso   1.000  H
  H27      1.0000 0.99100  0.18750  0.39390  Biso   1.000  H
  H28      1.0000 0.00900  0.81250  0.60610  Biso   1.000  H
  H29      1.0000 0.22760  0.92880  0.46790  Biso   1.000  H
  H30      1.0000 0.77240  0.07120  0.53210  Biso   1.000  H
  H31      1.0000 0.25990  0.10230  0.50940  Biso   1.000  H
  H32      1.0000 0.74010  0.89770  0.49060  Biso   1.000  H
  H33      1.0000 0.10470  0.72430  0.29250  Biso   1.000  H
  H34      1.0000 0.89530  0.27570  0.70750  Biso   1.000  H
  H35      1.0000 0.90610  0.73530  0.34380  Biso   1.000  H
  H36      1.0000 0.09390  0.26470  0.65620  Biso   1.000  H
  H37      1.0000 0.98470  0.45420  0.35180  Biso   1.000  H
  H38      1.0000 0.01530  0.54580  0.64820  Biso   1.000  H
  H39      1.0000 0.06320  0.37910  0.48070  Biso   1.000  H
  H40      1.0000 0.93680  0.62090  0.51930  Biso   1.000  H
