data_image0
_cell_length_a       7.9424
_cell_length_b       8.9306
_cell_length_c       12.3017
_cell_angle_alpha    90
_cell_angle_beta     101.445
_cell_angle_gamma    90

_symmetry_space_group_name_H-M    "P 1"
_symmetry_int_tables_number       1

loop_
  _symmetry_equiv_pos_as_xyz
  'x, y, z'

loop_
  _atom_site_label
  _atom_site_occupancy
  _atom_site_fract_x
  _atom_site_fract_y
  _atom_site_fract_z
  _atom_site_thermal_displace_type
  _atom_site_B_iso_or_equiv
  _atom_site_type_symbol
  Cu1      1.0000 0.21273  0.55274  0.56558  Biso   1.000  Cu
  Cu2      1.0000 0.21273  0.94726  0.06558  Biso   1.000  Cu
  Cu3      1.0000 0.78727  0.44726  0.43442  Biso   1.000  Cu
  Cu4      1.0000 0.78727  0.05274  0.93442  Biso   1.000  Cu
  O1       1.0000 0.02923  0.43216  0.60700  Biso   1.000  O
  O2       1.0000 0.02923  0.06784  0.10700  Biso   1.000  O
  O3       1.0000 0.97077  0.56784  0.39300  Biso   1.000  O
  O4       1.0000 0.97077  0.93216  0.89300  Biso   1.000  O
  N1       1.0000 0.05640  0.39850  0.71054  Biso   1.000  N
  N2       1.0000 0.05640  0.10150  0.21054  Biso   1.000  N
  N3       1.0000 0.94360  0.60150  0.28946  Biso   1.000  N
  N4       1.0000 0.94360  0.89850  0.78946  Biso   1.000  N
  O5       1.0000 0.18790  0.45210  0.76374  Biso   1.000  O
  O6       1.0000 0.18790  0.04790  0.26374  Biso   1.000  O
  O7       1.0000 0.81210  0.54790  0.23626  Biso   1.000  O
  O8       1.0000 0.81210  0.95210  0.73626  Biso   1.000  O
  O9       1.0000 0.33745  0.37495  0.52268  Biso   1.000  O
  O10      1.0000 0.33745  0.12505  0.02268  Biso   1.000  O
  O11      1.0000 0.66255  0.62505  0.47732  Biso   1.000  O
  O12      1.0000 0.66255  0.87495  0.97732  Biso   1.000  O
  C1       1.0000 0.47793  0.41711  0.49766  Biso   1.000  C
  C2       1.0000 0.47793  0.08289  0.99766  Biso   1.000  C
  C3       1.0000 0.52207  0.58289  0.50234  Biso   1.000  C
  C4       1.0000 0.52207  0.91711  0.00234  Biso   1.000  C
  N5       1.0000 0.40301  0.66203  0.53179  Biso   1.000  N
  N6       1.0000 0.40301  0.83797  0.03179  Biso   1.000  N
  N7       1.0000 0.59699  0.33797  0.46821  Biso   1.000  N
  N8       1.0000 0.59699  0.16203  0.96821  Biso   1.000  N
  C5       1.0000 0.40040  0.82394  0.54007  Biso   1.000  C
  C6       1.0000 0.40040  0.67606  0.04007  Biso   1.000  C
  C7       1.0000 0.59960  0.17606  0.45993  Biso   1.000  C
  C8       1.0000 0.59960  0.32394  0.95993  Biso   1.000  C
  H1       1.0000 0.35710  0.86780  0.46780  Biso   1.000  H
  H2       1.0000 0.35710  0.63220  0.96780  Biso   1.000  H
  H3       1.0000 0.64290  0.13220  0.53220  Biso   1.000  H
  H4       1.0000 0.64290  0.36780  0.03220  Biso   1.000  H
  H5       1.0000 0.51540  0.86180  0.56770  Biso   1.000  H
  H6       1.0000 0.51540  0.63820  0.06770  Biso   1.000  H
  H7       1.0000 0.48460  0.13820  0.43230  Biso   1.000  H
  H8       1.0000 0.48460  0.36180  0.93230  Biso   1.000  H
  C9       1.0000 0.28234  0.86417  0.62060  Biso   1.000  C
  C10      1.0000 0.28234  0.63583  0.12060  Biso   1.000  C
  C11      1.0000 0.71766  0.13583  0.37940  Biso   1.000  C
  C12      1.0000 0.71766  0.36417  0.87940  Biso   1.000  C
  C13      1.0000 0.22740  0.02778  0.60490  Biso   1.000  C
  C14      1.0000 0.22740  0.47222  0.10490  Biso   1.000  C
  C15      1.0000 0.77260  0.97222  0.39510  Biso   1.000  C
  C16      1.0000 0.77260  0.52778  0.89510  Biso   1.000  C
  H9       1.0000 0.17140  0.04400  0.52920  Biso   1.000  H
  H10      1.0000 0.17140  0.45600  0.02920  Biso   1.000  H
  H11      1.0000 0.82860  0.95600  0.47080  Biso   1.000  H
  H12      1.0000 0.82860  0.54400  0.97080  Biso   1.000  H
  H13      1.0000 0.32680  0.09110  0.62260  Biso   1.000  H
  H14      1.0000 0.32680  0.40890  0.12260  Biso   1.000  H
  H15      1.0000 0.67320  0.90890  0.37740  Biso   1.000  H
  H16      1.0000 0.67320  0.59110  0.87740  Biso   1.000  H
  H17      1.0000 0.14960  0.05120  0.65300  Biso   1.000  H
  H18      1.0000 0.14960  0.44880  0.15300  Biso   1.000  H
  H19      1.0000 0.85040  0.94880  0.34700  Biso   1.000  H
  H20      1.0000 0.85040  0.55120  0.84700  Biso   1.000  H
  C17      1.0000 0.37240  0.83340  0.73940  Biso   1.000  C
  C18      1.0000 0.37240  0.66660  0.23940  Biso   1.000  C
  C19      1.0000 0.62760  0.16660  0.26060  Biso   1.000  C
  C20      1.0000 0.62760  0.33340  0.76060  Biso   1.000  C
  H21      1.0000 0.40560  0.73000  0.74680  Biso   1.000  H
  H22      1.0000 0.40560  0.77000  0.24680  Biso   1.000  H
  H23      1.0000 0.59440  0.27000  0.25320  Biso   1.000  H
  H24      1.0000 0.59440  0.23000  0.75320  Biso   1.000  H
  H25      1.0000 0.29580  0.85540  0.78860  Biso   1.000  H
  H26      1.0000 0.29580  0.64460  0.28860  Biso   1.000  H
  H27      1.0000 0.70420  0.14460  0.21140  Biso   1.000  H
  H28      1.0000 0.70420  0.35540  0.71140  Biso   1.000  H
  H29      1.0000 0.47270  0.89550  0.75780  Biso   1.000  H
  H30      1.0000 0.47270  0.60450  0.25780  Biso   1.000  H
  H31      1.0000 0.52730  0.10450  0.24220  Biso   1.000  H
  H32      1.0000 0.52730  0.39550  0.74220  Biso   1.000  H
  N9       1.0000 0.13138  0.76115  0.59532  Biso   1.000  N
  N10      1.0000 0.13138  0.73885  0.09532  Biso   1.000  N
  N11      1.0000 0.86862  0.23885  0.40468  Biso   1.000  N
  N12      1.0000 0.86862  0.26115  0.90468  Biso   1.000  N
  H33      1.0000 0.05660  0.79450  0.53550  Biso   1.000  H
  H34      1.0000 0.05660  0.70550  0.03550  Biso   1.000  H
  H35      1.0000 0.94340  0.20550  0.46450  Biso   1.000  H
  H36      1.0000 0.94340  0.29450  0.96450  Biso   1.000  H
  H37      1.0000 0.07740  0.75870  0.65310  Biso   1.000  H
  H38      1.0000 0.07740  0.74130  0.15310  Biso   1.000  H
  H39      1.0000 0.92260  0.24130  0.34690  Biso   1.000  H
  H40      1.0000 0.92260  0.25870  0.84690  Biso   1.000  H
