data_image0
_cell_length_a       9.318
_cell_length_b       15.31
_cell_length_c       23.043
_cell_angle_alpha    90
_cell_angle_beta     90
_cell_angle_gamma    90

_symmetry_space_group_name_H-M    "P 1"
_symmetry_int_tables_number       1

loop_
  _symmetry_equiv_pos_as_xyz
  'x, y, z'

loop_
  _atom_site_label
  _atom_site_occupancy
  _atom_site_fract_x
  _atom_site_fract_y
  _atom_site_fract_z
  _atom_site_thermal_displace_type
  _atom_site_B_iso_or_equiv
  _atom_site_type_symbol
  Cu1      1.0000 0.34162  0.10241  0.00585  Biso   1.000  Cu
  Cu2      1.0000 0.15838  0.89759  0.50585  Biso   1.000  Cu
  Cu3      1.0000 0.84162  0.39759  0.99415  Biso   1.000  Cu
  Cu4      1.0000 0.65838  0.60241  0.49415  Biso   1.000  Cu
  Cu5      1.0000 0.65838  0.89759  0.99415  Biso   1.000  Cu
  Cu6      1.0000 0.84162  0.10241  0.49415  Biso   1.000  Cu
  Cu7      1.0000 0.15838  0.60241  0.00585  Biso   1.000  Cu
  Cu8      1.0000 0.34162  0.39759  0.50585  Biso   1.000  Cu
  O1       1.0000 0.38060  0.09960  0.08779  Biso   1.000  O
  O2       1.0000 0.11940  0.90040  0.58779  Biso   1.000  O
  O3       1.0000 0.88060  0.40040  0.91221  Biso   1.000  O
  O4       1.0000 0.61940  0.59960  0.41221  Biso   1.000  O
  O5       1.0000 0.61940  0.90040  0.91221  Biso   1.000  O
  O6       1.0000 0.88060  0.09960  0.41221  Biso   1.000  O
  O7       1.0000 0.11940  0.59960  0.08779  Biso   1.000  O
  O8       1.0000 0.38060  0.40040  0.58779  Biso   1.000  O
  O9       1.0000 0.45770  0.13070  0.19413  Biso   1.000  O
  O10      1.0000 0.04230  0.86930  0.69413  Biso   1.000  O
  O11      1.0000 0.95770  0.36930  0.80587  Biso   1.000  O
  O12      1.0000 0.54230  0.63070  0.30587  Biso   1.000  O
  O13      1.0000 0.54230  0.86930  0.80587  Biso   1.000  O
  O14      1.0000 0.95770  0.13070  0.30587  Biso   1.000  O
  O15      1.0000 0.04230  0.63070  0.19413  Biso   1.000  O
  O16      1.0000 0.45770  0.36930  0.69413  Biso   1.000  O
  N1       1.0000 0.65420  0.30490  0.98576  Biso   1.000  N
  N2       1.0000 0.84580  0.69510  0.48576  Biso   1.000  N
  N3       1.0000 0.15420  0.19510  0.01424  Biso   1.000  N
  N4       1.0000 0.34580  0.80490  0.51424  Biso   1.000  N
  N5       1.0000 0.34580  0.69510  0.01424  Biso   1.000  N
  N6       1.0000 0.15420  0.30490  0.51424  Biso   1.000  N
  N7       1.0000 0.84580  0.80490  0.98576  Biso   1.000  N
  N8       1.0000 0.65420  0.19510  0.48576  Biso   1.000  N
  N9       1.0000 0.49250  0.19540  0.99500  Biso   1.000  N
  N10      1.0000 0.00750  0.80460  0.49500  Biso   1.000  N
  N11      1.0000 0.99250  0.30460  0.00500  Biso   1.000  N
  N12      1.0000 0.50750  0.69540  0.50500  Biso   1.000  N
  N13      1.0000 0.50750  0.80460  0.00500  Biso   1.000  N
  N14      1.0000 0.99250  0.19540  0.50500  Biso   1.000  N
  N15      1.0000 0.00750  0.69540  0.99500  Biso   1.000  N
  N16      1.0000 0.49250  0.30460  0.49500  Biso   1.000  N
  N17      1.0000 0.36280  0.09410  0.91781  Biso   1.000  N
  N18      1.0000 0.13720  0.90590  0.41781  Biso   1.000  N
  N19      1.0000 0.86280  0.40590  0.08219  Biso   1.000  N
  N20      1.0000 0.63720  0.59410  0.58219  Biso   1.000  N
  N21      1.0000 0.63720  0.90590  0.08219  Biso   1.000  N
  N22      1.0000 0.86280  0.09410  0.58219  Biso   1.000  N
  N23      1.0000 0.13720  0.59410  0.91781  Biso   1.000  N
  N24      1.0000 0.36280  0.40590  0.41781  Biso   1.000  N
  N25      1.0000 0.23560  0.99090  0.00980  Biso   1.000  N
  N26      1.0000 0.26440  0.00910  0.50980  Biso   1.000  N
  N27      1.0000 0.73560  0.50910  0.99020  Biso   1.000  N
  N28      1.0000 0.76440  0.49090  0.49020  Biso   1.000  N
  N29      1.0000 0.76440  0.00910  0.99020  Biso   1.000  N
  N30      1.0000 0.73560  0.99090  0.49020  Biso   1.000  N
  N31      1.0000 0.26440  0.49090  0.00980  Biso   1.000  N
  N32      1.0000 0.23560  0.50910  0.50980  Biso   1.000  N
  C1       1.0000 0.58040  0.26480  0.08580  Biso   1.000  C
  C2       1.0000 0.91960  0.73520  0.58580  Biso   1.000  C
  C3       1.0000 0.08040  0.23520  0.91420  Biso   1.000  C
  C4       1.0000 0.41960  0.76480  0.41420  Biso   1.000  C
  C5       1.0000 0.41960  0.73520  0.91420  Biso   1.000  C
  C6       1.0000 0.08040  0.26480  0.41420  Biso   1.000  C
  C7       1.0000 0.91960  0.76480  0.08580  Biso   1.000  C
  C8       1.0000 0.58040  0.23520  0.58580  Biso   1.000  C
  C9       1.0000 0.57380  0.25460  0.02060  Biso   1.000  C
  C10      1.0000 0.92620  0.74540  0.52060  Biso   1.000  C
  C11      1.0000 0.07380  0.24540  0.97940  Biso   1.000  C
  C12      1.0000 0.42620  0.75460  0.47940  Biso   1.000  C
  C13      1.0000 0.42620  0.74540  0.97940  Biso   1.000  C
  C14      1.0000 0.07380  0.25460  0.47940  Biso   1.000  C
  C15      1.0000 0.92620  0.75460  0.02060  Biso   1.000  C
  C16      1.0000 0.57380  0.24540  0.52060  Biso   1.000  C
  C17      1.0000 0.62220  0.27320  0.93150  Biso   1.000  C
  C18      1.0000 0.87780  0.72680  0.43150  Biso   1.000  C
  C19      1.0000 0.12220  0.22680  0.06850  Biso   1.000  C
  C20      1.0000 0.37780  0.77320  0.56850  Biso   1.000  C
  C21      1.0000 0.37780  0.72680  0.06850  Biso   1.000  C
  C22      1.0000 0.12220  0.27320  0.56850  Biso   1.000  C
  C23      1.0000 0.87780  0.77320  0.93150  Biso   1.000  C
  C24      1.0000 0.62220  0.22680  0.43150  Biso   1.000  C
  C25      1.0000 0.52510  0.20720  0.93570  Biso   1.000  C
  C26      1.0000 0.97490  0.79280  0.43570  Biso   1.000  C
  C27      1.0000 0.02510  0.29280  0.06430  Biso   1.000  C
  C28      1.0000 0.47490  0.70720  0.56430  Biso   1.000  C
  C29      1.0000 0.47490  0.79280  0.06430  Biso   1.000  C
  C30      1.0000 0.02510  0.20720  0.56430  Biso   1.000  C
  C31      1.0000 0.97490  0.70720  0.93570  Biso   1.000  C
  C32      1.0000 0.52510  0.29280  0.43570  Biso   1.000  C
  C33      1.0000 0.45280  0.14870  0.89800  Biso   1.000  C
  C34      1.0000 0.04720  0.85130  0.39800  Biso   1.000  C
  C35      1.0000 0.95280  0.35130  0.10200  Biso   1.000  C
  C36      1.0000 0.54720  0.64870  0.60200  Biso   1.000  C
  C37      1.0000 0.54720  0.85130  0.10200  Biso   1.000  C
  C38      1.0000 0.95280  0.14870  0.60200  Biso   1.000  C
  C39      1.0000 0.04720  0.64870  0.89800  Biso   1.000  C
  C40      1.0000 0.45280  0.35130  0.39800  Biso   1.000  C
  C41      1.0000 0.29190  0.03450  0.87830  Biso   1.000  C
  C42      1.0000 0.20810  0.96550  0.37830  Biso   1.000  C
  C43      1.0000 0.79190  0.46550  0.12170  Biso   1.000  C
  C44      1.0000 0.70810  0.53450  0.62170  Biso   1.000  C
  C45      1.0000 0.70810  0.96550  0.12170  Biso   1.000  C
  C46      1.0000 0.79190  0.03450  0.62170  Biso   1.000  C
  C47      1.0000 0.20810  0.53450  0.87830  Biso   1.000  C
  C48      1.0000 0.29190  0.46550  0.37830  Biso   1.000  C
  C49      1.0000 0.24770  0.95440  0.90750  Biso   1.000  C
  C50      1.0000 0.25230  0.04560  0.40750  Biso   1.000  C
  C51      1.0000 0.74770  0.54560  0.09250  Biso   1.000  C
  C52      1.0000 0.75230  0.45440  0.59250  Biso   1.000  C
  C53      1.0000 0.75230  0.04560  0.09250  Biso   1.000  C
  C54      1.0000 0.74770  0.95440  0.59250  Biso   1.000  C
  C55      1.0000 0.25230  0.45440  0.90750  Biso   1.000  C
  C56      1.0000 0.24770  0.54560  0.40750  Biso   1.000  C
  C57      1.0000 0.16960  0.95240  0.95710  Biso   1.000  C
  C58      1.0000 0.33040  0.04760  0.45710  Biso   1.000  C
  C59      1.0000 0.66960  0.54760  0.04290  Biso   1.000  C
  C60      1.0000 0.83040  0.45240  0.54290  Biso   1.000  C
  C61      1.0000 0.83040  0.04760  0.04290  Biso   1.000  C
  C62      1.0000 0.66960  0.95240  0.54290  Biso   1.000  C
  C63      1.0000 0.33040  0.45240  0.95710  Biso   1.000  C
  C64      1.0000 0.16960  0.54760  0.45710  Biso   1.000  C
  C65      1.0000 0.21180  0.94550  0.05700  Biso   1.000  C
  C66      1.0000 0.28820  0.05450  0.55700  Biso   1.000  C
  C67      1.0000 0.71180  0.55450  0.94300  Biso   1.000  C
  C68      1.0000 0.78820  0.44550  0.44300  Biso   1.000  C
  C69      1.0000 0.78820  0.05450  0.94300  Biso   1.000  C
  C70      1.0000 0.71180  0.94550  0.44300  Biso   1.000  C
  C71      1.0000 0.28820  0.44550  0.05700  Biso   1.000  C
  C72      1.0000 0.21180  0.55450  0.55700  Biso   1.000  C
  C73      1.0000 0.25550  0.97110  0.11520  Biso   1.000  C
  C74      1.0000 0.24450  0.02890  0.61520  Biso   1.000  C
  C75      1.0000 0.75550  0.52890  0.88480  Biso   1.000  C
  C76      1.0000 0.74450  0.47110  0.38480  Biso   1.000  C
  C77      1.0000 0.74450  0.02890  0.88480  Biso   1.000  C
  C78      1.0000 0.75550  0.97110  0.38480  Biso   1.000  C
  C79      1.0000 0.24450  0.47110  0.11520  Biso   1.000  C
  C80      1.0000 0.25550  0.52890  0.61520  Biso   1.000  C
  C81      1.0000 0.20970  0.91510  0.15960  Biso   1.000  C
  C82      1.0000 0.29030  0.08490  0.65960  Biso   1.000  C
  C83      1.0000 0.70970  0.58490  0.84040  Biso   1.000  C
  C84      1.0000 0.79030  0.41510  0.34040  Biso   1.000  C
  C85      1.0000 0.79030  0.08490  0.84040  Biso   1.000  C
  C86      1.0000 0.70970  0.91510  0.34040  Biso   1.000  C
  C87      1.0000 0.29030  0.41510  0.15960  Biso   1.000  C
  C88      1.0000 0.20970  0.58490  0.65960  Biso   1.000  C
  C89      1.0000 0.24810  0.93070  0.21570  Biso   1.000  C
  C90      1.0000 0.25190  0.06930  0.71570  Biso   1.000  C
  C91      1.0000 0.74810  0.56930  0.78430  Biso   1.000  C
  C92      1.0000 0.75190  0.43070  0.28430  Biso   1.000  C
  C93      1.0000 0.75190  0.06930  0.78430  Biso   1.000  C
  C94      1.0000 0.74810  0.93070  0.28430  Biso   1.000  C
  C95      1.0000 0.25190  0.43070  0.21570  Biso   1.000  C
  C96      1.0000 0.24810  0.56930  0.71570  Biso   1.000  C
  C97      1.0000 0.33450  0.00260  0.22890  Biso   1.000  C
  C98      1.0000 0.16550  0.99740  0.72890  Biso   1.000  C
  C99      1.0000 0.83450  0.49740  0.77110  Biso   1.000  C
  C100     1.0000 0.66550  0.50260  0.27110  Biso   1.000  C
  C101     1.0000 0.66550  0.99740  0.77110  Biso   1.000  C
  C102     1.0000 0.83450  0.00260  0.27110  Biso   1.000  C
  C103     1.0000 0.16550  0.50260  0.22890  Biso   1.000  C
  C104     1.0000 0.33450  0.49740  0.72890  Biso   1.000  C
  C105     1.0000 0.37530  0.05840  0.18640  Biso   1.000  C
  C106     1.0000 0.12470  0.94160  0.68640  Biso   1.000  C
  C107     1.0000 0.87530  0.44160  0.81360  Biso   1.000  C
  C108     1.0000 0.62470  0.55840  0.31360  Biso   1.000  C
  C109     1.0000 0.62470  0.94160  0.81360  Biso   1.000  C
  C110     1.0000 0.87530  0.05840  0.31360  Biso   1.000  C
  C111     1.0000 0.12470  0.55840  0.18640  Biso   1.000  C
  C112     1.0000 0.37530  0.44160  0.68640  Biso   1.000  C
  C113     1.0000 0.33590  0.04580  0.12600  Biso   1.000  C
  C114     1.0000 0.16410  0.95420  0.62600  Biso   1.000  C
  C115     1.0000 0.83590  0.45420  0.87400  Biso   1.000  C
  C116     1.0000 0.66410  0.54580  0.37400  Biso   1.000  C
  C117     1.0000 0.66410  0.95420  0.87400  Biso   1.000  C
  C118     1.0000 0.83590  0.04580  0.37400  Biso   1.000  C
  C119     1.0000 0.16410  0.54580  0.12600  Biso   1.000  C
  C120     1.0000 0.33590  0.45420  0.62600  Biso   1.000  C
  C121     1.0000 0.50970  0.14660  0.25180  Biso   1.000  C
  C122     1.0000 0.99030  0.85340  0.75180  Biso   1.000  C
  C123     1.0000 0.00970  0.35340  0.74820  Biso   1.000  C
  C124     1.0000 0.49030  0.64660  0.24820  Biso   1.000  C
  C125     1.0000 0.49030  0.85340  0.74820  Biso   1.000  C
  C126     1.0000 0.00970  0.14660  0.24820  Biso   1.000  C
  C127     1.0000 0.99030  0.64660  0.25180  Biso   1.000  C
  C128     1.0000 0.50970  0.35340  0.75180  Biso   1.000  C
  C129     1.0000 0.59930  0.22990  0.24770  Biso   1.000  C
  C130     1.0000 0.90070  0.77010  0.74770  Biso   1.000  C
  C131     1.0000 0.09930  0.27010  0.75230  Biso   1.000  C
  C132     1.0000 0.40070  0.72990  0.25230  Biso   1.000  C
  C133     1.0000 0.40070  0.77010  0.75230  Biso   1.000  C
  C134     1.0000 0.09930  0.22990  0.25230  Biso   1.000  C
  C135     1.0000 0.90070  0.72990  0.24770  Biso   1.000  C
  C136     1.0000 0.59930  0.27010  0.74770  Biso   1.000  C
  H1       1.0000 0.65270  0.22760  0.10100  Biso   1.000  H
  H2       1.0000 0.84730  0.77240  0.60100  Biso   1.000  H
  H3       1.0000 0.15270  0.27240  0.89900  Biso   1.000  H
  H4       1.0000 0.34730  0.72760  0.39900  Biso   1.000  H
  H5       1.0000 0.34730  0.77240  0.89900  Biso   1.000  H
  H6       1.0000 0.15270  0.22760  0.39900  Biso   1.000  H
  H7       1.0000 0.84730  0.72760  0.10100  Biso   1.000  H
  H8       1.0000 0.65270  0.27240  0.60100  Biso   1.000  H
  H9       1.0000 0.49020  0.24970  0.10210  Biso   1.000  H
  H10      1.0000 0.00980  0.75030  0.60210  Biso   1.000  H
  H11      1.0000 0.99020  0.25030  0.89790  Biso   1.000  H
  H12      1.0000 0.50980  0.74970  0.39790  Biso   1.000  H
  H13      1.0000 0.50980  0.75030  0.89790  Biso   1.000  H
  H14      1.0000 0.99020  0.24970  0.39790  Biso   1.000  H
  H15      1.0000 0.00980  0.74970  0.10210  Biso   1.000  H
  H16      1.0000 0.49020  0.25030  0.60210  Biso   1.000  H
  H17      1.0000 0.60250  0.32380  0.09520  Biso   1.000  H
  H18      1.0000 0.89750  0.67620  0.59520  Biso   1.000  H
  H19      1.0000 0.10250  0.17620  0.90480  Biso   1.000  H
  H20      1.0000 0.39750  0.82380  0.40480  Biso   1.000  H
  H21      1.0000 0.39750  0.67620  0.90480  Biso   1.000  H
  H22      1.0000 0.10250  0.32380  0.40480  Biso   1.000  H
  H23      1.0000 0.89750  0.82380  0.09520  Biso   1.000  H
  H24      1.0000 0.60250  0.17620  0.59520  Biso   1.000  H
  H25      1.0000 0.66190  0.29430  0.89620  Biso   1.000  H
  H26      1.0000 0.83810  0.70570  0.39620  Biso   1.000  H
  H27      1.0000 0.16190  0.20570  0.10380  Biso   1.000  H
  H28      1.0000 0.33810  0.79430  0.60380  Biso   1.000  H
  H29      1.0000 0.33810  0.70570  0.10380  Biso   1.000  H
  H30      1.0000 0.16190  0.29430  0.60380  Biso   1.000  H
  H31      1.0000 0.83810  0.79430  0.89620  Biso   1.000  H
  H32      1.0000 0.66190  0.20570  0.39620  Biso   1.000  H
  H33      1.0000 0.47200  0.15040  0.85760  Biso   1.000  H
  H34      1.0000 0.02800  0.84960  0.35760  Biso   1.000  H
  H35      1.0000 0.97200  0.34960  0.14240  Biso   1.000  H
  H36      1.0000 0.52800  0.65040  0.64240  Biso   1.000  H
  H37      1.0000 0.52800  0.84960  0.14240  Biso   1.000  H
  H38      1.0000 0.97200  0.15040  0.64240  Biso   1.000  H
  H39      1.0000 0.02800  0.65040  0.85760  Biso   1.000  H
  H40      1.0000 0.47200  0.34960  0.35760  Biso   1.000  H
  H41      1.0000 0.20920  0.06240  0.86280  Biso   1.000  H
  H42      1.0000 0.29080  0.93760  0.36280  Biso   1.000  H
  H43      1.0000 0.70920  0.43760  0.13720  Biso   1.000  H
  H44      1.0000 0.79080  0.56240  0.63720  Biso   1.000  H
  H45      1.0000 0.79080  0.93760  0.13720  Biso   1.000  H
  H46      1.0000 0.70920  0.06240  0.63720  Biso   1.000  H
  H47      1.0000 0.29080  0.56240  0.86280  Biso   1.000  H
  H48      1.0000 0.20920  0.43760  0.36280  Biso   1.000  H
  H49      1.0000 0.35580  0.02020  0.84770  Biso   1.000  H
  H50      1.0000 0.14420  0.97980  0.34770  Biso   1.000  H
  H51      1.0000 0.85580  0.47980  0.15230  Biso   1.000  H
  H52      1.0000 0.64420  0.52020  0.65230  Biso   1.000  H
  H53      1.0000 0.64420  0.97980  0.15230  Biso   1.000  H
  H54      1.0000 0.85580  0.02020  0.65230  Biso   1.000  H
  H55      1.0000 0.14420  0.52020  0.84770  Biso   1.000  H
  H56      1.0000 0.35580  0.47980  0.34770  Biso   1.000  H
  H57      1.0000 0.19390  0.92240  0.87970  Biso   1.000  H
  H58      1.0000 0.30610  0.07760  0.37970  Biso   1.000  H
  H59      1.0000 0.69390  0.57760  0.12030  Biso   1.000  H
  H60      1.0000 0.80610  0.42240  0.62030  Biso   1.000  H
  H61      1.0000 0.80610  0.07760  0.12030  Biso   1.000  H
  H62      1.0000 0.69390  0.92240  0.62030  Biso   1.000  H
  H63      1.0000 0.30610  0.42240  0.87970  Biso   1.000  H
  H64      1.0000 0.19390  0.57760  0.37970  Biso   1.000  H
  H65      1.0000 0.33410  0.92400  0.91600  Biso   1.000  H
  H66      1.0000 0.16590  0.07600  0.41600  Biso   1.000  H
  H67      1.0000 0.83410  0.57600  0.08400  Biso   1.000  H
  H68      1.0000 0.66590  0.42400  0.58400  Biso   1.000  H
  H69      1.0000 0.66590  0.07600  0.08400  Biso   1.000  H
  H70      1.0000 0.83410  0.92400  0.58400  Biso   1.000  H
  H71      1.0000 0.16590  0.42400  0.91600  Biso   1.000  H
  H72      1.0000 0.33410  0.57600  0.41600  Biso   1.000  H
  H73      1.0000 0.14890  0.89290  0.96540  Biso   1.000  H
  H74      1.0000 0.35110  0.10710  0.46540  Biso   1.000  H
  H75      1.0000 0.64890  0.60710  0.03460  Biso   1.000  H
  H76      1.0000 0.85110  0.39290  0.53460  Biso   1.000  H
  H77      1.0000 0.85110  0.10710  0.03460  Biso   1.000  H
  H78      1.0000 0.64890  0.89290  0.53460  Biso   1.000  H
  H79      1.0000 0.35110  0.39290  0.96540  Biso   1.000  H
  H80      1.0000 0.14890  0.60710  0.46540  Biso   1.000  H
  H81      1.0000 0.08260  0.98290  0.94990  Biso   1.000  H
  H82      1.0000 0.41740  0.01710  0.44990  Biso   1.000  H
  H83      1.0000 0.58260  0.51710  0.05010  Biso   1.000  H
  H84      1.0000 0.91740  0.48290  0.55010  Biso   1.000  H
  H85      1.0000 0.91740  0.01710  0.05010  Biso   1.000  H
  H86      1.0000 0.58260  0.98290  0.55010  Biso   1.000  H
  H87      1.0000 0.41740  0.48290  0.94990  Biso   1.000  H
  H88      1.0000 0.08260  0.51710  0.44990  Biso   1.000  H
  H89      1.0000 0.16190  0.89180  0.05290  Biso   1.000  H
  H90      1.0000 0.33810  0.10820  0.55290  Biso   1.000  H
  H91      1.0000 0.66190  0.60820  0.94710  Biso   1.000  H
  H92      1.0000 0.83810  0.39180  0.44710  Biso   1.000  H
  H93      1.0000 0.83810  0.10820  0.94710  Biso   1.000  H
  H94      1.0000 0.66190  0.89180  0.44710  Biso   1.000  H
  H95      1.0000 0.33810  0.39180  0.05290  Biso   1.000  H
  H96      1.0000 0.16190  0.60820  0.55290  Biso   1.000  H
  H97      1.0000 0.15150  0.86600  0.15060  Biso   1.000  H
  H98      1.0000 0.34850  0.13400  0.65060  Biso   1.000  H
  H99      1.0000 0.65150  0.63400  0.84940  Biso   1.000  H
  H100     1.0000 0.84850  0.36600  0.34940  Biso   1.000  H
  H101     1.0000 0.84850  0.13400  0.84940  Biso   1.000  H
  H102     1.0000 0.65150  0.86600  0.34940  Biso   1.000  H
  H103     1.0000 0.34850  0.36600  0.15060  Biso   1.000  H
  H104     1.0000 0.15150  0.63400  0.65060  Biso   1.000  H
  H105     1.0000 0.21640  0.89280  0.24570  Biso   1.000  H
  H106     1.0000 0.28360  0.10720  0.74570  Biso   1.000  H
  H107     1.0000 0.71640  0.60720  0.75430  Biso   1.000  H
  H108     1.0000 0.78360  0.39280  0.25430  Biso   1.000  H
  H109     1.0000 0.78360  0.10720  0.75430  Biso   1.000  H
  H110     1.0000 0.71640  0.89280  0.25430  Biso   1.000  H
  H111     1.0000 0.28360  0.39280  0.24570  Biso   1.000  H
  H112     1.0000 0.21640  0.60720  0.74570  Biso   1.000  H
  H113     1.0000 0.36460  0.01240  0.26780  Biso   1.000  H
  H114     1.0000 0.13540  0.98760  0.76780  Biso   1.000  H
  H115     1.0000 0.86460  0.48760  0.73220  Biso   1.000  H
  H116     1.0000 0.63540  0.51240  0.23220  Biso   1.000  H
  H117     1.0000 0.63540  0.98760  0.73220  Biso   1.000  H
  H118     1.0000 0.86460  0.01240  0.23220  Biso   1.000  H
  H119     1.0000 0.13540  0.51240  0.26780  Biso   1.000  H
  H120     1.0000 0.36460  0.48760  0.76780  Biso   1.000  H
  H121     1.0000 0.43180  0.15460  0.27790  Biso   1.000  H
  H122     1.0000 0.06820  0.84540  0.77790  Biso   1.000  H
  H123     1.0000 0.93180  0.34540  0.72210  Biso   1.000  H
  H124     1.0000 0.56820  0.65460  0.22210  Biso   1.000  H
  H125     1.0000 0.56820  0.84540  0.72210  Biso   1.000  H
  H126     1.0000 0.93180  0.15460  0.22210  Biso   1.000  H
  H127     1.0000 0.06820  0.65460  0.27790  Biso   1.000  H
  H128     1.0000 0.43180  0.34540  0.77790  Biso   1.000  H
  H129     1.0000 0.56730  0.09920  0.26470  Biso   1.000  H
  H130     1.0000 0.93270  0.90080  0.76470  Biso   1.000  H
  H131     1.0000 0.06730  0.40080  0.73530  Biso   1.000  H
  H132     1.0000 0.43270  0.59920  0.23530  Biso   1.000  H
  H133     1.0000 0.43270  0.90080  0.73530  Biso   1.000  H
  H134     1.0000 0.06730  0.09920  0.23530  Biso   1.000  H
  H135     1.0000 0.93270  0.59920  0.26470  Biso   1.000  H
  H136     1.0000 0.56730  0.40080  0.76470  Biso   1.000  H
  H137     1.0000 0.69610  0.21520  0.23920  Biso   1.000  H
  H138     1.0000 0.80390  0.78480  0.73920  Biso   1.000  H
  H139     1.0000 0.19610  0.28480  0.76080  Biso   1.000  H
  H140     1.0000 0.30390  0.71520  0.26080  Biso   1.000  H
  H141     1.0000 0.30390  0.78480  0.76080  Biso   1.000  H
  H142     1.0000 0.19610  0.21520  0.26080  Biso   1.000  H
  H143     1.0000 0.80390  0.71520  0.23920  Biso   1.000  H
  H144     1.0000 0.69610  0.28480  0.73920  Biso   1.000  H
  H145     1.0000 0.59520  0.26030  0.28360  Biso   1.000  H
  H146     1.0000 0.90480  0.73970  0.78360  Biso   1.000  H
  H147     1.0000 0.09520  0.23970  0.71640  Biso   1.000  H
  H148     1.0000 0.40480  0.76030  0.21640  Biso   1.000  H
  H149     1.0000 0.40480  0.73970  0.71640  Biso   1.000  H
  H150     1.0000 0.09520  0.26030  0.21640  Biso   1.000  H
  H151     1.0000 0.90480  0.76030  0.28360  Biso   1.000  H
  H152     1.0000 0.59520  0.23970  0.78360  Biso   1.000  H
  H153     1.0000 0.56230  0.26610  0.21770  Biso   1.000  H
  H154     1.0000 0.93770  0.73390  0.71770  Biso   1.000  H
  H155     1.0000 0.06230  0.23390  0.78230  Biso   1.000  H
  H156     1.0000 0.43770  0.76610  0.28230  Biso   1.000  H
  H157     1.0000 0.43770  0.73390  0.78230  Biso   1.000  H
  H158     1.0000 0.06230  0.26610  0.28230  Biso   1.000  H
  H159     1.0000 0.93770  0.76610  0.21770  Biso   1.000  H
  H160     1.0000 0.56230  0.23390  0.71770  Biso   1.000  H
