data_image0
_cell_length_a       8.666
_cell_length_b       9.701
_cell_length_c       13.901
_cell_angle_alpha    70.65
_cell_angle_beta     89.45
_cell_angle_gamma    67.11

_symmetry_space_group_name_H-M    "P 1"
_symmetry_int_tables_number       1

loop_
  _symmetry_equiv_pos_as_xyz
  'x, y, z'

loop_
  _atom_site_label
  _atom_site_occupancy
  _atom_site_fract_x
  _atom_site_fract_y
  _atom_site_fract_z
  _atom_site_thermal_displace_type
  _atom_site_B_iso_or_equiv
  _atom_site_type_symbol
  Cu1      1.0000 0.32382  0.45940  0.26796  Biso   1.000  Cu
  Cu2      1.0000 0.67618  0.54060  0.73204  Biso   1.000  Cu
  Cl1      1.0000 0.51377  0.84449  0.36994  Biso   1.000  Cl
  Cl2      1.0000 0.48623  0.15551  0.63006  Biso   1.000  Cl
  Cl3      1.0000 0.90921  0.11456  0.13869  Biso   1.000  Cl
  Cl4      1.0000 0.09079  0.88544  0.86131  Biso   1.000  Cl
  O1       1.0000 0.54140  0.85870  0.26760  Biso   1.000  O
  O2       1.0000 0.45860  0.14130  0.73240  Biso   1.000  O
  O3       1.0000 0.40500  0.99440  0.37540  Biso   1.000  O
  O4       1.0000 0.59500  0.00560  0.62460  Biso   1.000  O
  O5       1.0000 0.44100  0.73170  0.41110  Biso   1.000  O
  O6       1.0000 0.55900  0.26830  0.58890  Biso   1.000  O
  O7       1.0000 0.67210  0.78870  0.43160  Biso   1.000  O
  O8       1.0000 0.32790  0.21130  0.56840  Biso   1.000  O
  O9       1.0000 0.75260  0.18320  0.16730  Biso   1.000  O
  O10      1.0000 0.24740  0.81680  0.83270  Biso   1.000  O
  O11      1.0000 0.91690  0.22450  0.04510  Biso   1.000  O
  O12      1.0000 0.08310  0.77550  0.95490  Biso   1.000  O
  O13      1.0000 0.04600  0.07560  0.21050  Biso   1.000  O
  O14      1.0000 0.95400  0.92440  0.78950  Biso   1.000  O
  O15      1.0000 0.92140  0.97480  0.12200  Biso   1.000  O
  O16      1.0000 0.07860  0.02520  0.87800  Biso   1.000  O
  N1       1.0000 0.25080  0.54350  0.38400  Biso   1.000  N
  N2       1.0000 0.74920  0.45650  0.61600  Biso   1.000  N
  N3       1.0000 0.07340  0.57260  0.21390  Biso   1.000  N
  N4       1.0000 0.92660  0.42740  0.78610  Biso   1.000  N
  N5       1.0000 0.32650  0.31310  0.19000  Biso   1.000  N
  N6       1.0000 0.67350  0.68690  0.81000  Biso   1.000  N
  N7       1.0000 0.39830  0.62850  0.14980  Biso   1.000  N
  N8       1.0000 0.60170  0.37150  0.85020  Biso   1.000  N
  N9       1.0000 0.55350  0.70230  0.03030  Biso   1.000  N
  N10      1.0000 0.44650  0.29770  0.96970  Biso   1.000  N
  N11      1.0000 0.43240  0.83240  0.04440  Biso   1.000  N
  N12      1.0000 0.56760  0.16760  0.95560  Biso   1.000  N
  C1       1.0000 0.07330  0.65930  0.35820  Biso   1.000  C
  C2       1.0000 0.92670  0.34070  0.64180  Biso   1.000  C
  C3       1.0000 0.97840  0.60810  0.29740  Biso   1.000  C
  C4       1.0000 0.02160  0.39190  0.70260  Biso   1.000  C
  C5       1.0000 0.02640  0.47230  0.17060  Biso   1.000  C
  C6       1.0000 0.97360  0.52770  0.82940  Biso   1.000  C
  C7       1.0000 0.16690  0.39660  0.11740  Biso   1.000  C
  C8       1.0000 0.83310  0.60340  0.88260  Biso   1.000  C
  C9       1.0000 0.52590  0.58430  0.09490  Biso   1.000  C
  C10      1.0000 0.47410  0.41570  0.90510  Biso   1.000  C
  C11      1.0000 0.34400  0.78610  0.11540  Biso   1.000  C
  C12      1.0000 0.65600  0.21390  0.88460  Biso   1.000  C
  C13      1.0000 0.42030  0.99210  0.98650  Biso   1.000  C
  C14      1.0000 0.57970  0.00790  0.01350  Biso   1.000  C
  N13      1.0000 0.57200  0.34170  0.32730  Biso   1.000  N
  N14      1.0000 0.42800  0.65830  0.67270  Biso   1.000  N
  N15      1.0000 0.17210  0.70160  0.60770  Biso   1.000  N
  N16      1.0000 0.82790  0.29840  0.39230  Biso   1.000  N
  N17      1.0000 0.18520  0.84080  0.59510  Biso   1.000  N
  N18      1.0000 0.81480  0.15920  0.40490  Biso   1.000  N
  C15      1.0000 0.33730  0.81380  0.62970  Biso   1.000  C
  C16      1.0000 0.66270  0.18620  0.37030  Biso   1.000  C
  H1       1.0000 0.62390  0.10750  0.37520  Biso   1.000  H
  H2       1.0000 0.37610  0.89250  0.62480  Biso   1.000  H
  C17      1.0000 0.31990  0.59620  0.65820  Biso   1.000  C
  C18      1.0000 0.68010  0.40380  0.34180  Biso   1.000  C
  H3       1.0000 0.34820  0.48660  0.68230  Biso   1.000  H
  H4       1.0000 0.65180  0.51340  0.31770  Biso   1.000  H
  C19      1.0000 0.03520  0.99270  0.55070  Biso   1.000  C
  C20      1.0000 0.96480  0.00730  0.44930  Biso   1.000  C
  H5       1.0000 0.04970  0.00310  0.40310  Biso   1.000  H
  H6       1.0000 0.95030  0.99690  0.59690  Biso   1.000  H
  H7       1.0000 0.93400  0.91840  0.45750  Biso   1.000  H
  H8       1.0000 0.06600  0.08160  0.54250  Biso   1.000  H
  N19      1.0000 0.44760  0.66790  0.65210  Biso   1.000  N
  N20      1.0000 0.55240  0.33210  0.34790  Biso   1.000  N
  N21      1.0000 0.79970  0.30140  0.41800  Biso   1.000  N
  N22      1.0000 0.20030  0.69860  0.58200  Biso   1.000  N
  N23      1.0000 0.78790  0.15950  0.44160  Biso   1.000  N
  N24      1.0000 0.21210  0.84050  0.55840  Biso   1.000  N
  C21      1.0000 0.64400  0.17850  0.39640  Biso   1.000  C
  C22      1.0000 0.35600  0.82150  0.60360  Biso   1.000  C
  H9       1.0000 0.61230  0.09640  0.39850  Biso   1.000  H
  H10      1.0000 0.38770  0.90360  0.60150  Biso   1.000  H
  C23      1.0000 0.65500  0.40090  0.36130  Biso   1.000  C
  C24      1.0000 0.34500  0.59910  0.63870  Biso   1.000  C
  H11      1.0000 0.62490  0.51070  0.33250  Biso   1.000  H
  H12      1.0000 0.37510  0.48930  0.66750  Biso   1.000  H
  C25      1.0000 0.91270  0.01220  0.51630  Biso   1.000  C
  C26      1.0000 0.08730  0.98780  0.48370  Biso   1.000  C
  H13      1.0000 0.88740  0.92210  0.51900  Biso   1.000  H
  H14      1.0000 0.11260  0.07790  0.48100  Biso   1.000  H
  H15      1.0000 0.91010  0.01960  0.58430  Biso   1.000  H
  H16      1.0000 0.08990  0.98040  0.41570  Biso   1.000  H
  H17      1.0000 0.27080  0.46660  0.43430  Biso   1.000  H
  H18      1.0000 0.72920  0.53340  0.56570  Biso   1.000  H
  H19      1.0000 0.32410  0.57840  0.40720  Biso   1.000  H
  H20      1.0000 0.67590  0.42160  0.59280  Biso   1.000  H
  H21      1.0000 0.07420  0.64190  0.16200  Biso   1.000  H
  H22      1.0000 0.92580  0.35810  0.83800  Biso   1.000  H
  H23      1.0000 0.41690  0.28890  0.15780  Biso   1.000  H
  H24      1.0000 0.58310  0.71110  0.84220  Biso   1.000  H
  H25      1.0000 0.32460  0.23460  0.22630  Biso   1.000  H
  H26      1.0000 0.67540  0.76540  0.77370  Biso   1.000  H
  H27      1.0000 0.02080  0.67680  0.42010  Biso   1.000  H
  H28      1.0000 0.97920  0.32320  0.57990  Biso   1.000  H
  H29      1.0000 0.06490  0.79570  0.29370  Biso   1.000  H
  H30      1.0000 0.93510  0.20430  0.70630  Biso   1.000  H
  H31      1.0000 0.88090  0.67390  0.26830  Biso   1.000  H
  H32      1.0000 0.11910  0.32610  0.73170  Biso   1.000  H
  H33      1.0000 0.00470  0.51340  0.35290  Biso   1.000  H
  H34      1.0000 0.99530  0.48660  0.64710  Biso   1.000  H
  H35      1.0000 0.92460  0.52730  0.12350  Biso   1.000  H
  H36      1.0000 0.07540  0.47270  0.87650  Biso   1.000  H
  H37      1.0000 0.02650  0.37570  0.22780  Biso   1.000  H
  H38      1.0000 0.97350  0.62430  0.77220  Biso   1.000  H
  H39      1.0000 0.18090  0.47660  0.05960  Biso   1.000  H
  H40      1.0000 0.81910  0.52340  0.94040  Biso   1.000  H
  H41      1.0000 0.14300  0.33500  0.09200  Biso   1.000  H
  H42      1.0000 0.85700  0.66500  0.90800  Biso   1.000  H
  H43      1.0000 0.59260  0.48390  0.10510  Biso   1.000  H
  H44      1.0000 0.40740  0.51610  0.89490  Biso   1.000  H
  H45      1.0000 0.26020  0.85150  0.13270  Biso   1.000  H
  H46      1.0000 0.73980  0.14850  0.86730  Biso   1.000  H
  H47      1.0000 0.32790  0.06940  0.00800  Biso   1.000  H
  H48      1.0000 0.67210  0.93060  0.99200  Biso   1.000  H
  H49      1.0000 0.40380  0.00140  0.92200  Biso   1.000  H
  H50      1.0000 0.59620  0.99860  0.07800  Biso   1.000  H
