data_image0
_cell_length_a       14.913
_cell_length_b       15.433
_cell_length_c       7.2754
_cell_angle_alpha    90
_cell_angle_beta     95.207
_cell_angle_gamma    90

_symmetry_space_group_name_H-M    "P 1"
_symmetry_int_tables_number       1

loop_
  _symmetry_equiv_pos_as_xyz
  'x, y, z'

loop_
  _atom_site_label
  _atom_site_occupancy
  _atom_site_fract_x
  _atom_site_fract_y
  _atom_site_fract_z
  _atom_site_thermal_displace_type
  _atom_site_B_iso_or_equiv
  _atom_site_type_symbol
  Cl1      1.0000 0.11989  0.21099  0.22197  Biso   1.000  Cl
  Cl2      1.0000 0.88011  0.71099  0.27803  Biso   1.000  Cl
  Cl3      1.0000 0.88011  0.78901  0.77803  Biso   1.000  Cl
  Cl4      1.0000 0.11989  0.28901  0.72197  Biso   1.000  Cl
  Cu1      1.0000 0.18832  0.31295  0.40565  Biso   1.000  Cu
  Cu2      1.0000 0.81168  0.81295  0.09435  Biso   1.000  Cu
  Cu3      1.0000 0.81168  0.68705  0.59435  Biso   1.000  Cu
  Cu4      1.0000 0.18832  0.18705  0.90565  Biso   1.000  Cu
  N1       1.0000 0.29809  0.24464  0.49350  Biso   1.000  N
  N2       1.0000 0.70191  0.74464  0.00650  Biso   1.000  N
  N3       1.0000 0.70191  0.75536  0.50650  Biso   1.000  N
  N4       1.0000 0.29809  0.25536  0.99350  Biso   1.000  N
  C1       1.0000 0.30700  0.15910  0.49940  Biso   1.000  C
  C2       1.0000 0.69300  0.65910  0.00060  Biso   1.000  C
  C3       1.0000 0.69300  0.84090  0.50060  Biso   1.000  C
  C4       1.0000 0.30700  0.34090  0.99940  Biso   1.000  C
  H1       1.0000 0.25720  0.12400  0.45550  Biso   1.000  H
  H2       1.0000 0.74280  0.62400  0.04450  Biso   1.000  H
  H3       1.0000 0.74280  0.87600  0.54450  Biso   1.000  H
  H4       1.0000 0.25720  0.37600  0.95550  Biso   1.000  H
  C5       1.0000 0.38780  0.11840  0.56850  Biso   1.000  C
  C6       1.0000 0.61220  0.61840  0.93150  Biso   1.000  C
  C7       1.0000 0.61220  0.88160  0.43150  Biso   1.000  C
  C8       1.0000 0.38780  0.38160  0.06850  Biso   1.000  C
  H5       1.0000 0.39170  0.05700  0.57150  Biso   1.000  H
  H6       1.0000 0.60830  0.55700  0.92850  Biso   1.000  H
  H7       1.0000 0.60830  0.94300  0.42850  Biso   1.000  H
  H8       1.0000 0.39170  0.44300  0.07150  Biso   1.000  H
  C9       1.0000 0.45980  0.16720  0.63070  Biso   1.000  C
  C10      1.0000 0.54020  0.66720  0.86930  Biso   1.000  C
  C11      1.0000 0.54020  0.83280  0.36930  Biso   1.000  C
  C12      1.0000 0.45980  0.33280  0.13070  Biso   1.000  C
  H9       1.0000 0.51450  0.14000  0.67660  Biso   1.000  H
  H10      1.0000 0.48550  0.64000  0.82340  Biso   1.000  H
  H11      1.0000 0.48550  0.86000  0.32340  Biso   1.000  H
  H12      1.0000 0.51450  0.36000  0.17660  Biso   1.000  H
  C13      1.0000 0.45330  0.25900  0.62700  Biso   1.000  C
  C14      1.0000 0.54670  0.75900  0.87300  Biso   1.000  C
  C15      1.0000 0.54670  0.74100  0.37300  Biso   1.000  C
  C16      1.0000 0.45330  0.24100  0.12700  Biso   1.000  C
  C17      1.0000 0.52500  0.31520  0.68690  Biso   1.000  C
  C18      1.0000 0.47500  0.81520  0.81310  Biso   1.000  C
  C19      1.0000 0.47500  0.68480  0.31310  Biso   1.000  C
  C20      1.0000 0.52500  0.18480  0.18690  Biso   1.000  C
  H13      1.0000 0.58190  0.29200  0.73120  Biso   1.000  H
  H14      1.0000 0.41810  0.79200  0.76880  Biso   1.000  H
  H15      1.0000 0.41810  0.70800  0.26880  Biso   1.000  H
  H16      1.0000 0.58190  0.20800  0.23120  Biso   1.000  H
  C21      1.0000 0.51200  0.40310  0.68090  Biso   1.000  C
  C22      1.0000 0.48800  0.90310  0.81910  Biso   1.000  C
  C23      1.0000 0.48800  0.59690  0.31910  Biso   1.000  C
  C24      1.0000 0.51200  0.09690  0.18090  Biso   1.000  C
  H17      1.0000 0.56060  0.44050  0.72090  Biso   1.000  H
  H18      1.0000 0.43940  0.94050  0.77910  Biso   1.000  H
  H19      1.0000 0.43940  0.55950  0.27910  Biso   1.000  H
  H20      1.0000 0.56060  0.05950  0.22090  Biso   1.000  H
  C25      1.0000 0.42860  0.43920  0.61680  Biso   1.000  C
  C26      1.0000 0.57140  0.93920  0.88320  Biso   1.000  C
  C27      1.0000 0.57140  0.56080  0.38320  Biso   1.000  C
  C28      1.0000 0.42860  0.06080  0.11680  Biso   1.000  C
  H21      1.0000 0.42090  0.50030  0.61630  Biso   1.000  H
  H22      1.0000 0.57910  0.00030  0.88370  Biso   1.000  H
  H23      1.0000 0.57910  0.49970  0.38370  Biso   1.000  H
  H24      1.0000 0.42090  0.99970  0.11630  Biso   1.000  H
  C29      1.0000 0.35810  0.38640  0.55480  Biso   1.000  C
  C30      1.0000 0.64190  0.88640  0.94520  Biso   1.000  C
  C31      1.0000 0.64190  0.61360  0.44520  Biso   1.000  C
  C32      1.0000 0.35810  0.11360  0.05480  Biso   1.000  C
  C33      1.0000 0.37020  0.29470  0.55870  Biso   1.000  C
  C34      1.0000 0.62980  0.79470  0.94130  Biso   1.000  C
  C35      1.0000 0.62980  0.70530  0.44130  Biso   1.000  C
  C36      1.0000 0.37020  0.20530  0.05870  Biso   1.000  C
  N5       1.0000 0.27117  0.41043  0.48400  Biso   1.000  N
  N6       1.0000 0.72883  0.91043  0.01600  Biso   1.000  N
  N7       1.0000 0.72883  0.58957  0.51600  Biso   1.000  N
  N8       1.0000 0.27117  0.08957  0.98400  Biso   1.000  N
  C37      1.0000 0.23860  0.48774  0.46280  Biso   1.000  C
  C38      1.0000 0.76140  0.98774  0.03720  Biso   1.000  C
  C39      1.0000 0.76140  0.51226  0.53720  Biso   1.000  C
  C40      1.0000 0.23860  0.01226  0.96280  Biso   1.000  C
  H25      1.0000 0.27150  0.53880  0.49720  Biso   1.000  H
  H26      1.0000 0.72850  0.03880  0.00280  Biso   1.000  H
  H27      1.0000 0.72850  0.46120  0.50280  Biso   1.000  H
  H28      1.0000 0.27150  0.96120  0.99720  Biso   1.000  H
  C41      1.0000 0.14720  0.48799  0.38150  Biso   1.000  C
  C42      1.0000 0.85280  0.98799  0.11850  Biso   1.000  C
  C43      1.0000 0.85280  0.51201  0.61850  Biso   1.000  C
  C44      1.0000 0.14720  0.01201  0.88150  Biso   1.000  C
  N9       1.0000 0.10811  0.41200  0.33220  Biso   1.000  N
  N10      1.0000 0.89189  0.91200  0.16780  Biso   1.000  N
  N11      1.0000 0.89189  0.58800  0.66780  Biso   1.000  N
  N12      1.0000 0.10811  0.08800  0.83220  Biso   1.000  N
  N13      1.0000 0.09061  0.55437  0.33580  Biso   1.000  N
  N14      1.0000 0.90939  0.05437  0.16420  Biso   1.000  N
  N15      1.0000 0.90939  0.44563  0.66420  Biso   1.000  N
  N16      1.0000 0.09061  0.94563  0.83580  Biso   1.000  N
  C45      1.0000 0.01210  0.51960  0.25620  Biso   1.000  C
  C46      1.0000 0.98790  0.01960  0.24380  Biso   1.000  C
  C47      1.0000 0.98790  0.48040  0.74380  Biso   1.000  C
  C48      1.0000 0.01210  0.98040  0.75620  Biso   1.000  C
  H29      1.0000 0.95960  0.55040  0.21110  Biso   1.000  H
  H30      1.0000 0.04040  0.05040  0.28890  Biso   1.000  H
  H31      1.0000 0.04040  0.44960  0.78890  Biso   1.000  H
  H32      1.0000 0.95960  0.94960  0.71110  Biso   1.000  H
  C49      1.0000 0.02410  0.43110  0.25400  Biso   1.000  C
  C50      1.0000 0.97590  0.93110  0.24600  Biso   1.000  C
  C51      1.0000 0.97590  0.56890  0.74600  Biso   1.000  C
  C52      1.0000 0.02410  0.06890  0.75400  Biso   1.000  C
  H33      1.0000 0.98080  0.39000  0.20560  Biso   1.000  H
  H34      1.0000 0.01920  0.89000  0.29440  Biso   1.000  H
  H35      1.0000 0.01920  0.61000  0.79440  Biso   1.000  H
  H36      1.0000 0.98080  0.11000  0.70560  Biso   1.000  H
  C53      1.0000 0.10820  0.64704  0.36990  Biso   1.000  C
  C54      1.0000 0.89180  0.14704  0.13010  Biso   1.000  C
  C55      1.0000 0.89180  0.35296  0.63010  Biso   1.000  C
  C56      1.0000 0.10820  0.85296  0.86990  Biso   1.000  C
  H37      1.0000 0.17180  0.65950  0.35700  Biso   1.000  H
  H38      1.0000 0.82820  0.15950  0.14300  Biso   1.000  H
  H39      1.0000 0.82820  0.34050  0.64300  Biso   1.000  H
  H40      1.0000 0.17180  0.84050  0.85700  Biso   1.000  H
  H41      1.0000 0.09420  0.66180  0.49520  Biso   1.000  H
  H42      1.0000 0.90580  0.16180  0.00480  Biso   1.000  H
  H43      1.0000 0.90580  0.33820  0.50480  Biso   1.000  H
  H44      1.0000 0.09420  0.83820  0.99520  Biso   1.000  H
  H45      1.0000 0.07040  0.68160  0.28030  Biso   1.000  H
  H46      1.0000 0.92960  0.18160  0.21970  Biso   1.000  H
  H47      1.0000 0.92960  0.31840  0.71970  Biso   1.000  H
  H48      1.0000 0.07040  0.81840  0.78030  Biso   1.000  H
  P1       1.0000 0.74598  0.38556  0.07494  Biso   1.000  P
  P2       1.0000 0.25402  0.88556  0.42506  Biso   1.000  P
  P3       1.0000 0.25402  0.61444  0.92506  Biso   1.000  P
  P4       1.0000 0.74598  0.11444  0.57494  Biso   1.000  P
  F1       1.0000 0.83742  0.34164  0.02690  Biso   1.000  F
  F2       1.0000 0.16258  0.84164  0.47310  Biso   1.000  F
  F3       1.0000 0.16258  0.65836  0.97310  Biso   1.000  F
  F4       1.0000 0.83742  0.15836  0.52690  Biso   1.000  F
  F5       1.0000 0.79786  0.47330  0.13270  Biso   1.000  F
  F6       1.0000 0.20214  0.97330  0.36730  Biso   1.000  F
  F7       1.0000 0.20214  0.52670  0.86730  Biso   1.000  F
  F8       1.0000 0.79786  0.02670  0.63270  Biso   1.000  F
  F9       1.0000 0.65427  0.43152  0.12270  Biso   1.000  F
  F10      1.0000 0.34573  0.93152  0.37730  Biso   1.000  F
  F11      1.0000 0.34573  0.56848  0.87730  Biso   1.000  F
  F12      1.0000 0.65427  0.06848  0.62270  Biso   1.000  F
  F13      1.0000 0.69220  0.29928  0.02090  Biso   1.000  F
  F14      1.0000 0.30780  0.79928  0.47910  Biso   1.000  F
  F15      1.0000 0.30780  0.70072  0.97910  Biso   1.000  F
  F16      1.0000 0.69220  0.20072  0.52090  Biso   1.000  F
  F17      1.0000 0.76170  0.35236  0.28090  Biso   1.000  F
  F18      1.0000 0.23830  0.85236  0.21910  Biso   1.000  F
  F19      1.0000 0.23830  0.64764  0.71910  Biso   1.000  F
  F20      1.0000 0.76170  0.14764  0.78090  Biso   1.000  F
  F21      1.0000 0.72703  0.41899  0.86770  Biso   1.000  F
  F22      1.0000 0.27297  0.91899  0.63230  Biso   1.000  F
  F23      1.0000 0.27297  0.58101  0.13230  Biso   1.000  F
  F24      1.0000 0.72703  0.08101  0.36770  Biso   1.000  F
