data_image0
_cell_length_a       8.043
_cell_length_b       8.524
_cell_length_c       9.593
_cell_angle_alpha    109.83
_cell_angle_beta     93.39
_cell_angle_gamma    117.12

_symmetry_space_group_name_H-M    "P 1"
_symmetry_int_tables_number       1

loop_
  _symmetry_equiv_pos_as_xyz
  'x, y, z'

loop_
  _atom_site_label
  _atom_site_occupancy
  _atom_site_fract_x
  _atom_site_fract_y
  _atom_site_fract_z
  _atom_site_thermal_displace_type
  _atom_site_B_iso_or_equiv
  _atom_site_type_symbol
  Cu1      1.0000 0.50000  0.50000  0.00000  Biso   1.000  Cu
  N1       1.0000 0.49860  0.27190  0.01820  Biso   1.000  N
  N2       1.0000 0.50140  0.72810  0.98180  Biso   1.000  N
  H1       1.0000 0.60400  0.26790  0.99580  Biso   1.000  H
  H2       1.0000 0.39600  0.73210  0.00420  Biso   1.000  H
  H3       1.0000 0.49920  0.28100  0.11450  Biso   1.000  H
  H4       1.0000 0.50080  0.71900  0.88550  Biso   1.000  H
  N3       1.0000 0.29290  0.29300  0.80020  Biso   1.000  N
  N4       1.0000 0.70710  0.70700  0.19980  Biso   1.000  N
  H5       1.0000 0.17600  0.27450  0.81160  Biso   1.000  H
  H6       1.0000 0.82400  0.72550  0.18840  Biso   1.000  H
  H7       1.0000 0.31740  0.33230  0.72390  Biso   1.000  H
  H8       1.0000 0.68260  0.66770  0.27610  Biso   1.000  H
  C1       1.0000 0.31650  0.09020  0.90600  Biso   1.000  C
  C2       1.0000 0.68350  0.90980  0.09400  Biso   1.000  C
  H9       1.0000 0.32770  0.97710  0.88960  Biso   1.000  H
  H10      1.0000 0.67230  0.02290  0.11040  Biso   1.000  H
  H11      1.0000 0.20510  0.07520  0.94650  Biso   1.000  H
  H12      1.0000 0.79490  0.92480  0.05350  Biso   1.000  H
  C3       1.0000 0.29390  0.11030  0.76170  Biso   1.000  C
  C4       1.0000 0.70610  0.88970  0.23830  Biso   1.000  C
  H13      1.0000 0.17370  0.00190  0.68940  Biso   1.000  H
  H14      1.0000 0.82630  0.99810  0.31060  Biso   1.000  H
  H15      1.0000 0.40000  0.11530  0.71670  Biso   1.000  H
  H16      1.0000 0.60000  0.88470  0.28330  Biso   1.000  H
  N5       1.0000 0.51110  0.29790  0.05600  Biso   1.000  N
  N6       1.0000 0.48890  0.70210  0.94400  Biso   1.000  N
  H17      1.0000 0.63400  0.33390  0.09430  Biso   1.000  H
  H18      1.0000 0.36600  0.66610  0.90570  Biso   1.000  H
  H19      1.0000 0.44350  0.27610  0.12550  Biso   1.000  H
  H20      1.0000 0.55650  0.72390  0.87450  Biso   1.000  H
  N7       1.0000 0.29640  0.27980  0.81170  Biso   1.000  N
  N8       1.0000 0.70360  0.72020  0.18830  Biso   1.000  N
  H21      1.0000 0.19240  0.29320  0.80000  Biso   1.000  H
  H22      1.0000 0.80760  0.70680  0.20000  Biso   1.000  H
  H23      1.0000 0.34220  0.27660  0.72800  Biso   1.000  H
  H24      1.0000 0.65780  0.72340  0.27200  Biso   1.000  H
  C5       1.0000 0.42150  0.12100  0.90670  Biso   1.000  C
  C6       1.0000 0.57850  0.87900  0.09330  Biso   1.000  C
  H25      1.0000 0.51020  0.13520  0.84140  Biso   1.000  H
  H26      1.0000 0.48980  0.86480  0.15860  Biso   1.000  H
  H27      1.0000 0.39250  0.00730  0.92530  Biso   1.000  H
  H28      1.0000 0.60750  0.99270  0.07470  Biso   1.000  H
  C7       1.0000 0.24370  0.10030  0.83250  Biso   1.000  C
  C8       1.0000 0.75630  0.89970  0.16750  Biso   1.000  C
  H29      1.0000 0.15290  0.08070  0.89590  Biso   1.000  H
  H30      1.0000 0.84710  0.91930  0.10410  Biso   1.000  H
  H31      1.0000 0.18380  0.98970  0.73400  Biso   1.000  H
  H32      1.0000 0.81620  0.01030  0.26600  Biso   1.000  H
  N9       1.0000 0.22720  0.46470  0.14450  Biso   1.000  N
  N10      1.0000 0.77280  0.53530  0.85550  Biso   1.000  N
  N11      1.0000 0.94230  0.40770  0.19690  Biso   1.000  N
  N12      1.0000 0.05770  0.59230  0.80310  Biso   1.000  N
  N13      1.0000 0.08520  0.51620  0.32660  Biso   1.000  N
  N14      1.0000 0.91480  0.48380  0.67340  Biso   1.000  N
  C9       1.0000 0.03570  0.38030  0.09170  Biso   1.000  C
  C10      1.0000 0.96430  0.61970  0.90830  Biso   1.000  C
  C11      1.0000 0.25050  0.54770  0.29310  Biso   1.000  C
  C12      1.0000 0.74950  0.45230  0.70690  Biso   1.000  C
  C13      1.0000 0.04920  0.58350  0.47670  Biso   1.000  C
  C14      1.0000 0.95080  0.41650  0.52330  Biso   1.000  C
  Cl1      1.0000 0.27130  0.09390  0.33550  Biso   1.000  Cl
  Cl2      1.0000 0.72870  0.90610  0.66450  Biso   1.000  Cl
  O1       1.0000 0.26760  0.20900  0.47530  Biso   1.000  O
  O2       1.0000 0.73240  0.79100  0.52470  Biso   1.000  O
  O3       1.0000 0.18430  0.10750  0.21580  Biso   1.000  O
  O4       1.0000 0.81570  0.89250  0.78420  Biso   1.000  O
  O5       1.0000 0.47240  0.16910  0.34320  Biso   1.000  O
  O6       1.0000 0.52760  0.83090  0.65680  Biso   1.000  O
  O7       1.0000 0.16960  0.90590  0.32130  Biso   1.000  O
  O8       1.0000 0.83040  0.09410  0.67870  Biso   1.000  O
  Cl3      1.0000 0.30730  0.10220  0.35820  Biso   1.000  Cl
  Cl4      1.0000 0.69270  0.89780  0.64180  Biso   1.000  Cl
  O9       1.0000 0.25320  0.22570  0.45040  Biso   1.000  O
  O10      1.0000 0.74680  0.77430  0.54960  Biso   1.000  O
  O11      1.0000 0.17970  0.95420  0.23210  Biso   1.000  O
  O12      1.0000 0.82030  0.04580  0.76790  Biso   1.000  O
  O13      1.0000 0.46440  0.20480  0.31550  Biso   1.000  O
  O14      1.0000 0.53560  0.79520  0.68450  Biso   1.000  O
  O15      1.0000 0.37970  0.04360  0.45270  Biso   1.000  O
  O16      1.0000 0.62030  0.95640  0.54730  Biso   1.000  O
  H33      1.0000 0.96720  0.30720  0.98900  Biso   1.000  H
  H34      1.0000 0.03280  0.69280  0.01100  Biso   1.000  H
  H35      1.0000 0.35970  0.61400  0.36230  Biso   1.000  H
  H36      1.0000 0.64030  0.38600  0.63770  Biso   1.000  H
  H37      1.0000 0.18910  0.69380  0.56240  Biso   1.000  H
  H38      1.0000 0.81090  0.30620  0.43760  Biso   1.000  H
  H39      1.0000 0.97580  0.64160  0.46940  Biso   1.000  H
  H40      1.0000 0.02420  0.35840  0.53060  Biso   1.000  H
