data_image0
_cell_length_a       18.77
_cell_length_b       12.648
_cell_length_c       12.019
_cell_angle_alpha    90
_cell_angle_beta     90
_cell_angle_gamma    90

_symmetry_space_group_name_H-M    "P 1"
_symmetry_int_tables_number       1

loop_
  _symmetry_equiv_pos_as_xyz
  'x, y, z'

loop_
  _atom_site_label
  _atom_site_occupancy
  _atom_site_fract_x
  _atom_site_fract_y
  _atom_site_fract_z
  _atom_site_thermal_displace_type
  _atom_site_B_iso_or_equiv
  _atom_site_type_symbol
  O1       1.0000 0.09630  0.09000  0.88200  Biso   1.000  O
  O2       1.0000 0.40370  0.59000  0.38200  Biso   1.000  O
  O3       1.0000 0.59630  0.41000  0.88200  Biso   1.000  O
  O4       1.0000 0.90370  0.91000  0.38200  Biso   1.000  O
  O5       1.0000 0.03000  0.14780  0.74400  Biso   1.000  O
  O6       1.0000 0.47000  0.64780  0.24400  Biso   1.000  O
  O7       1.0000 0.53000  0.35220  0.74400  Biso   1.000  O
  O8       1.0000 0.97000  0.85220  0.24400  Biso   1.000  O
  O9       1.0000 0.06250  0.42000  0.14380  Biso   1.000  O
  O10      1.0000 0.43750  0.92000  0.64380  Biso   1.000  O
  O11      1.0000 0.56250  0.08000  0.14380  Biso   1.000  O
  O12      1.0000 0.93750  0.58000  0.64380  Biso   1.000  O
  O13      1.0000 0.95340  0.42900  0.28400  Biso   1.000  O
  O14      1.0000 0.54660  0.92900  0.78400  Biso   1.000  O
  O15      1.0000 0.45340  0.07100  0.28400  Biso   1.000  O
  O16      1.0000 0.04660  0.57100  0.78400  Biso   1.000  O
  C1       1.0000 0.38600  0.94100  0.46100  Biso   1.000  C
  C2       1.0000 0.11400  0.44100  0.96100  Biso   1.000  C
  C3       1.0000 0.88600  0.55900  0.46100  Biso   1.000  C
  C4       1.0000 0.61400  0.05900  0.96100  Biso   1.000  C
  H1       1.0000 0.39020  0.97160  0.38670  Biso   1.000  H
  H2       1.0000 0.10980  0.47160  0.88670  Biso   1.000  H
  H3       1.0000 0.89020  0.52840  0.38670  Biso   1.000  H
  H4       1.0000 0.60980  0.02840  0.88670  Biso   1.000  H
  H5       1.0000 0.43300  0.94310  0.49790  Biso   1.000  H
  H6       1.0000 0.06700  0.44310  0.99790  Biso   1.000  H
  H7       1.0000 0.93300  0.55690  0.49790  Biso   1.000  H
  H8       1.0000 0.56700  0.05690  0.99790  Biso   1.000  H
  H9       1.0000 0.35170  0.98060  0.50510  Biso   1.000  H
  H10      1.0000 0.14830  0.48060  0.00510  Biso   1.000  H
  H11      1.0000 0.85170  0.51940  0.50510  Biso   1.000  H
  H12      1.0000 0.64830  0.01940  0.00510  Biso   1.000  H
  Cu1      1.0000 0.19725  0.76748  0.50840  Biso   1.000  Cu
  Cu2      1.0000 0.30275  0.26748  0.00840  Biso   1.000  Cu
  Cu3      1.0000 0.69725  0.73252  0.50840  Biso   1.000  Cu
  Cu4      1.0000 0.80275  0.23252  0.00840  Biso   1.000  Cu
  N1       1.0000 0.31650  0.77950  0.48570  Biso   1.000  N
  N2       1.0000 0.18350  0.27950  0.98570  Biso   1.000  N
  N3       1.0000 0.81650  0.72050  0.48570  Biso   1.000  N
  N4       1.0000 0.68350  0.22050  0.98570  Biso   1.000  N
  C5       1.0000 0.36110  0.82200  0.45100  Biso   1.000  C
  C6       1.0000 0.13890  0.32200  0.95100  Biso   1.000  C
  C7       1.0000 0.86110  0.67800  0.45100  Biso   1.000  C
  C8       1.0000 0.63890  0.17800  0.95100  Biso   1.000  C
  N5       1.0000 0.05640  0.76420  0.53640  Biso   1.000  N
  N6       1.0000 0.44360  0.26420  0.03640  Biso   1.000  N
  N7       1.0000 0.55640  0.73580  0.53640  Biso   1.000  N
  N8       1.0000 0.94360  0.23580  0.03640  Biso   1.000  N
  C9       1.0000 0.00940  0.80290  0.57890  Biso   1.000  C
  C10      1.0000 0.49060  0.30290  0.07890  Biso   1.000  C
  C11      1.0000 0.50940  0.69710  0.57890  Biso   1.000  C
  C12      1.0000 0.99060  0.19710  0.07890  Biso   1.000  C
  C13      1.0000 0.93990  0.85100  0.63900  Biso   1.000  C
  C14      1.0000 0.56010  0.35100  0.13900  Biso   1.000  C
  C15      1.0000 0.43990  0.64900  0.63900  Biso   1.000  C
  C16      1.0000 0.06010  0.14900  0.13900  Biso   1.000  C
  N9       1.0000 0.14010  0.70160  0.18460  Biso   1.000  N
  N10      1.0000 0.35990  0.20160  0.68460  Biso   1.000  N
  N11      1.0000 0.64010  0.79840  0.18460  Biso   1.000  N
  N12      1.0000 0.85990  0.29840  0.68460  Biso   1.000  N
  N13      1.0000 0.20120  0.64370  0.18560  Biso   1.000  N
  N14      1.0000 0.29880  0.14370  0.68560  Biso   1.000  N
  N15      1.0000 0.70120  0.85630  0.18560  Biso   1.000  N
  N16      1.0000 0.79880  0.35630  0.68560  Biso   1.000  N
  C17      1.0000 0.22400  0.65870  0.28770  Biso   1.000  C
  C18      1.0000 0.27600  0.15870  0.78770  Biso   1.000  C
  C19      1.0000 0.72400  0.84130  0.28770  Biso   1.000  C
  C20      1.0000 0.77600  0.34130  0.78770  Biso   1.000  C
  N17      1.0000 0.18660  0.72690  0.35070  Biso   1.000  N
  N18      1.0000 0.31340  0.22690  0.85070  Biso   1.000  N
  N19      1.0000 0.68660  0.77310  0.35070  Biso   1.000  N
  N20      1.0000 0.81340  0.27310  0.85070  Biso   1.000  N
  C21      1.0000 0.13090  0.74850  0.28010  Biso   1.000  C
  C22      1.0000 0.36910  0.24850  0.78010  Biso   1.000  C
  C23      1.0000 0.63090  0.75150  0.28010  Biso   1.000  C
  C24      1.0000 0.86910  0.25150  0.78010  Biso   1.000  C
  N21      1.0000 0.18330  0.82470  0.84840  Biso   1.000  N
  N22      1.0000 0.31670  0.32470  0.34840  Biso   1.000  N
  N23      1.0000 0.68330  0.67530  0.84840  Biso   1.000  N
  N24      1.0000 0.81670  0.17530  0.34840  Biso   1.000  N
  N25      1.0000 0.23700  0.89380  0.82570  Biso   1.000  N
  N26      1.0000 0.26300  0.39380  0.32570  Biso   1.000  N
  N27      1.0000 0.73700  0.60620  0.82570  Biso   1.000  N
  N28      1.0000 0.76300  0.10620  0.32570  Biso   1.000  N
  C25      1.0000 0.24810  0.88210  0.72110  Biso   1.000  C
  C26      1.0000 0.25190  0.38210  0.22110  Biso   1.000  C
  C27      1.0000 0.74810  0.61790  0.72110  Biso   1.000  C
  C28      1.0000 0.75190  0.11790  0.22110  Biso   1.000  C
  N29      1.0000 0.20440  0.80960  0.67180  Biso   1.000  N
  N30      1.0000 0.29560  0.30960  0.17180  Biso   1.000  N
  N31      1.0000 0.70440  0.69040  0.67180  Biso   1.000  N
  N32      1.0000 0.79560  0.19040  0.17180  Biso   1.000  N
  C29      1.0000 0.16400  0.77280  0.75110  Biso   1.000  C
  C30      1.0000 0.33600  0.27280  0.25110  Biso   1.000  C
  C31      1.0000 0.66400  0.72720  0.75110  Biso   1.000  C
  C32      1.0000 0.83600  0.22720  0.25110  Biso   1.000  C
  C33      1.0000 0.15150  0.81570  0.96010  Biso   1.000  C
  C34      1.0000 0.34850  0.31570  0.46010  Biso   1.000  C
  C35      1.0000 0.65150  0.68430  0.96010  Biso   1.000  C
  C36      1.0000 0.84850  0.18430  0.46010  Biso   1.000  C
  C37      1.0000 0.12420  0.70450  0.97850  Biso   1.000  C
  C38      1.0000 0.37580  0.20450  0.47850  Biso   1.000  C
  C39      1.0000 0.62420  0.79550  0.97850  Biso   1.000  C
  C40      1.0000 0.87580  0.29550  0.47850  Biso   1.000  C
  C41      1.0000 0.08680  0.69520  0.09310  Biso   1.000  C
  C42      1.0000 0.41320  0.19520  0.59310  Biso   1.000  C
  C43      1.0000 0.58680  0.80480  0.09310  Biso   1.000  C
  C44      1.0000 0.91320  0.30480  0.59310  Biso   1.000  C
  N33      1.0000 0.15730  0.45330  0.56650  Biso   1.000  N
  N34      1.0000 0.34270  0.95330  0.06650  Biso   1.000  N
  N35      1.0000 0.65730  0.04670  0.56650  Biso   1.000  N
  N36      1.0000 0.84270  0.54670  0.06650  Biso   1.000  N
  N37      1.0000 0.21240  0.45800  0.63620  Biso   1.000  N
  N38      1.0000 0.28760  0.95800  0.13620  Biso   1.000  N
  N39      1.0000 0.71240  0.04200  0.63620  Biso   1.000  N
  N40      1.0000 0.78760  0.54200  0.13620  Biso   1.000  N
  C45      1.0000 0.23590  0.55570  0.62020  Biso   1.000  C
  C46      1.0000 0.26410  0.05570  0.12020  Biso   1.000  C
  C47      1.0000 0.73590  0.94430  0.62020  Biso   1.000  C
  C48      1.0000 0.76410  0.44430  0.12020  Biso   1.000  C
  N41      1.0000 0.19200  0.61300  0.55290  Biso   1.000  N
  N42      1.0000 0.30800  0.11300  0.05290  Biso   1.000  N
  N43      1.0000 0.69200  0.88700  0.55290  Biso   1.000  N
  N44      1.0000 0.80800  0.38700  0.05290  Biso   1.000  N
  C49      1.0000 0.14600  0.54490  0.51890  Biso   1.000  C
  C50      1.0000 0.35400  0.04490  0.01890  Biso   1.000  C
  C51      1.0000 0.64600  0.95510  0.51890  Biso   1.000  C
  C52      1.0000 0.85400  0.45510  0.01890  Biso   1.000  C
  C53      1.0000 0.10420  0.17510  0.48940  Biso   1.000  C
  C54      1.0000 0.39580  0.67510  0.98940  Biso   1.000  C
  C55      1.0000 0.60420  0.32490  0.48940  Biso   1.000  C
  C56      1.0000 0.89580  0.82490  0.98940  Biso   1.000  C
  C57      1.0000 0.15410  0.26560  0.51920  Biso   1.000  C
  C58      1.0000 0.34590  0.76560  0.01920  Biso   1.000  C
  C59      1.0000 0.65410  0.23440  0.51920  Biso   1.000  C
  C60      1.0000 0.84590  0.73440  0.01920  Biso   1.000  C
  C61      1.0000 0.10980  0.35830  0.55800  Biso   1.000  C
  C62      1.0000 0.39020  0.85830  0.05800  Biso   1.000  C
  C63      1.0000 0.60980  0.14170  0.55800  Biso   1.000  C
  C64      1.0000 0.89020  0.64170  0.05800  Biso   1.000  C
  N45      1.0000 0.14240  0.07900  0.46430  Biso   1.000  N
  N46      1.0000 0.35760  0.57900  0.96430  Biso   1.000  N
  N47      1.0000 0.64240  0.42100  0.46430  Biso   1.000  N
  N48      1.0000 0.85760  0.92100  0.96430  Biso   1.000  N
  N49      1.0000 0.18700  0.07120  0.37720  Biso   1.000  N
  N50      1.0000 0.31300  0.57120  0.87720  Biso   1.000  N
  N51      1.0000 0.68700  0.42880  0.37720  Biso   1.000  N
  N52      1.0000 0.81300  0.92880  0.87720  Biso   1.000  N
  C65      1.0000 0.21080  0.97330  0.38010  Biso   1.000  C
  C66      1.0000 0.28920  0.47330  0.88010  Biso   1.000  C
  C67      1.0000 0.71080  0.52670  0.38010  Biso   1.000  C
  C68      1.0000 0.78920  0.02670  0.88010  Biso   1.000  C
  N53      1.0000 0.18220  0.92020  0.46910  Biso   1.000  N
  N54      1.0000 0.31780  0.42020  0.96910  Biso   1.000  N
  N55      1.0000 0.68220  0.57980  0.46910  Biso   1.000  N
  N56      1.0000 0.81780  0.07980  0.96910  Biso   1.000  N
  C69      1.0000 0.14230  0.99020  0.52030  Biso   1.000  C
  C70      1.0000 0.35770  0.49020  0.02030  Biso   1.000  C
  C71      1.0000 0.64230  0.50980  0.52030  Biso   1.000  C
  C72      1.0000 0.85770  0.00980  0.02030  Biso   1.000  C
  Cl1      1.0000 0.04440  0.05630  0.80560  Biso   1.000  Cl
  Cl2      1.0000 0.45560  0.55630  0.30560  Biso   1.000  Cl
  Cl3      1.0000 0.54440  0.44370  0.80560  Biso   1.000  Cl
  Cl4      1.0000 0.95560  0.94370  0.30560  Biso   1.000  Cl
  O17      1.0000 0.99060  0.02540  0.87910  Biso   1.000  O
  O18      1.0000 0.50940  0.52540  0.37910  Biso   1.000  O
  O19      1.0000 0.49060  0.47460  0.87910  Biso   1.000  O
  O20      1.0000 0.00940  0.97460  0.37910  Biso   1.000  O
  O21      1.0000 0.07440  0.96760  0.75450  Biso   1.000  O
  O22      1.0000 0.42560  0.46760  0.25450  Biso   1.000  O
  O23      1.0000 0.57440  0.53240  0.75450  Biso   1.000  O
  O24      1.0000 0.92560  0.03240  0.25450  Biso   1.000  O
  Cl5      1.0000 0.02390  0.43310  0.24360  Biso   1.000  Cl
  Cl6      1.0000 0.47610  0.93310  0.74360  Biso   1.000  Cl
  Cl7      1.0000 0.52390  0.06690  0.24360  Biso   1.000  Cl
  Cl8      1.0000 0.97610  0.56690  0.74360  Biso   1.000  Cl
  O25      1.0000 0.04760  0.52400  0.30080  Biso   1.000  O
  O26      1.0000 0.45240  0.02400  0.80080  Biso   1.000  O
  O27      1.0000 0.54760  0.97600  0.30080  Biso   1.000  O
  O28      1.0000 0.95240  0.47600  0.80080  Biso   1.000  O
  O29      1.0000 0.02750  0.34300  0.31120  Biso   1.000  O
  O30      1.0000 0.47250  0.84300  0.81120  Biso   1.000  O
  O31      1.0000 0.52750  0.15700  0.31120  Biso   1.000  O
  O32      1.0000 0.97250  0.65700  0.81120  Biso   1.000  O
  O33      1.0000 0.09700  0.13500  0.80400  Biso   1.000  O
  O34      1.0000 0.40300  0.63500  0.30400  Biso   1.000  O
  O35      1.0000 0.59700  0.36500  0.80400  Biso   1.000  O
  O36      1.0000 0.90300  0.86500  0.30400  Biso   1.000  O
  O37      1.0000 0.00350  0.08800  0.71400  Biso   1.000  O
  O38      1.0000 0.49650  0.58800  0.21400  Biso   1.000  O
  O39      1.0000 0.50350  0.41200  0.71400  Biso   1.000  O
  O40      1.0000 0.99650  0.91200  0.21400  Biso   1.000  O
  O41      1.0000 0.01200  0.46000  0.13180  Biso   1.000  O
  O42      1.0000 0.48800  0.96000  0.63180  Biso   1.000  O
  O43      1.0000 0.51200  0.04000  0.13180  Biso   1.000  O
  O44      1.0000 0.98800  0.54000  0.63180  Biso   1.000  O
  O45      1.0000 0.95080  0.44600  0.22100  Biso   1.000  O
  O46      1.0000 0.54920  0.94600  0.72100  Biso   1.000  O
  O47      1.0000 0.45080  0.05400  0.22100  Biso   1.000  O
  O48      1.0000 0.04920  0.55400  0.72100  Biso   1.000  O
  C73      1.0000 0.42090  0.87000  0.38600  Biso   1.000  C
  C74      1.0000 0.07910  0.37000  0.88600  Biso   1.000  C
  C75      1.0000 0.92090  0.63000  0.38600  Biso   1.000  C
  C76      1.0000 0.57910  0.13000  0.88600  Biso   1.000  C
  H13      1.0000 0.44000  0.81790  0.33330  Biso   1.000  H
  H14      1.0000 0.06000  0.31790  0.83330  Biso   1.000  H
  H15      1.0000 0.94000  0.68210  0.33330  Biso   1.000  H
  H16      1.0000 0.56000  0.18210  0.83330  Biso   1.000  H
  H17      1.0000 0.45870  0.89280  0.43650  Biso   1.000  H
  H18      1.0000 0.04130  0.39280  0.93650  Biso   1.000  H
  H19      1.0000 0.95870  0.60720  0.43650  Biso   1.000  H
  H20      1.0000 0.54130  0.10720  0.93650  Biso   1.000  H
  H21      1.0000 0.40310  0.93140  0.34420  Biso   1.000  H
  H22      1.0000 0.09690  0.43140  0.84420  Biso   1.000  H
  H23      1.0000 0.90310  0.56860  0.34420  Biso   1.000  H
  H24      1.0000 0.59690  0.06860  0.84420  Biso   1.000  H
  H25      1.0000 0.89570  0.81080  0.61320  Biso   1.000  H
  H26      1.0000 0.60430  0.31080  0.11320  Biso   1.000  H
  H27      1.0000 0.39570  0.68920  0.61320  Biso   1.000  H
  H28      1.0000 0.10430  0.18920  0.11320  Biso   1.000  H
  H29      1.0000 0.93320  0.92390  0.62470  Biso   1.000  H
  H30      1.0000 0.56680  0.42390  0.12470  Biso   1.000  H
  H31      1.0000 0.43320  0.57610  0.62470  Biso   1.000  H
  H32      1.0000 0.06680  0.07610  0.12470  Biso   1.000  H
  H33      1.0000 0.94220  0.83770  0.72110  Biso   1.000  H
  H34      1.0000 0.55780  0.33770  0.22110  Biso   1.000  H
  H35      1.0000 0.44220  0.66230  0.72110  Biso   1.000  H
  H36      1.0000 0.05780  0.16230  0.22110  Biso   1.000  H
  H37      1.0000 0.26520  0.62330  0.31780  Biso   1.000  H
  H38      1.0000 0.23480  0.12330  0.81780  Biso   1.000  H
  H39      1.0000 0.76520  0.87670  0.31780  Biso   1.000  H
  H40      1.0000 0.73480  0.37670  0.81780  Biso   1.000  H
  H41      1.0000 0.09000  0.79080  0.30050  Biso   1.000  H
  H42      1.0000 0.41000  0.29080  0.80050  Biso   1.000  H
  H43      1.0000 0.59000  0.70920  0.30050  Biso   1.000  H
  H44      1.0000 0.91000  0.20920  0.80050  Biso   1.000  H
  H45      1.0000 0.28400  0.92020  0.68070  Biso   1.000  H
  H46      1.0000 0.21600  0.42020  0.18070  Biso   1.000  H
  H47      1.0000 0.78400  0.57980  0.68070  Biso   1.000  H
  H48      1.0000 0.71600  0.07980  0.18070  Biso   1.000  H
  H49      1.0000 0.12710  0.71800  0.74250  Biso   1.000  H
  H50      1.0000 0.37290  0.21800  0.24250  Biso   1.000  H
  H51      1.0000 0.62710  0.78200  0.74250  Biso   1.000  H
  H52      1.0000 0.87290  0.28200  0.24250  Biso   1.000  H
  H53      1.0000 0.11100  0.86620  0.96980  Biso   1.000  H
  H54      1.0000 0.38900  0.36620  0.46980  Biso   1.000  H
  H55      1.0000 0.61100  0.63380  0.96980  Biso   1.000  H
  H56      1.0000 0.88900  0.13380  0.46980  Biso   1.000  H
  H57      1.0000 0.18730  0.83270  0.01910  Biso   1.000  H
  H58      1.0000 0.31270  0.33270  0.51910  Biso   1.000  H
  H59      1.0000 0.68730  0.66730  0.01910  Biso   1.000  H
  H60      1.0000 0.81270  0.16730  0.51910  Biso   1.000  H
  H61      1.0000 0.16470  0.65310  0.97510  Biso   1.000  H
  H62      1.0000 0.33530  0.15310  0.47510  Biso   1.000  H
  H63      1.0000 0.66470  0.84690  0.97510  Biso   1.000  H
  H64      1.0000 0.83530  0.34690  0.47510  Biso   1.000  H
  H65      1.0000 0.09030  0.68470  0.91840  Biso   1.000  H
  H66      1.0000 0.40970  0.18470  0.41840  Biso   1.000  H
  H67      1.0000 0.59030  0.81530  0.91840  Biso   1.000  H
  H68      1.0000 0.90970  0.31530  0.41840  Biso   1.000  H
  H69      1.0000 0.05170  0.75280  0.10090  Biso   1.000  H
  H70      1.0000 0.44830  0.25280  0.60090  Biso   1.000  H
  H71      1.0000 0.55170  0.74720  0.10090  Biso   1.000  H
  H72      1.0000 0.94830  0.24720  0.60090  Biso   1.000  H
  H73      1.0000 0.06080  0.62680  0.09780  Biso   1.000  H
  H74      1.0000 0.43920  0.12680  0.59780  Biso   1.000  H
  H75      1.0000 0.56080  0.87320  0.09780  Biso   1.000  H
  H76      1.0000 0.93920  0.37320  0.59780  Biso   1.000  H
  H77      1.0000 0.27800  0.58480  0.65600  Biso   1.000  H
  H78      1.0000 0.22200  0.08480  0.15600  Biso   1.000  H
  H79      1.0000 0.77800  0.91520  0.65600  Biso   1.000  H
  H80      1.0000 0.72200  0.41520  0.15600  Biso   1.000  H
  H81      1.0000 0.10790  0.55890  0.46710  Biso   1.000  H
  H82      1.0000 0.39210  0.05890  0.96710  Biso   1.000  H
  H83      1.0000 0.60790  0.94110  0.46710  Biso   1.000  H
  H84      1.0000 0.89210  0.44110  0.96710  Biso   1.000  H
  H85      1.0000 0.07050  0.16270  0.55400  Biso   1.000  H
  H86      1.0000 0.42950  0.66270  0.05400  Biso   1.000  H
  H87      1.0000 0.57050  0.33730  0.55400  Biso   1.000  H
  H88      1.0000 0.92950  0.83730  0.05400  Biso   1.000  H
  H89      1.0000 0.07360  0.19690  0.42560  Biso   1.000  H
  H90      1.0000 0.42640  0.69690  0.92560  Biso   1.000  H
  H91      1.0000 0.57360  0.30310  0.42560  Biso   1.000  H
  H92      1.0000 0.92640  0.80310  0.92560  Biso   1.000  H
  H93      1.0000 0.18690  0.24290  0.58030  Biso   1.000  H
  H94      1.0000 0.31310  0.74290  0.08030  Biso   1.000  H
  H95      1.0000 0.68690  0.25710  0.58030  Biso   1.000  H
  H96      1.0000 0.81310  0.75710  0.08030  Biso   1.000  H
  H97      1.0000 0.18330  0.28510  0.45420  Biso   1.000  H
  H98      1.0000 0.31670  0.78510  0.95420  Biso   1.000  H
  H99      1.0000 0.68330  0.21490  0.45420  Biso   1.000  H
  H100     1.0000 0.81670  0.71490  0.95420  Biso   1.000  H
  H101     1.0000 0.07110  0.37140  0.50300  Biso   1.000  H
  H102     1.0000 0.42890  0.87140  0.00300  Biso   1.000  H
  H103     1.0000 0.57110  0.12860  0.50300  Biso   1.000  H
  H104     1.0000 0.92890  0.62860  0.00300  Biso   1.000  H
  H105     1.0000 0.08770  0.34250  0.63050  Biso   1.000  H
  H106     1.0000 0.41230  0.84250  0.13050  Biso   1.000  H
  H107     1.0000 0.58770  0.15750  0.63050  Biso   1.000  H
  H108     1.0000 0.91230  0.65750  0.13050  Biso   1.000  H
  H109     1.0000 0.24190  0.94170  0.32770  Biso   1.000  H
  H110     1.0000 0.25810  0.44170  0.82770  Biso   1.000  H
  H111     1.0000 0.74190  0.55830  0.32770  Biso   1.000  H
  H112     1.0000 0.75810  0.05830  0.82770  Biso   1.000  H
  H113     1.0000 0.11860  0.97850  0.59020  Biso   1.000  H
  H114     1.0000 0.38140  0.47850  0.09020  Biso   1.000  H
  H115     1.0000 0.61860  0.52150  0.59020  Biso   1.000  H
  H116     1.0000 0.88140  0.02150  0.09020  Biso   1.000  H
