data_image0
_cell_length_a       13.7598
_cell_length_b       14.4813
_cell_length_c       14.6317
_cell_angle_alpha    104.327
_cell_angle_beta     90.613
_cell_angle_gamma    95.779

_symmetry_space_group_name_H-M    "P 1"
_symmetry_int_tables_number       1

loop_
  _symmetry_equiv_pos_as_xyz
  'x, y, z'

loop_
  _atom_site_label
  _atom_site_occupancy
  _atom_site_fract_x
  _atom_site_fract_y
  _atom_site_fract_z
  _atom_site_thermal_displace_type
  _atom_site_B_iso_or_equiv
  _atom_site_type_symbol
  Cu1      1.0000 0.96480  0.69870  0.32144  Biso   1.000  Cu
  Cu2      1.0000 0.03520  0.30130  0.67856  Biso   1.000  Cu
  Cu3      1.0000 0.80546  0.69151  0.10946  Biso   1.000  Cu
  Cu4      1.0000 0.19454  0.30849  0.89054  Biso   1.000  Cu
  Cu5      1.0000 0.58054  0.67656  0.24447  Biso   1.000  Cu
  Cu6      1.0000 0.41946  0.32344  0.75553  Biso   1.000  Cu
  Cu7      1.0000 0.72583  0.68646  0.42822  Biso   1.000  Cu
  Cu8      1.0000 0.27417  0.31354  0.57178  Biso   1.000  Cu
  S1       1.0000 0.04137  0.55664  0.28814  Biso   1.000  S
  S2       1.0000 0.95863  0.44336  0.71186  Biso   1.000  S
  S3       1.0000 0.79207  0.54791  0.98710  Biso   1.000  S
  S4       1.0000 0.20793  0.45209  0.01290  Biso   1.000  S
  S5       1.0000 0.46277  0.51892  0.19859  Biso   1.000  S
  S6       1.0000 0.53723  0.48108  0.80141  Biso   1.000  S
  S7       1.0000 0.71553  0.55413  0.50216  Biso   1.000  S
  S8       1.0000 0.28447  0.44587  0.49784  Biso   1.000  S
  S9       1.0000 0.93580  0.25201  0.43855  Biso   1.000  S
  S10      1.0000 0.06420  0.74799  0.56145  Biso   1.000  S
  S11      1.0000 0.98244  0.23681  0.99591  Biso   1.000  S
  S12      1.0000 0.01756  0.76319  0.00409  Biso   1.000  S
  S13      1.0000 0.53280  0.22836  0.89572  Biso   1.000  S
  S14      1.0000 0.46720  0.77164  0.10428  Biso   1.000  S
  S15      1.0000 0.44264  0.24141  0.39427  Biso   1.000  S
  S16      1.0000 0.55736  0.75859  0.60573  Biso   1.000  S
  S17      1.0000 0.80721  0.83464  0.31704  Biso   1.000  S
  S18      1.0000 0.19279  0.16536  0.68296  Biso   1.000  S
  O1       1.0000 0.86572  0.63051  0.38219  Biso   1.000  O
  O2       1.0000 0.13428  0.36949  0.61781  Biso   1.000  O
  O3       1.0000 0.85710  0.18780  0.38310  Biso   1.000  O
  O4       1.0000 0.14290  0.81220  0.61690  Biso   1.000  O
  O5       1.0000 0.93060  0.25570  0.53813  Biso   1.000  O
  O6       1.0000 0.06940  0.74430  0.46187  Biso   1.000  O
  O7       1.0000 0.03140  0.23230  0.39960  Biso   1.000  O
  O8       1.0000 0.96860  0.76770  0.60040  Biso   1.000  O
  O9       1.0000 0.89788  0.63369  0.17193  Biso   1.000  O
  O10      1.0000 0.10212  0.36631  0.82807  Biso   1.000  O
  O11      1.0000 0.95700  0.18230  0.06520  Biso   1.000  O
  O12      1.0000 0.04300  0.81770  0.93480  Biso   1.000  O
  O13      1.0000 0.08620  0.23840  0.97860  Biso   1.000  O
  O14      1.0000 0.91380  0.76160  0.02140  Biso   1.000  O
  O15      1.0000 0.92050  0.20645  0.91060  Biso   1.000  O
  O16      1.0000 0.07950  0.79355  0.08940  Biso   1.000  O
  O17      1.0000 0.65997  0.60882  0.14868  Biso   1.000  O
  O18      1.0000 0.34003  0.39118  0.85132  Biso   1.000  O
  O19      1.0000 0.61380  0.20260  0.83660  Biso   1.000  O
  O20      1.0000 0.38620  0.79740  0.16340  Biso   1.000  O
  O21      1.0000 0.44452  0.23726  0.83992  Biso   1.000  O
  O22      1.0000 0.55548  0.76274  0.16008  Biso   1.000  O
  O23      1.0000 0.50470  0.16540  0.95560  Biso   1.000  O
  O24      1.0000 0.49530  0.83460  0.04440  Biso   1.000  O
  O25      1.0000 0.63097  0.60626  0.33724  Biso   1.000  O
  O26      1.0000 0.36903  0.39374  0.66276  Biso   1.000  O
  O27      1.0000 0.35300  0.21650  0.33595  Biso   1.000  O
  O28      1.0000 0.64700  0.78350  0.66405  Biso   1.000  O
  O29      1.0000 0.42190  0.25820  0.49463  Biso   1.000  O
  O30      1.0000 0.57810  0.74180  0.50537  Biso   1.000  O
  O31      1.0000 0.51470  0.17470  0.36710  Biso   1.000  O
  O32      1.0000 0.48530  0.82530  0.63290  Biso   1.000  O
  O33      1.0000 0.72314  0.77237  0.34073  Biso   1.000  O
  O34      1.0000 0.27686  0.22763  0.65927  Biso   1.000  O
  O35      1.0000 0.89769  0.81437  0.36068  Biso   1.000  O
  O36      1.0000 0.10231  0.18563  0.63932  Biso   1.000  O
  O37      1.0000 0.81360  0.81135  0.21325  Biso   1.000  O
  O38      1.0000 0.18640  0.18865  0.78675  Biso   1.000  O
  O39      1.0000 0.79420  0.93496  0.35250  Biso   1.000  O
  O40      1.0000 0.20580  0.06504  0.64750  Biso   1.000  O
  O41      1.0000 0.06958  0.77010  0.26843  Biso   1.000  O
  O42      1.0000 0.93042  0.22990  0.73157  Biso   1.000  O
  O43      1.0000 0.71500  0.75070  0.04280  Biso   1.000  O
  O44      1.0000 0.28500  0.24930  0.95720  Biso   1.000  O
  O45      1.0000 0.49968  0.74880  0.33894  Biso   1.000  O
  O46      1.0000 0.50032  0.25120  0.66106  Biso   1.000  O
  O47      1.0000 0.79080  0.78325  0.53527  Biso   1.000  O
  O48      1.0000 0.20920  0.21675  0.46473  Biso   1.000  O
  C1       1.0000 0.88180  0.54720  0.39660  Biso   1.000  C
  C2       1.0000 0.11820  0.45280  0.60340  Biso   1.000  C
  C3       1.0000 0.81930  0.49920  0.45050  Biso   1.000  C
  C4       1.0000 0.18070  0.50080  0.54950  Biso   1.000  C
  C5       1.0000 0.83740  0.41180  0.46490  Biso   1.000  C
  C6       1.0000 0.16260  0.58820  0.53510  Biso   1.000  C
  H1       1.0000 0.79440  0.38150  0.50170  Biso   1.000  H
  H2       1.0000 0.20560  0.61850  0.49830  Biso   1.000  H
  C7       1.0000 0.91830  0.36740  0.42590  Biso   1.000  C
  C8       1.0000 0.08170  0.63260  0.57410  Biso   1.000  C
  C9       1.0000 0.98180  0.41340  0.37450  Biso   1.000  C
  C10      1.0000 0.01820  0.58660  0.62550  Biso   1.000  C
  H3       1.0000 0.03800  0.38460  0.34930  Biso   1.000  H
  H4       1.0000 0.96200  0.61540  0.65070  Biso   1.000  H
  C11      1.0000 0.96390  0.50100  0.35980  Biso   1.000  C
  C12      1.0000 0.03610  0.49900  0.64020  Biso   1.000  C
  C13      1.0000 0.91940  0.54660  0.13200  Biso   1.000  C
  C14      1.0000 0.08060  0.45340  0.86800  Biso   1.000  C
  C15      1.0000 0.98550  0.49950  0.17480  Biso   1.000  C
  C16      1.0000 0.01450  0.50050  0.82520  Biso   1.000  C
  C17      1.0000 0.00530  0.40680  0.13290  Biso   1.000  C
  C18      1.0000 0.99470  0.59320  0.86710  Biso   1.000  C
  H5       1.0000 0.04990  0.37710  0.16330  Biso   1.000  H
  H6       1.0000 0.95010  0.62290  0.83670  Biso   1.000  H
  C19      1.0000 0.96050  0.35690  0.04690  Biso   1.000  C
  C20      1.0000 0.03950  0.64310  0.95310  Biso   1.000  C
  C21      1.0000 0.89690  0.40120  0.00210  Biso   1.000  C
  C22      1.0000 0.10310  0.59880  0.99790  Biso   1.000  C
  H7       1.0000 0.86670  0.36800  0.94280  Biso   1.000  H
  H8       1.0000 0.13330  0.63200  0.05720  Biso   1.000  H
  C23      1.0000 0.87740  0.49320  0.04350  Biso   1.000  C
  C24      1.0000 0.12260  0.50680  0.95650  Biso   1.000  C
  C25      1.0000 0.62830  0.52630  0.09200  Biso   1.000  C
  C26      1.0000 0.37170  0.47370  0.90800  Biso   1.000  C
  C27      1.0000 0.68100  0.48620  0.01240  Biso   1.000  C
  C28      1.0000 0.31900  0.51380  0.98760  Biso   1.000  C
  C29      1.0000 0.65140  0.39670  0.95230  Biso   1.000  C
  C30      1.0000 0.34860  0.60330  0.04770  Biso   1.000  C
  H9       1.0000 0.68870  0.37220  0.89910  Biso   1.000  H
  H10      1.0000 0.31130  0.62780  0.10090  Biso   1.000  H
  C31      1.0000 0.56770  0.34340  0.96990  Biso   1.000  C
  C32      1.0000 0.43230  0.65660  0.03010  Biso   1.000  C
  C33      1.0000 0.51170  0.38160  0.04680  Biso   1.000  C
  C34      1.0000 0.48830  0.61840  0.95320  Biso   1.000  C
  H11      1.0000 0.45380  0.34570  0.05880  Biso   1.000  H
  H12      1.0000 0.54620  0.65430  0.94120  Biso   1.000  H
  C35      1.0000 0.54040  0.47110  0.10530  Biso   1.000  C
  C36      1.0000 0.45960  0.52890  0.89470  Biso   1.000  C
  C37      1.0000 0.58680  0.52600  0.35100  Biso   1.000  C
  C38      1.0000 0.41320  0.47400  0.64900  Biso   1.000  C
  C39      1.0000 0.50700  0.47490  0.29260  Biso   1.000  C
  C40      1.0000 0.49300  0.52510  0.70740  Biso   1.000  C
  C41      1.0000 0.46190  0.38930  0.30680  Biso   1.000  C
  C42      1.0000 0.53810  0.61070  0.69320  Biso   1.000  C
  H13      1.0000 0.40830  0.35560  0.26670  Biso   1.000  H
  H14      1.0000 0.59170  0.64440  0.73330  Biso   1.000  H
  C43      1.0000 0.49480  0.35290  0.37920  Biso   1.000  C
  C44      1.0000 0.50520  0.64710  0.62080  Biso   1.000  C
  C45      1.0000 0.57260  0.40280  0.43950  Biso   1.000  C
  C46      1.0000 0.42740  0.59720  0.56050  Biso   1.000  C
  H15      1.0000 0.59430  0.37900  0.49020  Biso   1.000  H
  H16      1.0000 0.40570  0.62100  0.50980  Biso   1.000  H
  C47      1.0000 0.61741  0.48707  0.42425  Biso   1.000  C
  C48      1.0000 0.38259  0.51293  0.57575  Biso   1.000  C
  H17      1.0000 0.06770  0.77650  0.20330  Biso   1.000  H
  H18      1.0000 0.93230  0.22350  0.79670  Biso   1.000  H
  H19      1.0000 0.12240  0.77850  0.28370  Biso   1.000  H
  H20      1.0000 0.87760  0.22150  0.71630  Biso   1.000  H
  H21      1.0000 0.66890  0.76210  0.07450  Biso   1.000  H
  H22      1.0000 0.33110  0.23790  0.92550  Biso   1.000  H
  H23      1.0000 0.69940  0.76300  0.98850  Biso   1.000  H
  H24      1.0000 0.30060  0.23700  0.01150  Biso   1.000  H
  H25      1.0000 0.45100  0.77660  0.34920  Biso   1.000  H
  H26      1.0000 0.54900  0.22340  0.65080  Biso   1.000  H
  H27      1.0000 0.51780  0.74250  0.39310  Biso   1.000  H
  H28      1.0000 0.48220  0.25750  0.60690  Biso   1.000  H
  H29      1.0000 0.84560  0.76580  0.54740  Biso   1.000  H
  H30      1.0000 0.15440  0.23420  0.45260  Biso   1.000  H
  H31      1.0000 0.75580  0.77560  0.57810  Biso   1.000  H
  H32      1.0000 0.24420  0.22440  0.42190  Biso   1.000  H
  O49      1.0000 0.10503  0.23522  0.21662  Biso   1.000  O
  O50      1.0000 0.89497  0.76478  0.78338  Biso   1.000  O
  O51      1.0000 0.68533  0.19412  0.48901  Biso   1.000  O
  O52      1.0000 0.31467  0.80588  0.51099  Biso   1.000  O
  N1       1.0000 0.10263  0.00392  0.32071  Biso   1.000  N
  N2       1.0000 0.89737  0.99608  0.67929  Biso   1.000  N
  C49      1.0000 0.17833  0.99974  0.14941  Biso   1.000  C
  C50      1.0000 0.82167  0.00026  0.85059  Biso   1.000  C
  O53      1.0000 0.25733  0.76623  0.31071  Biso   1.000  O
  O54      1.0000 0.74267  0.23377  0.68929  Biso   1.000  O
  C51      1.0000 0.18183  0.03632  0.98952  Biso   1.000  C
  C52      1.0000 0.81817  0.96368  0.01048  Biso   1.000  C
  H33      1.0000 0.12500  0.06860  0.00390  Biso   1.000  H
  H34      1.0000 0.87500  0.93140  0.99610  Biso   1.000  H
  C53      1.0000 0.21873  0.99633  0.05511  Biso   1.000  C
  C54      1.0000 0.78127  0.00367  0.94489  Biso   1.000  C
  N3       1.0000 0.29753  0.98303  0.88021  Biso   1.000  N
  N4       1.0000 0.70247  0.01697  0.11979  Biso   1.000  N
  C55      1.0000 0.22003  0.03283  0.90791  Biso   1.000  C
  C56      1.0000 0.77997  0.96717  0.09209  Biso   1.000  C
  H35      1.0000 0.19300  0.06590  0.86680  Biso   1.000  H
  H36      1.0000 0.80700  0.93410  0.13320  Biso   1.000  H
  C57      1.0000 0.23893  0.99852  0.22401  Biso   1.000  C
  C58      1.0000 0.76107  0.00148  0.77599  Biso   1.000  C
  H37      1.0000 0.30740  0.99810  0.21640  Biso   1.000  H
  H38      1.0000 0.69260  0.00190  0.78360  Biso   1.000  H
  C59      1.0000 0.04303  0.01172  0.25401  Biso   1.000  C
  C60      1.0000 0.95697  0.98828  0.74599  Biso   1.000  C
  H39      1.0000 0.97590  0.01850  0.26530  Biso   1.000  H
  H40      1.0000 0.02410  0.98150  0.73470  Biso   1.000  H
  C61      1.0000 0.07943  0.00992  0.16781  Biso   1.000  C
  C62      1.0000 0.92057  0.99008  0.83219  Biso   1.000  C
  H41      1.0000 0.03680  0.01570  0.11850  Biso   1.000  H
  H42      1.0000 0.96320  0.98430  0.88150  Biso   1.000  H
  C63      1.0000 0.20003  0.99794  0.30911  Biso   1.000  C
  C64      1.0000 0.79997  0.00206  0.69089  Biso   1.000  C
  H43      1.0000 0.24080  0.99340  0.36030  Biso   1.000  H
  H44      1.0000 0.75920  0.00660  0.63970  Biso   1.000  H
  C65      1.0000 0.06243  0.00123  0.41270  Biso   1.000  C
  C66      1.0000 0.93757  0.99877  0.58730  Biso   1.000  C
  H45      1.0000 0.03510  0.06160  0.44000  Biso   1.000  H
  H46      1.0000 0.96490  0.93840  0.56000  Biso   1.000  H
  H47      1.0000 0.11450  0.99260  0.45510  Biso   1.000  H
  H48      1.0000 0.88550  0.00740  0.54490  Biso   1.000  H
  H49      1.0000 0.01080  0.94770  0.40440  Biso   1.000  H
  H50      1.0000 0.98920  0.05230  0.59560  Biso   1.000  H
  O55      1.0000 0.45723  0.15754  0.14591  Biso   1.000  O
  O56      1.0000 0.54277  0.84246  0.85409  Biso   1.000  O
  O57      1.0000 0.70949  0.74760  0.86374  Biso   1.000  O
  O58      1.0000 0.29051  0.25240  0.13626  Biso   1.000  O
  O59      1.0000 0.48929  0.93859  0.36924  Biso   1.000  O
  O60      1.0000 0.51071  0.06141  0.63076  Biso   1.000  O
  O61      1.0000 0.66529  0.99820  0.49654  Biso   1.000  O
  O62      1.0000 0.33471  0.00180  0.50346  Biso   1.000  O
  C67      1.0000 0.29319  0.94639  0.02433  Biso   1.000  C
  C68      1.0000 0.70681  0.05361  0.97567  Biso   1.000  C
  H51      1.0000 0.31720  0.91100  0.06480  Biso   1.000  H
  H52      1.0000 0.68280  0.08900  0.93520  Biso   1.000  H
  C69      1.0000 0.33859  0.94059  0.94135  Biso   1.000  C
  C70      1.0000 0.66141  0.05941  0.05865  Biso   1.000  C
  H53      1.0000 0.39570  0.90870  0.92720  Biso   1.000  H
  H54      1.0000 0.60430  0.09130  0.07280  Biso   1.000  H
  C71      1.0000 0.34639  0.98179  0.78814  Biso   1.000  C
  C72      1.0000 0.65361  0.01821  0.21186  Biso   1.000  C
  H55      1.0000 0.41030  0.95760  0.78940  Biso   1.000  H
  H56      1.0000 0.58970  0.04240  0.21060  Biso   1.000  H
  H57      1.0000 0.35520  0.04700  0.77920  Biso   1.000  H
  H58      1.0000 0.64480  0.95300  0.22080  Biso   1.000  H
  H59      1.0000 0.30540  0.94000  0.73600  Biso   1.000  H
  H60      1.0000 0.69460  0.06000  0.26400  Biso   1.000  H
  O63      1.0000 0.80789  0.20408  0.19684  Biso   1.000  O
  O64      1.0000 0.19211  0.79592  0.80316  Biso   1.000  O
  O65      1.0000 0.64508  0.27516  0.18627  Biso   1.000  O
  O66      1.0000 0.35492  0.72484  0.81373  Biso   1.000  O
  O67      1.0000 0.73598  0.33647  0.20167  Biso   1.000  O
  O68      1.0000 0.26402  0.66353  0.79833  Biso   1.000  O
