data_image0
_cell_length_a       11.9337
_cell_length_b       20.108
_cell_length_c       12.748
_cell_angle_alpha    90
_cell_angle_beta     92.247
_cell_angle_gamma    90

_symmetry_space_group_name_H-M    "P 1"
_symmetry_int_tables_number       1

loop_
  _symmetry_equiv_pos_as_xyz
  'x, y, z'

loop_
  _atom_site_label
  _atom_site_occupancy
  _atom_site_fract_x
  _atom_site_fract_y
  _atom_site_fract_z
  _atom_site_thermal_displace_type
  _atom_site_B_iso_or_equiv
  _atom_site_type_symbol
  Cu1      1.0000 0.25055  0.05271  0.24589  Biso   1.000  Cu
  Cu2      1.0000 0.25055  0.44729  0.74589  Biso   1.000  Cu
  Cu3      1.0000 0.74945  0.94729  0.75411  Biso   1.000  Cu
  Cu4      1.0000 0.74945  0.55271  0.25411  Biso   1.000  Cu
  O1       1.0000 0.25270  0.17510  0.24130  Biso   1.000  O
  O2       1.0000 0.25270  0.32490  0.74130  Biso   1.000  O
  O3       1.0000 0.74730  0.82490  0.75870  Biso   1.000  O
  O4       1.0000 0.74730  0.67510  0.25870  Biso   1.000  O
  N1       1.0000 0.23900  0.93370  0.25310  Biso   1.000  N
  N2       1.0000 0.23900  0.56630  0.75310  Biso   1.000  N
  N3       1.0000 0.76100  0.06630  0.74690  Biso   1.000  N
  N4       1.0000 0.76100  0.43370  0.24690  Biso   1.000  N
  C1       1.0000 0.19690  0.88910  0.29000  Biso   1.000  C
  C2       1.0000 0.19690  0.61090  0.79000  Biso   1.000  C
  C3       1.0000 0.80310  0.11090  0.71000  Biso   1.000  C
  C4       1.0000 0.80310  0.38910  0.21000  Biso   1.000  C
  C5       1.0000 0.14150  0.83210  0.33730  Biso   1.000  C
  C6       1.0000 0.14150  0.66790  0.83730  Biso   1.000  C
  C7       1.0000 0.85850  0.16790  0.66270  Biso   1.000  C
  C8       1.0000 0.85850  0.33210  0.16270  Biso   1.000  C
  H1       1.0000 0.06490  0.82800  0.30730  Biso   1.000  H
  H2       1.0000 0.06490  0.67200  0.80730  Biso   1.000  H
  H3       1.0000 0.93510  0.17200  0.69270  Biso   1.000  H
  H4       1.0000 0.93510  0.32800  0.19270  Biso   1.000  H
  H5       1.0000 0.13890  0.83870  0.41340  Biso   1.000  H
  H6       1.0000 0.13890  0.66130  0.91340  Biso   1.000  H
  H7       1.0000 0.86110  0.16130  0.58660  Biso   1.000  H
  H8       1.0000 0.86110  0.33870  0.08660  Biso   1.000  H
  H9       1.0000 0.18350  0.79140  0.32300  Biso   1.000  H
  H10      1.0000 0.18350  0.70860  0.82300  Biso   1.000  H
  H11      1.0000 0.81650  0.20860  0.67700  Biso   1.000  H
  H12      1.0000 0.81650  0.29140  0.17700  Biso   1.000  H
  S1       1.0000 0.53284  0.26930  0.12780  Biso   1.000  S
  S2       1.0000 0.53284  0.23070  0.62780  Biso   1.000  S
  S3       1.0000 0.46716  0.73070  0.87220  Biso   1.000  S
  S4       1.0000 0.46716  0.76930  0.37220  Biso   1.000  S
  O5       1.0000 0.43060  0.25090  0.17310  Biso   1.000  O
  O6       1.0000 0.43060  0.24910  0.67310  Biso   1.000  O
  O7       1.0000 0.56940  0.74910  0.82690  Biso   1.000  O
  O8       1.0000 0.56940  0.75090  0.32690  Biso   1.000  O
  O9       1.0000 0.53510  0.33580  0.08850  Biso   1.000  O
  O10      1.0000 0.53510  0.16420  0.58850  Biso   1.000  O
  O11      1.0000 0.46490  0.66420  0.91150  Biso   1.000  O
  O12      1.0000 0.46490  0.83580  0.41150  Biso   1.000  O
  O13      1.0000 0.63020  0.24740  0.18790  Biso   1.000  O
  O14      1.0000 0.63020  0.25260  0.68790  Biso   1.000  O
  O15      1.0000 0.36980  0.75260  0.81210  Biso   1.000  O
  O16      1.0000 0.36980  0.74740  0.31210  Biso   1.000  O
  C9       1.0000 0.53690  0.21820  0.01310  Biso   1.000  C
  C10      1.0000 0.53690  0.28180  0.51310  Biso   1.000  C
  C11      1.0000 0.46310  0.78180  0.98690  Biso   1.000  C
  C12      1.0000 0.46310  0.71820  0.48690  Biso   1.000  C
  F1       1.0000 0.45570  0.23620  0.94460  Biso   1.000  F
  F2       1.0000 0.45570  0.26380  0.44460  Biso   1.000  F
  F3       1.0000 0.54430  0.76380  0.05540  Biso   1.000  F
  F4       1.0000 0.54430  0.73620  0.55540  Biso   1.000  F
  F5       1.0000 0.52380  0.15480  0.03550  Biso   1.000  F
  F6       1.0000 0.52380  0.34520  0.53550  Biso   1.000  F
  F7       1.0000 0.47620  0.84520  0.96450  Biso   1.000  F
  F8       1.0000 0.47620  0.65480  0.46450  Biso   1.000  F
  F9       1.0000 0.63220  0.22420  0.96560  Biso   1.000  F
  F10      1.0000 0.63220  0.27580  0.46560  Biso   1.000  F
  F11      1.0000 0.36780  0.77580  0.03440  Biso   1.000  F
  F12      1.0000 0.36780  0.72420  0.53440  Biso   1.000  F
  S5       1.0000 0.06065  0.24214  0.43083  Biso   1.000  S
  S6       1.0000 0.06065  0.25786  0.93083  Biso   1.000  S
  S7       1.0000 0.93935  0.75786  0.56917  Biso   1.000  S
  S8       1.0000 0.93935  0.74214  0.06917  Biso   1.000  S
  O17      1.0000 0.07330  0.25260  0.31870  Biso   1.000  O
  O18      1.0000 0.07330  0.24740  0.81870  Biso   1.000  O
  O19      1.0000 0.92670  0.74740  0.68130  Biso   1.000  O
  O20      1.0000 0.92670  0.75260  0.18130  Biso   1.000  O
  O21      1.0000 0.00800  0.18042  0.45590  Biso   1.000  O
  O22      1.0000 0.00800  0.31958  0.95590  Biso   1.000  O
  O23      1.0000 0.99200  0.81958  0.54410  Biso   1.000  O
  O24      1.0000 0.99200  0.68042  0.04410  Biso   1.000  O
  O25      1.0000 0.15780  0.25850  0.49290  Biso   1.000  O
  O26      1.0000 0.15780  0.24150  0.99290  Biso   1.000  O
  O27      1.0000 0.84220  0.74150  0.50710  Biso   1.000  O
  O28      1.0000 0.84220  0.75850  0.00710  Biso   1.000  O
  C13      1.0000 0.95970  0.30470  0.46130  Biso   1.000  C
  C14      1.0000 0.95970  0.19530  0.96130  Biso   1.000  C
  C15      1.0000 0.04030  0.69530  0.53870  Biso   1.000  C
  C16      1.0000 0.04030  0.80470  0.03870  Biso   1.000  C
  F13      1.0000 0.86270  0.29380  0.41190  Biso   1.000  F
  F14      1.0000 0.86270  0.20620  0.91190  Biso   1.000  F
  F15      1.0000 0.13730  0.70620  0.58810  Biso   1.000  F
  F16      1.0000 0.13730  0.79380  0.08810  Biso   1.000  F
  F17      1.0000 0.94300  0.30430  0.56470  Biso   1.000  F
  F18      1.0000 0.94300  0.19570  0.06470  Biso   1.000  F
  F19      1.0000 0.05700  0.69570  0.43530  Biso   1.000  F
  F20      1.0000 0.05700  0.80430  0.93530  Biso   1.000  F
  F21      1.0000 0.99470  0.36474  0.43620  Biso   1.000  F
  F22      1.0000 0.99470  0.13526  0.93620  Biso   1.000  F
  F23      1.0000 0.00530  0.63526  0.56380  Biso   1.000  F
  F24      1.0000 0.00530  0.86474  0.06380  Biso   1.000  F
  N5       1.0000 0.90800  0.07467  0.19690  Biso   1.000  N
  N6       1.0000 0.90800  0.42533  0.69690  Biso   1.000  N
  N7       1.0000 0.09200  0.92533  0.80310  Biso   1.000  N
  N8       1.0000 0.09200  0.57467  0.30310  Biso   1.000  N
  N9       1.0000 0.92400  0.02915  0.11960  Biso   1.000  N
  N10      1.0000 0.92400  0.47085  0.61960  Biso   1.000  N
  N11      1.0000 0.07600  0.97085  0.88040  Biso   1.000  N
  N12      1.0000 0.07600  0.52915  0.38040  Biso   1.000  N
  C17      1.0000 0.03250  0.01910  0.12690  Biso   1.000  C
  C18      1.0000 0.03250  0.48090  0.62690  Biso   1.000  C
  C19      1.0000 0.96750  0.98090  0.87310  Biso   1.000  C
  C20      1.0000 0.96750  0.51910  0.37310  Biso   1.000  C
  N13      1.0000 0.08680  0.05563  0.20200  Biso   1.000  N
  N14      1.0000 0.08680  0.44437  0.70200  Biso   1.000  N
  N15      1.0000 0.91320  0.94437  0.79800  Biso   1.000  N
  N16      1.0000 0.91320  0.55563  0.29800  Biso   1.000  N
  C21      1.0000 0.00540  0.08960  0.24500  Biso   1.000  C
  C22      1.0000 0.00540  0.41040  0.74500  Biso   1.000  C
  C23      1.0000 0.99460  0.91040  0.75500  Biso   1.000  C
  C24      1.0000 0.99460  0.58960  0.25500  Biso   1.000  C
  N17      1.0000 0.57810  0.08677  0.34170  Biso   1.000  N
  N18      1.0000 0.57810  0.41323  0.84170  Biso   1.000  N
  N19      1.0000 0.42190  0.91323  0.65830  Biso   1.000  N
  N20      1.0000 0.42190  0.58677  0.15830  Biso   1.000  N
  N21      1.0000 0.57330  0.02340  0.37920  Biso   1.000  N
  N22      1.0000 0.57330  0.47660  0.87920  Biso   1.000  N
  N23      1.0000 0.42670  0.97660  0.62080  Biso   1.000  N
  N24      1.0000 0.42670  0.52340  0.12080  Biso   1.000  N
  C25      1.0000 0.47270  0.00410  0.34720  Biso   1.000  C
  C26      1.0000 0.47270  0.49590  0.84720  Biso   1.000  C
  C27      1.0000 0.52730  0.99590  0.65280  Biso   1.000  C
  C28      1.0000 0.52730  0.50410  0.15280  Biso   1.000  C
  N25      1.0000 0.41330  0.05156  0.29260  Biso   1.000  N
  N26      1.0000 0.41330  0.44844  0.79260  Biso   1.000  N
  N27      1.0000 0.58670  0.94844  0.70740  Biso   1.000  N
  N28      1.0000 0.58670  0.55156  0.20740  Biso   1.000  N
  C29      1.0000 0.48320  0.10220  0.29080  Biso   1.000  C
  C30      1.0000 0.48320  0.39780  0.79080  Biso   1.000  C
  C31      1.0000 0.51680  0.89780  0.70920  Biso   1.000  C
  C32      1.0000 0.51680  0.60220  0.20920  Biso   1.000  C
  C33      1.0000 0.67200  0.13070  0.36960  Biso   1.000  C
  C34      1.0000 0.67200  0.36930  0.86960  Biso   1.000  C
  C35      1.0000 0.32800  0.86930  0.63040  Biso   1.000  C
  C36      1.0000 0.32800  0.63070  0.13040  Biso   1.000  C
  C37      1.0000 0.78380  0.10250  0.33800  Biso   1.000  C
  C38      1.0000 0.78380  0.39750  0.83800  Biso   1.000  C
  C39      1.0000 0.21620  0.89750  0.66200  Biso   1.000  C
  C40      1.0000 0.21620  0.60250  0.16200  Biso   1.000  C
  C41      1.0000 0.79580  0.09960  0.22080  Biso   1.000  C
  C42      1.0000 0.79580  0.40040  0.72080  Biso   1.000  C
  C43      1.0000 0.20420  0.90040  0.77920  Biso   1.000  C
  C44      1.0000 0.20420  0.59960  0.27920  Biso   1.000  C
  N29      1.0000 0.20390  0.09621  0.55790  Biso   1.000  N
  N30      1.0000 0.20390  0.40379  0.05790  Biso   1.000  N
  N31      1.0000 0.79610  0.90379  0.44210  Biso   1.000  N
  N32      1.0000 0.79610  0.59621  0.94210  Biso   1.000  N
  N33      1.0000 0.12120  0.04990  0.54850  Biso   1.000  N
  N34      1.0000 0.12120  0.45010  0.04850  Biso   1.000  N
  N35      1.0000 0.87880  0.95010  0.45150  Biso   1.000  N
  N36      1.0000 0.87880  0.54990  0.95150  Biso   1.000  N
  C45      1.0000 0.12790  0.02980  0.45070  Biso   1.000  C
  C46      1.0000 0.12790  0.47020  0.95070  Biso   1.000  C
  C47      1.0000 0.87210  0.97020  0.54930  Biso   1.000  C
  C48      1.0000 0.87210  0.52980  0.04930  Biso   1.000  C
  N37      1.0000 0.20960  0.06102  0.39760  Biso   1.000  N
  N38      1.0000 0.20960  0.43898  0.89760  Biso   1.000  N
  N39      1.0000 0.79040  0.93898  0.60240  Biso   1.000  N
  N40      1.0000 0.79040  0.56102  0.10240  Biso   1.000  N
  C49      1.0000 0.25580  0.10240  0.46790  Biso   1.000  C
  C50      1.0000 0.25580  0.39760  0.96790  Biso   1.000  C
  C51      1.0000 0.74420  0.89760  0.53210  Biso   1.000  C
  C52      1.0000 0.74420  0.60240  0.03210  Biso   1.000  C
  C53      1.0000 0.30110  0.12580  0.83800  Biso   1.000  C
  C54      1.0000 0.30110  0.37420  0.33800  Biso   1.000  C
  C55      1.0000 0.69890  0.87420  0.16200  Biso   1.000  C
  C56      1.0000 0.69890  0.62580  0.66200  Biso   1.000  C
  C57      1.0000 0.24200  0.08820  0.74810  Biso   1.000  C
  C58      1.0000 0.24200  0.41180  0.24810  Biso   1.000  C
  C59      1.0000 0.75800  0.91180  0.25190  Biso   1.000  C
  C60      1.0000 0.75800  0.58820  0.75190  Biso   1.000  C
  C61      1.0000 0.22460  0.13370  0.65440  Biso   1.000  C
  C62      1.0000 0.22460  0.36630  0.15440  Biso   1.000  C
  C63      1.0000 0.77540  0.86630  0.34560  Biso   1.000  C
  C64      1.0000 0.77540  0.63370  0.84560  Biso   1.000  C
  N41      1.0000 0.30710  0.08651  0.93420  Biso   1.000  N
  N42      1.0000 0.30710  0.41349  0.43420  Biso   1.000  N
  N43      1.0000 0.69290  0.91349  0.06580  Biso   1.000  N
  N44      1.0000 0.69290  0.58651  0.56580  Biso   1.000  N
  N45      1.0000 0.36490  0.02800  0.94020  Biso   1.000  N
  N46      1.0000 0.36490  0.47200  0.44020  Biso   1.000  N
  N47      1.0000 0.63510  0.97200  0.05980  Biso   1.000  N
  N48      1.0000 0.63510  0.52800  0.55980  Biso   1.000  N
  C65      1.0000 0.35340  0.01000  0.03840  Biso   1.000  C
  C66      1.0000 0.35340  0.49000  0.53840  Biso   1.000  C
  C67      1.0000 0.64660  0.99000  0.96160  Biso   1.000  C
  C68      1.0000 0.64660  0.51000  0.46160  Biso   1.000  C
  N49      1.0000 0.29120  0.05286  0.09430  Biso   1.000  N
  N50      1.0000 0.29120  0.44714  0.59430  Biso   1.000  N
  N51      1.0000 0.70880  0.94714  0.90570  Biso   1.000  N
  N52      1.0000 0.70880  0.55286  0.40570  Biso   1.000  N
  C69      1.0000 0.26460  0.10050  0.02580  Biso   1.000  C
  C70      1.0000 0.26460  0.39950  0.52580  Biso   1.000  C
  C71      1.0000 0.73540  0.89950  0.97420  Biso   1.000  C
  C72      1.0000 0.73540  0.60050  0.47420  Biso   1.000  C
  H13      1.0000 0.29400  0.19300  0.22400  Biso   1.000  H
  H14      1.0000 0.29400  0.30700  0.72400  Biso   1.000  H
  H15      1.0000 0.70600  0.80700  0.77600  Biso   1.000  H
  H16      1.0000 0.70600  0.69300  0.27600  Biso   1.000  H
  H17      1.0000 0.20700  0.19300  0.26100  Biso   1.000  H
  H18      1.0000 0.20700  0.30700  0.76100  Biso   1.000  H
  H19      1.0000 0.79300  0.80700  0.73900  Biso   1.000  H
  H20      1.0000 0.79300  0.69300  0.23900  Biso   1.000  H
  H21      1.0000 0.06510  0.98980  0.08210  Biso   1.000  H
  H22      1.0000 0.06510  0.51020  0.58210  Biso   1.000  H
  H23      1.0000 0.93490  0.01020  0.91790  Biso   1.000  H
  H24      1.0000 0.93490  0.48980  0.41790  Biso   1.000  H
  H25      1.0000 0.01610  0.11700  0.30840  Biso   1.000  H
  H26      1.0000 0.01610  0.38300  0.80840  Biso   1.000  H
  H27      1.0000 0.98390  0.88300  0.69160  Biso   1.000  H
  H28      1.0000 0.98390  0.61700  0.19160  Biso   1.000  H
  H29      1.0000 0.44740  0.96100  0.36060  Biso   1.000  H
  H30      1.0000 0.44740  0.53900  0.86060  Biso   1.000  H
  H31      1.0000 0.55260  0.03900  0.63940  Biso   1.000  H
  H32      1.0000 0.55260  0.46100  0.13940  Biso   1.000  H
  H33      1.0000 0.47960  0.14410  0.26160  Biso   1.000  H
  H34      1.0000 0.47960  0.35590  0.76160  Biso   1.000  H
  H35      1.0000 0.52040  0.85590  0.73840  Biso   1.000  H
  H36      1.0000 0.52040  0.64410  0.23840  Biso   1.000  H
  H37      1.0000 0.65780  0.17340  0.33970  Biso   1.000  H
  H38      1.0000 0.65780  0.32660  0.83970  Biso   1.000  H
  H39      1.0000 0.34220  0.82660  0.66030  Biso   1.000  H
  H40      1.0000 0.34220  0.67340  0.16030  Biso   1.000  H
  H41      1.0000 0.66670  0.14260  0.44480  Biso   1.000  H
  H42      1.0000 0.66670  0.35740  0.94480  Biso   1.000  H
  H43      1.0000 0.33330  0.85740  0.55520  Biso   1.000  H
  H44      1.0000 0.33330  0.64260  0.05520  Biso   1.000  H
  H45      1.0000 0.79310  0.05730  0.36280  Biso   1.000  H
  H46      1.0000 0.79310  0.44270  0.86280  Biso   1.000  H
  H47      1.0000 0.20690  0.94270  0.63720  Biso   1.000  H
  H48      1.0000 0.20690  0.55730  0.13720  Biso   1.000  H
  H49      1.0000 0.84680  0.13390  0.36390  Biso   1.000  H
  H50      1.0000 0.84680  0.36610  0.86390  Biso   1.000  H
  H51      1.0000 0.15320  0.86610  0.63610  Biso   1.000  H
  H52      1.0000 0.15320  0.63390  0.13610  Biso   1.000  H
  H53      1.0000 0.73720  0.07840  0.17820  Biso   1.000  H
  H54      1.0000 0.73720  0.42160  0.67820  Biso   1.000  H
  H55      1.0000 0.26280  0.92160  0.82180  Biso   1.000  H
  H56      1.0000 0.26280  0.57840  0.32180  Biso   1.000  H
  H57      1.0000 0.79970  0.13920  0.18170  Biso   1.000  H
  H58      1.0000 0.79970  0.36080  0.68170  Biso   1.000  H
  H59      1.0000 0.20030  0.86080  0.81830  Biso   1.000  H
  H60      1.0000 0.20030  0.63920  0.31830  Biso   1.000  H
  H61      1.0000 0.08350  0.99710  0.42020  Biso   1.000  H
  H62      1.0000 0.08350  0.50290  0.92020  Biso   1.000  H
  H63      1.0000 0.91650  0.00290  0.57980  Biso   1.000  H
  H64      1.0000 0.91650  0.49710  0.07980  Biso   1.000  H
  H65      1.0000 0.30770  0.13620  0.45760  Biso   1.000  H
  H66      1.0000 0.30770  0.36380  0.95760  Biso   1.000  H
  H67      1.0000 0.69230  0.86380  0.54240  Biso   1.000  H
  H68      1.0000 0.69230  0.63620  0.04240  Biso   1.000  H
  H69      1.0000 0.26510  0.16000  0.84870  Biso   1.000  H
  H70      1.0000 0.26510  0.34000  0.34870  Biso   1.000  H
  H71      1.0000 0.73490  0.84000  0.15130  Biso   1.000  H
  H72      1.0000 0.73490  0.66000  0.65130  Biso   1.000  H
  H73      1.0000 0.38500  0.13540  0.81720  Biso   1.000  H
  H74      1.0000 0.38500  0.36460  0.31720  Biso   1.000  H
  H75      1.0000 0.61500  0.86460  0.18280  Biso   1.000  H
  H76      1.0000 0.61500  0.63540  0.68280  Biso   1.000  H
  H77      1.0000 0.16480  0.06920  0.76840  Biso   1.000  H
  H78      1.0000 0.16480  0.43080  0.26840  Biso   1.000  H
  H79      1.0000 0.83520  0.93080  0.23160  Biso   1.000  H
  H80      1.0000 0.83520  0.56920  0.73160  Biso   1.000  H
  H81      1.0000 0.28390  0.05310  0.72850  Biso   1.000  H
  H82      1.0000 0.28390  0.44690  0.22850  Biso   1.000  H
  H83      1.0000 0.71610  0.94690  0.27150  Biso   1.000  H
  H84      1.0000 0.71610  0.55310  0.77150  Biso   1.000  H
  H85      1.0000 0.17190  0.16550  0.65980  Biso   1.000  H
  H86      1.0000 0.17190  0.33450  0.15980  Biso   1.000  H
  H87      1.0000 0.82810  0.83450  0.34020  Biso   1.000  H
  H88      1.0000 0.82810  0.66550  0.84020  Biso   1.000  H
  H89      1.0000 0.27890  0.16360  0.64370  Biso   1.000  H
  H90      1.0000 0.27890  0.33640  0.14370  Biso   1.000  H
  H91      1.0000 0.72110  0.83640  0.35630  Biso   1.000  H
  H92      1.0000 0.72110  0.66360  0.85630  Biso   1.000  H
  H93      1.0000 0.37300  0.96790  0.05990  Biso   1.000  H
  H94      1.0000 0.37300  0.53210  0.55990  Biso   1.000  H
  H95      1.0000 0.62700  0.03210  0.94010  Biso   1.000  H
  H96      1.0000 0.62700  0.46790  0.44010  Biso   1.000  H
  H97      1.0000 0.22110  0.13560  0.04020  Biso   1.000  H
  H98      1.0000 0.22110  0.36440  0.54020  Biso   1.000  H
  H99      1.0000 0.77890  0.86440  0.95980  Biso   1.000  H
  H100     1.0000 0.77890  0.63560  0.45980  Biso   1.000  H
