data_image0
_cell_length_a       12.7195
_cell_length_b       9.7533
_cell_length_c       14.17
_cell_angle_alpha    90
_cell_angle_beta     115.087
_cell_angle_gamma    90

_symmetry_space_group_name_H-M    "P 1"
_symmetry_int_tables_number       1

loop_
  _symmetry_equiv_pos_as_xyz
  'x, y, z'

loop_
  _atom_site_label
  _atom_site_occupancy
  _atom_site_fract_x
  _atom_site_fract_y
  _atom_site_fract_z
  _atom_site_thermal_displace_type
  _atom_site_B_iso_or_equiv
  _atom_site_type_symbol
  Cu1      1.0000 0.10077  0.24686  0.11605  Biso   1.000  Cu
  Cu2      1.0000 0.89923  0.74686  0.88395  Biso   1.000  Cu
  N1       1.0000 0.06290  0.22450  0.24010  Biso   1.000  N
  N2       1.0000 0.93710  0.72450  0.75990  Biso   1.000  N
  H1       1.0000 0.08730  0.13130  0.26610  Biso   1.000  H
  H2       1.0000 0.91270  0.63130  0.73390  Biso   1.000  H
  N3       1.0000 0.16890  0.22740  0.01170  Biso   1.000  N
  N4       1.0000 0.83110  0.72740  0.98830  Biso   1.000  N
  H3       1.0000 0.24760  0.26540  0.04160  Biso   1.000  H
  H4       1.0000 0.75240  0.76540  0.95840  Biso   1.000  H
  O1       1.0000 0.50910  0.85730  0.35480  Biso   1.000  O
  O2       1.0000 0.49090  0.35730  0.64520  Biso   1.000  O
  H5       1.0000 0.48050  0.78030  0.34240  Biso   1.000  H
  H6       1.0000 0.51950  0.28030  0.65760  Biso   1.000  H
  O3       1.0000 0.26470  0.50380  0.34640  Biso   1.000  O
  O4       1.0000 0.73530  0.00380  0.65360  Biso   1.000  O
  O5       1.0000 0.21020  0.38320  0.20070  Biso   1.000  O
  O6       1.0000 0.78980  0.88320  0.79930  Biso   1.000  O
  O7       1.0000 0.03940  0.89710  0.96330  Biso   1.000  O
  O8       1.0000 0.96060  0.39710  0.03670  Biso   1.000  O
  O9       1.0000 0.01790  0.07980  0.04850  Biso   1.000  O
  O10      1.0000 0.98210  0.57980  0.95150  Biso   1.000  O
  O11      1.0000 0.68830  0.23050  0.06030  Biso   1.000  O
  O12      1.0000 0.31170  0.73050  0.93970  Biso   1.000  O
  H7       1.0000 0.70560  0.18530  0.02030  Biso   1.000  H
  H8       1.0000 0.29440  0.68530  0.97970  Biso   1.000  H
  C1       1.0000 0.59010  0.17760  0.06300  Biso   1.000  C
  C2       1.0000 0.40990  0.67760  0.93700  Biso   1.000  C
  C3       1.0000 0.56470  0.21550  0.14430  Biso   1.000  C
  C4       1.0000 0.43530  0.71550  0.85570  Biso   1.000  C
  H9       1.0000 0.61310  0.27650  0.19430  Biso   1.000  H
  H10      1.0000 0.38690  0.77650  0.80570  Biso   1.000  H
  C5       1.0000 0.46780  0.16390  0.15260  Biso   1.000  C
  C6       1.0000 0.53220  0.66390  0.84740  Biso   1.000  C
  H11      1.0000 0.45230  0.18970  0.20860  Biso   1.000  H
  H12      1.0000 0.54770  0.68970  0.79140  Biso   1.000  H
  C7       1.0000 0.39430  0.07520  0.07950  Biso   1.000  C
  C8       1.0000 0.60570  0.57520  0.92050  Biso   1.000  C
  C9       1.0000 0.41990  0.03880  0.99710  Biso   1.000  C
  C10      1.0000 0.58010  0.53880  0.00290  Biso   1.000  C
  H13      1.0000 0.37100  0.97890  0.94650  Biso   1.000  H
  H14      1.0000 0.62900  0.47890  0.05350  Biso   1.000  H
  C11      1.0000 0.51650  0.08970  0.98870  Biso   1.000  C
  C12      1.0000 0.48350  0.58970  0.01130  Biso   1.000  C
  H15      1.0000 0.53190  0.06450  0.93260  Biso   1.000  H
  H16      1.0000 0.46810  0.56450  0.06740  Biso   1.000  H
  C13      1.0000 0.28640  0.01920  0.08600  Biso   1.000  C
  C14      1.0000 0.71360  0.51920  0.91400  Biso   1.000  C
  H17      1.0000 0.28800  0.04290  0.15310  Biso   1.000  H
  H18      1.0000 0.71200  0.54290  0.84690  Biso   1.000  H
  H19      1.0000 0.28610  0.92000  0.08090  Biso   1.000  H
  H20      1.0000 0.71390  0.42000  0.91910  Biso   1.000  H
  C15      1.0000 0.17560  0.07640  0.99910  Biso   1.000  C
  C16      1.0000 0.82440  0.57640  0.00090  Biso   1.000  C
  H21      1.0000 0.17650  0.05740  0.93160  Biso   1.000  H
  H22      1.0000 0.82350  0.55740  0.06840  Biso   1.000  H
  C17      1.0000 0.06860  0.01080  0.00210  Biso   1.000  C
  C18      1.0000 0.93140  0.51080  0.99790  Biso   1.000  C
  C19      1.0000 0.09990  0.29560  0.91060  Biso   1.000  C
  C20      1.0000 0.90010  0.79560  0.08940  Biso   1.000  C
  H23      1.0000 0.09030  0.39160  0.92320  Biso   1.000  H
  H24      1.0000 0.90970  0.89160  0.07680  Biso   1.000  H
  H25      1.0000 0.02340  0.25440  0.87930  Biso   1.000  H
  H26      1.0000 0.97660  0.75440  0.12070  Biso   1.000  H
  C21      1.0000 0.15460  0.28600  0.83450  Biso   1.000  C
  C22      1.0000 0.84540  0.78600  0.16550  Biso   1.000  C
  C23      1.0000 0.26170  0.34320  0.85920  Biso   1.000  C
  C24      1.0000 0.73830  0.84320  0.14080  Biso   1.000  C
  H27      1.0000 0.29940  0.38830  0.92250  Biso   1.000  H
  H28      1.0000 0.70060  0.88830  0.07750  Biso   1.000  H
  C25      1.0000 0.31470  0.33550  0.79230  Biso   1.000  C
  C26      1.0000 0.68530  0.83550  0.20770  Biso   1.000  C
  H29      1.0000 0.38710  0.37530  0.81010  Biso   1.000  H
  H30      1.0000 0.61290  0.87530  0.18990  Biso   1.000  H
  C27      1.0000 0.25970  0.26860  0.69960  Biso   1.000  C
  C28      1.0000 0.74030  0.76860  0.30040  Biso   1.000  C
  H31      1.0000 0.29570  0.26080  0.65480  Biso   1.000  H
  H32      1.0000 0.70430  0.76080  0.34520  Biso   1.000  H
  C29      1.0000 0.15270  0.21340  0.67220  Biso   1.000  C
  C30      1.0000 0.84730  0.71340  0.32780  Biso   1.000  C
  H33      1.0000 0.11450  0.17110  0.60770  Biso   1.000  H
  H34      1.0000 0.88550  0.67110  0.39230  Biso   1.000  H
  C31      1.0000 0.09990  0.22000  0.74070  Biso   1.000  C
  C32      1.0000 0.90010  0.72000  0.25930  Biso   1.000  C
  H35      1.0000 0.02770  0.17970  0.72280  Biso   1.000  H
  H36      1.0000 0.97230  0.67970  0.27720  Biso   1.000  H
  C33      1.0000 0.43650  0.94340  0.37310  Biso   1.000  C
  C34      1.0000 0.56350  0.44340  0.62690  Biso   1.000  C
  C35      1.0000 0.47390  0.07600  0.40150  Biso   1.000  C
  C36      1.0000 0.52610  0.57600  0.59850  Biso   1.000  C
  H37      1.0000 0.54750  0.10220  0.40950  Biso   1.000  H
  H38      1.0000 0.45250  0.60220  0.59050  Biso   1.000  H
  C37      1.0000 0.40180  0.17060  0.41810  Biso   1.000  C
  C38      1.0000 0.59820  0.67060  0.58190  Biso   1.000  C
  H39      1.0000 0.42820  0.25990  0.43670  Biso   1.000  H
  H40      1.0000 0.57180  0.75990  0.56330  Biso   1.000  H
  C39      1.0000 0.29200  0.13600  0.40790  Biso   1.000  C
  C40      1.0000 0.70800  0.63600  0.59210  Biso   1.000  C
  C41      1.0000 0.25770  0.99970  0.38330  Biso   1.000  C
  C42      1.0000 0.74230  0.49970  0.61670  Biso   1.000  C
  H41      1.0000 0.18610  0.97210  0.37970  Biso   1.000  H
  H42      1.0000 0.81390  0.47210  0.62030  Biso   1.000  H
  C43      1.0000 0.32660  0.90480  0.36420  Biso   1.000  C
  C44      1.0000 0.67340  0.40480  0.63580  Biso   1.000  C
  H43      1.0000 0.30030  0.81550  0.34540  Biso   1.000  H
  H44      1.0000 0.69970  0.31550  0.65460  Biso   1.000  H
  C45      1.0000 0.21410  0.24000  0.42390  Biso   1.000  C
  C46      1.0000 0.78590  0.74000  0.57610  Biso   1.000  C
  H45      1.0000 0.26170  0.30560  0.47610  Biso   1.000  H
  H46      1.0000 0.73830  0.80560  0.52390  Biso   1.000  H
  H47      1.0000 0.16500  0.19390  0.45090  Biso   1.000  H
  H48      1.0000 0.83500  0.69390  0.54910  Biso   1.000  H
  C47      1.0000 0.13710  0.31780  0.32480  Biso   1.000  C
  C48      1.0000 0.86290  0.81780  0.67520  Biso   1.000  C
  H49      1.0000 0.08540  0.37690  0.34210  Biso   1.000  H
  H50      1.0000 0.91460  0.87690  0.65790  Biso   1.000  H
  C49      1.0000 0.20900  0.41030  0.28850  Biso   1.000  C
  C50      1.0000 0.79100  0.91030  0.71150  Biso   1.000  C
  C51      1.0000 0.93750  0.23130  0.21380  Biso   1.000  C
  C52      1.0000 0.06250  0.73130  0.78620  Biso   1.000  C
  H51      1.0000 0.89840  0.15980  0.16340  Biso   1.000  H
  H52      1.0000 0.10160  0.65980  0.83660  Biso   1.000  H
  H53      1.0000 0.90800  0.31860  0.18030  Biso   1.000  H
  H54      1.0000 0.09200  0.81860  0.81970  Biso   1.000  H
  C53      1.0000 0.90520  0.21580  0.30500  Biso   1.000  C
  C54      1.0000 0.09480  0.71580  0.69500  Biso   1.000  C
  C55      1.0000 0.91290  0.09140  0.35310  Biso   1.000  C
  C56      1.0000 0.08710  0.59140  0.64690  Biso   1.000  C
  H55      1.0000 0.94170  0.01540  0.33210  Biso   1.000  H
  H56      1.0000 0.05830  0.51540  0.66790  Biso   1.000  H
  C57      1.0000 0.87750  0.07880  0.43380  Biso   1.000  C
  C58      1.0000 0.12250  0.57880  0.56620  Biso   1.000  C
  H57      1.0000 0.88270  0.99400  0.46550  Biso   1.000  H
  H58      1.0000 0.11730  0.49400  0.53450  Biso   1.000  H
  C59      1.0000 0.83580  0.18810  0.46660  Biso   1.000  C
  C60      1.0000 0.16420  0.68810  0.53340  Biso   1.000  C
  H59      1.0000 0.81270  0.17890  0.52040  Biso   1.000  H
  H60      1.0000 0.18730  0.67890  0.47960  Biso   1.000  H
  C61      1.0000 0.82830  0.31300  0.41870  Biso   1.000  C
  C62      1.0000 0.17170  0.81300  0.58130  Biso   1.000  C
  H61      1.0000 0.79930  0.38870  0.43990  Biso   1.000  H
  H62      1.0000 0.20070  0.88870  0.56010  Biso   1.000  H
  C63      1.0000 0.86380  0.32660  0.33830  Biso   1.000  C
  C64      1.0000 0.13620  0.82660  0.66170  Biso   1.000  C
  H63      1.0000 0.85930  0.41170  0.30710  Biso   1.000  H
  H64      1.0000 0.14070  0.91170  0.69290  Biso   1.000  H
  O13      1.0000 0.42500  0.60610  0.29130  Biso   1.000  O
  O14      1.0000 0.57500  0.10610  0.70870  Biso   1.000  O
  H65      1.0000 0.38080  0.58250  0.31670  Biso   1.000  H
  H66      1.0000 0.61920  0.08250  0.68330  Biso   1.000  H
  C65      1.0000 0.51130  0.50600  0.31220  Biso   1.000  C
  C66      1.0000 0.48870  0.00600  0.68780  Biso   1.000  C
  H67      1.0000 0.55980  0.53030  0.27820  Biso   1.000  H
  H68      1.0000 0.44020  0.03030  0.72180  Biso   1.000  H
  H69      1.0000 0.47560  0.41880  0.28680  Biso   1.000  H
  H70      1.0000 0.52440  0.91880  0.71320  Biso   1.000  H
  H71      1.0000 0.55760  0.50040  0.38600  Biso   1.000  H
  H72      1.0000 0.44240  0.00040  0.61400  Biso   1.000  H
  O15      1.0000 0.76060  0.10470  0.93270  Biso   1.000  O
  O16      1.0000 0.23940  0.60470  0.06730  Biso   1.000  O
  H73      1.0000 0.72100  0.11100  0.87600  Biso   1.000  H
  H74      1.0000 0.27900  0.61100  0.12400  Biso   1.000  H
  H75      1.0000 0.83300  0.08500  0.95000  Biso   1.000  H
  H76      1.0000 0.16700  0.58500  0.05000  Biso   1.000  H
