data_image0
_cell_length_a       10.2891
_cell_length_b       9.0692
_cell_length_c       14.9871
_cell_angle_alpha    90
_cell_angle_beta     91.668
_cell_angle_gamma    90

_symmetry_space_group_name_H-M    "P 1"
_symmetry_int_tables_number       1

loop_
  _symmetry_equiv_pos_as_xyz
  'x, y, z'

loop_
  _atom_site_label
  _atom_site_occupancy
  _atom_site_fract_x
  _atom_site_fract_y
  _atom_site_fract_z
  _atom_site_thermal_displace_type
  _atom_site_B_iso_or_equiv
  _atom_site_type_symbol
  Cu1      1.0000 0.89882  0.92744  0.18734  Biso   1.000  Cu
  Cu2      1.0000 0.10118  0.42744  0.81266  Biso   1.000  Cu
  S1       1.0000 0.88480  0.88450  0.42398  Biso   1.000  S
  S2       1.0000 0.11520  0.38450  0.57602  Biso   1.000  S
  S3       1.0000 0.13610  0.70720  0.27844  Biso   1.000  S
  S4       1.0000 0.86390  0.20720  0.72156  Biso   1.000  S
  O1       1.0000 0.89660  0.54330  0.06600  Biso   1.000  O
  O2       1.0000 0.10340  0.04330  0.93400  Biso   1.000  O
  O3       1.0000 0.93940  0.77240  0.10470  Biso   1.000  O
  O4       1.0000 0.06060  0.27240  0.89530  Biso   1.000  O
  O5       1.0000 0.27640  0.55130  0.92780  Biso   1.000  O
  O6       1.0000 0.72360  0.05130  0.07220  Biso   1.000  O
  H1       1.0000 0.21790  0.60620  0.94320  Biso   1.000  H
  H2       1.0000 0.78210  0.10620  0.05680  Biso   1.000  H
  O7       1.0000 0.85040  0.09700  0.25290  Biso   1.000  O
  O8       1.0000 0.14960  0.59700  0.74710  Biso   1.000  O
  O9       1.0000 0.91360  0.32040  0.29330  Biso   1.000  O
  O10      1.0000 0.08640  0.82040  0.70670  Biso   1.000  O
  O11      1.0000 0.65980  0.24040  0.37700  Biso   1.000  O
  O12      1.0000 0.34020  0.74040  0.62300  Biso   1.000  O
  H3       1.0000 0.72700  0.22200  0.34800  Biso   1.000  H
  H4       1.0000 0.27300  0.72200  0.65200  Biso   1.000  H
  N1       1.0000 0.74740  0.79470  0.21440  Biso   1.000  N
  N2       1.0000 0.25260  0.29470  0.78560  Biso   1.000  N
  H5       1.0000 0.68030  0.81700  0.16860  Biso   1.000  H
  H6       1.0000 0.31970  0.31700  0.83140  Biso   1.000  H
  N3       1.0000 0.06480  0.03550  0.16920  Biso   1.000  N
  N4       1.0000 0.93520  0.53550  0.83080  Biso   1.000  N
  H7       1.0000 0.05490  0.08300  0.11070  Biso   1.000  H
  H8       1.0000 0.94510  0.58300  0.88930  Biso   1.000  H
  C1       1.0000 0.68250  0.81390  0.30250  Biso   1.000  C
  C2       1.0000 0.31750  0.31390  0.69750  Biso   1.000  C
  H9       1.0000 0.65800  0.91640  0.30950  Biso   1.000  H
  H10      1.0000 0.34200  0.41640  0.69050  Biso   1.000  H
  H11      1.0000 0.60380  0.75500  0.30260  Biso   1.000  H
  H12      1.0000 0.39620  0.25500  0.69740  Biso   1.000  H
  C3       1.0000 0.76870  0.76940  0.37890  Biso   1.000  C
  C4       1.0000 0.23130  0.26940  0.62110  Biso   1.000  C
  C5       1.0000 0.93610  0.75570  0.49900  Biso   1.000  C
  C6       1.0000 0.06390  0.25570  0.50100  Biso   1.000  C
  H13      1.0000 0.00330  0.77080  0.54090  Biso   1.000  H
  H14      1.0000 0.99670  0.27080  0.45910  Biso   1.000  H
  C7       1.0000 0.86940  0.63070  0.49130  Biso   1.000  C
  C8       1.0000 0.13060  0.13070  0.50870  Biso   1.000  C
  H15      1.0000 0.88560  0.54900  0.52740  Biso   1.000  H
  H16      1.0000 0.11440  0.04900  0.47260  Biso   1.000  H
  C9       1.0000 0.77020  0.63350  0.42230  Biso   1.000  C
  C10      1.0000 0.22980  0.13350  0.57770  Biso   1.000  C
  H17      1.0000 0.71460  0.55550  0.40830  Biso   1.000  H
  H18      1.0000 0.28540  0.05550  0.59170  Biso   1.000  H
  C11      1.0000 0.79160  0.64220  0.19510  Biso   1.000  C
  C12      1.0000 0.20840  0.14220  0.80490  Biso   1.000  C
  H19      1.0000 0.84830  0.61430  0.24600  Biso   1.000  H
  H20      1.0000 0.15170  0.11430  0.75400  Biso   1.000  H
  C13      1.0000 0.87980  0.64970  0.11540  Biso   1.000  C
  C14      1.0000 0.12020  0.14970  0.88460  Biso   1.000  C
  C15      1.0000 0.68620  0.52390  0.18960  Biso   1.000  C
  C16      1.0000 0.31380  0.02390  0.81040  Biso   1.000  C
  H21      1.0000 0.72840  0.42980  0.18010  Biso   1.000  H
  H22      1.0000 0.27160  0.92980  0.81990  Biso   1.000  H
  H23      1.0000 0.64600  0.51890  0.24730  Biso   1.000  H
  H24      1.0000 0.35400  0.01890  0.75270  Biso   1.000  H
  C17      1.0000 0.57950  0.54060  0.11940  Biso   1.000  C
  C18      1.0000 0.42050  0.04060  0.88060  Biso   1.000  C
  C19      1.0000 0.59100  0.48160  0.03440  Biso   1.000  C
  C20      1.0000 0.40900  0.98160  0.96560  Biso   1.000  C
  H25      1.0000 0.66930  0.43890  0.01880  Biso   1.000  H
  H26      1.0000 0.33070  0.93890  0.98120  Biso   1.000  H
  C21      1.0000 0.48850  0.48470  0.97210  Biso   1.000  C
  C22      1.0000 0.51150  0.98470  0.02790  Biso   1.000  C
  H27      1.0000 0.49830  0.44250  0.91620  Biso   1.000  H
  H28      1.0000 0.50170  0.94250  0.08380  Biso   1.000  H
  C23      1.0000 0.37350  0.54940  0.99260  Biso   1.000  C
  C24      1.0000 0.62650  0.04940  0.00740  Biso   1.000  C
  C25      1.0000 0.35840  0.60850  0.07680  Biso   1.000  C
  C26      1.0000 0.64160  0.10850  0.92320  Biso   1.000  C
  H29      1.0000 0.28000  0.65170  0.09180  Biso   1.000  H
  H30      1.0000 0.72000  0.15170  0.90820  Biso   1.000  H
  C27      1.0000 0.46110  0.60280  0.13860  Biso   1.000  C
  C28      1.0000 0.53890  0.10280  0.86140  Biso   1.000  C
  H31      1.0000 0.44980  0.64220  0.19510  Biso   1.000  H
  H32      1.0000 0.55020  0.14220  0.80490  Biso   1.000  H
  C29      1.0000 0.93680  0.20040  0.26150  Biso   1.000  C
  C30      1.0000 0.06320  0.70040  0.73850  Biso   1.000  C
  C31      1.0000 0.07350  0.15790  0.23530  Biso   1.000  C
  C32      1.0000 0.92650  0.65790  0.76470  Biso   1.000  C
  H33      1.0000 0.11520  0.11570  0.28910  Biso   1.000  H
  H34      1.0000 0.88480  0.61570  0.71090  Biso   1.000  H
  C33      1.0000 0.18540  0.94360  0.16490  Biso   1.000  C
  C34      1.0000 0.81460  0.44360  0.83510  Biso   1.000  C
  H35      1.0000 0.17440  0.87220  0.11720  Biso   1.000  H
  H36      1.0000 0.82560  0.37220  0.88280  Biso   1.000  H
  H37      1.0000 0.25780  0.00690  0.15040  Biso   1.000  H
  H38      1.0000 0.74220  0.50690  0.84960  Biso   1.000  H
  C35      1.0000 0.21780  0.86390  0.24970  Biso   1.000  C
  C36      1.0000 0.78220  0.36390  0.75030  Biso   1.000  C
  C37      1.0000 0.22360  0.69210  0.37550  Biso   1.000  C
  C38      1.0000 0.77640  0.19210  0.62450  Biso   1.000  C
  H39      1.0000 0.21190  0.61700  0.41680  Biso   1.000  H
  H40      1.0000 0.78810  0.11700  0.58320  Biso   1.000  H
  C39      1.0000 0.31170  0.80050  0.38640  Biso   1.000  C
  C40      1.0000 0.68830  0.30050  0.61360  Biso   1.000  C
  H41      1.0000 0.36800  0.80880  0.43580  Biso   1.000  H
  H42      1.0000 0.63200  0.30880  0.56420  Biso   1.000  H
  C41      1.0000 0.30890  0.89950  0.31470  Biso   1.000  C
  C42      1.0000 0.69110  0.39950  0.68530  Biso   1.000  C
  H43      1.0000 0.36340  0.98100  0.31160  Biso   1.000  H
  H44      1.0000 0.63660  0.48100  0.68840  Biso   1.000  H
  C43      1.0000 0.16250  0.28780  0.20700  Biso   1.000  C
  C44      1.0000 0.83750  0.78780  0.79300  Biso   1.000  C
  H45      1.0000 0.16950  0.28680  0.14260  Biso   1.000  H
  H46      1.0000 0.83050  0.78680  0.85740  Biso   1.000  H
  H47      1.0000 0.12210  0.38020  0.22340  Biso   1.000  H
  H48      1.0000 0.87790  0.88020  0.77660  Biso   1.000  H
  C45      1.0000 0.29810  0.28070  0.24980  Biso   1.000  C
  C46      1.0000 0.70190  0.78070  0.75020  Biso   1.000  C
  C47      1.0000 0.40470  0.24230  0.20200  Biso   1.000  C
  C48      1.0000 0.59530  0.74230  0.79800  Biso   1.000  C
  H49      1.0000 0.39510  0.22650  0.14080  Biso   1.000  H
  H50      1.0000 0.60490  0.72650  0.85920  Biso   1.000  H
  C49      1.0000 0.52690  0.22640  0.24310  Biso   1.000  C
  C50      1.0000 0.47310  0.72640  0.75690  Biso   1.000  C
  H51      1.0000 0.59760  0.19830  0.20970  Biso   1.000  H
  H52      1.0000 0.40240  0.69830  0.79030  Biso   1.000  H
  C51      1.0000 0.54290  0.25220  0.33230  Biso   1.000  C
  C52      1.0000 0.45710  0.75220  0.66770  Biso   1.000  C
  C53      1.0000 0.43670  0.29260  0.38060  Biso   1.000  C
  C54      1.0000 0.56330  0.79260  0.61940  Biso   1.000  C
  H53      1.0000 0.44630  0.31140  0.44140  Biso   1.000  H
  H54      1.0000 0.55370  0.81140  0.55860  Biso   1.000  H
  C55      1.0000 0.31590  0.30510  0.33860  Biso   1.000  C
  C56      1.0000 0.68410  0.80510  0.66140  Biso   1.000  C
  H55      1.0000 0.24480  0.33110  0.37210  Biso   1.000  H
  H56      1.0000 0.75520  0.83110  0.62790  Biso   1.000  H
  O13      1.0000 0.91560  0.24450  0.04860  Biso   1.000  O
  O14      1.0000 0.08440  0.74450  0.95140  Biso   1.000  O
  H57      1.0000 0.91300  0.33500  0.06300  Biso   1.000  H
  H58      1.0000 0.08700  0.83500  0.93700  Biso   1.000  H
  H59      1.0000 0.95200  0.23900  0.99800  Biso   1.000  H
  H60      1.0000 0.04800  0.73900  0.00200  Biso   1.000  H
