data_image0
_cell_length_a       9.2543
_cell_length_b       10.038
_cell_length_c       23.8749
_cell_angle_alpha    90
_cell_angle_beta     90
_cell_angle_gamma    90

_symmetry_space_group_name_H-M    "P 1"
_symmetry_int_tables_number       1

loop_
  _symmetry_equiv_pos_as_xyz
  'x, y, z'

loop_
  _atom_site_label
  _atom_site_occupancy
  _atom_site_fract_x
  _atom_site_fract_y
  _atom_site_fract_z
  _atom_site_thermal_displace_type
  _atom_site_B_iso_or_equiv
  _atom_site_type_symbol
  Cu1      1.0000 0.54361  0.89465  0.98754  Biso   1.000  Cu
  Cu2      1.0000 0.95639  0.10535  0.48754  Biso   1.000  Cu
  Cu3      1.0000 0.45639  0.39465  0.51246  Biso   1.000  Cu
  Cu4      1.0000 0.04361  0.60535  0.01246  Biso   1.000  Cu
  O1       1.0000 0.52670  0.25140  0.93756  Biso   1.000  O
  O2       1.0000 0.97330  0.74860  0.43756  Biso   1.000  O
  O3       1.0000 0.47330  0.75140  0.56244  Biso   1.000  O
  O4       1.0000 0.02670  0.24860  0.06244  Biso   1.000  O
  H1       1.0000 0.50810  0.33100  0.93470  Biso   1.000  H
  H2       1.0000 0.99190  0.66900  0.43470  Biso   1.000  H
  H3       1.0000 0.49190  0.83100  0.56530  Biso   1.000  H
  H4       1.0000 0.00810  0.16900  0.06530  Biso   1.000  H
  O5       1.0000 0.72430  0.99210  0.98475  Biso   1.000  O
  O6       1.0000 0.77570  0.00790  0.48475  Biso   1.000  O
  O7       1.0000 0.27570  0.49210  0.51525  Biso   1.000  O
  O8       1.0000 0.22430  0.50790  0.01525  Biso   1.000  O
  O9       1.0000 0.85750  0.12900  0.93187  Biso   1.000  O
  O10      1.0000 0.64250  0.87100  0.43187  Biso   1.000  O
  O11      1.0000 0.14250  0.62900  0.56813  Biso   1.000  O
  O12      1.0000 0.35750  0.37100  0.06813  Biso   1.000  O
  O13      1.0000 0.35610  0.80190  0.99014  Biso   1.000  O
  O14      1.0000 0.14390  0.19810  0.49014  Biso   1.000  O
  O15      1.0000 0.64390  0.30190  0.50986  Biso   1.000  O
  O16      1.0000 0.85610  0.69810  0.00986  Biso   1.000  O
  O17      1.0000 0.36790  0.09440  0.02387  Biso   1.000  O
  O18      1.0000 0.13210  0.90560  0.52387  Biso   1.000  O
  O19      1.0000 0.63210  0.59440  0.47613  Biso   1.000  O
  O20      1.0000 0.86790  0.40560  0.97613  Biso   1.000  O
  H5       1.0000 0.38750  0.17400  0.02540  Biso   1.000  H
  H6       1.0000 0.11250  0.82600  0.52540  Biso   1.000  H
  H7       1.0000 0.61250  0.67400  0.47460  Biso   1.000  H
  H8       1.0000 0.88750  0.32600  0.97460  Biso   1.000  H
  O21      1.0000 0.16050  0.79420  0.04452  Biso   1.000  O
  O22      1.0000 0.33950  0.20580  0.54452  Biso   1.000  O
  O23      1.0000 0.83950  0.29420  0.45548  Biso   1.000  O
  O24      1.0000 0.66050  0.70580  0.95548  Biso   1.000  O
  N1       1.0000 0.50900  0.97060  0.91086  Biso   1.000  N
  N2       1.0000 0.99100  0.02940  0.41086  Biso   1.000  N
  N3       1.0000 0.49100  0.47060  0.58914  Biso   1.000  N
  N4       1.0000 0.00900  0.52940  0.08914  Biso   1.000  N
  H9       1.0000 0.42230  0.02610  0.91370  Biso   1.000  H
  H10      1.0000 0.07770  0.97390  0.41370  Biso   1.000  H
  H11      1.0000 0.57770  0.52610  0.58630  Biso   1.000  H
  H12      1.0000 0.92230  0.47390  0.08630  Biso   1.000  H
  N5       1.0000 0.52860  0.87890  0.07148  Biso   1.000  N
  N6       1.0000 0.97140  0.12110  0.57148  Biso   1.000  N
  N7       1.0000 0.47140  0.37890  0.42852  Biso   1.000  N
  N8       1.0000 0.02860  0.62110  0.92852  Biso   1.000  N
  H13      1.0000 0.58260  0.95190  0.08900  Biso   1.000  H
  H14      1.0000 0.91740  0.04810  0.58900  Biso   1.000  H
  H15      1.0000 0.41740  0.45190  0.41100  Biso   1.000  H
  H16      1.0000 0.08260  0.54810  0.91100  Biso   1.000  H
  C1       1.0000 0.47840  0.86890  0.86693  Biso   1.000  C
  C2       1.0000 0.02160  0.13110  0.36693  Biso   1.000  C
  C3       1.0000 0.52160  0.36890  0.63307  Biso   1.000  C
  C4       1.0000 0.97840  0.63110  0.13307  Biso   1.000  C
  H17      1.0000 0.39590  0.81630  0.87870  Biso   1.000  H
  H18      1.0000 0.10410  0.18370  0.37870  Biso   1.000  H
  H19      1.0000 0.60410  0.31630  0.62130  Biso   1.000  H
  H20      1.0000 0.89590  0.68370  0.12130  Biso   1.000  H
  H21      1.0000 0.56070  0.80930  0.86430  Biso   1.000  H
  H22      1.0000 0.93930  0.19070  0.36430  Biso   1.000  H
  H23      1.0000 0.43930  0.30930  0.63570  Biso   1.000  H
  H24      1.0000 0.06070  0.69070  0.13570  Biso   1.000  H
  C5       1.0000 0.44790  0.92490  0.80957  Biso   1.000  C
  C6       1.0000 0.05210  0.07510  0.30957  Biso   1.000  C
  C7       1.0000 0.55210  0.42490  0.69043  Biso   1.000  C
  C8       1.0000 0.94790  0.57510  0.19043  Biso   1.000  C
  C9       1.0000 0.54300  0.90100  0.76623  Biso   1.000  C
  C10      1.0000 0.95700  0.09900  0.26623  Biso   1.000  C
  C11      1.0000 0.45700  0.40100  0.73377  Biso   1.000  C
  C12      1.0000 0.04300  0.59900  0.23377  Biso   1.000  C
  H25      1.0000 0.62470  0.84930  0.77260  Biso   1.000  H
  H26      1.0000 0.87530  0.15070  0.27260  Biso   1.000  H
  H27      1.0000 0.37530  0.34930  0.72740  Biso   1.000  H
  H28      1.0000 0.12470  0.65070  0.22740  Biso   1.000  H
  C13      1.0000 0.51800  0.95300  0.71330  Biso   1.000  C
  C14      1.0000 0.98200  0.04700  0.21330  Biso   1.000  C
  C15      1.0000 0.48200  0.45300  0.78670  Biso   1.000  C
  C16      1.0000 0.01800  0.54700  0.28670  Biso   1.000  C
  H29      1.0000 0.58240  0.93530  0.68430  Biso   1.000  H
  H30      1.0000 0.91760  0.06470  0.18430  Biso   1.000  H
  H31      1.0000 0.41760  0.43530  0.81570  Biso   1.000  H
  H32      1.0000 0.08240  0.56470  0.31570  Biso   1.000  H
  C17      1.0000 0.39880  0.03040  0.70360  Biso   1.000  C
  C18      1.0000 0.10120  0.96960  0.20360  Biso   1.000  C
  C19      1.0000 0.60120  0.53040  0.79640  Biso   1.000  C
  C20      1.0000 0.89880  0.46960  0.29640  Biso   1.000  C
  H33      1.0000 0.38310  0.06690  0.66830  Biso   1.000  H
  H34      1.0000 0.11690  0.93310  0.16830  Biso   1.000  H
  H35      1.0000 0.61690  0.56690  0.83170  Biso   1.000  H
  H36      1.0000 0.88310  0.43310  0.33170  Biso   1.000  H
  C21      1.0000 0.30240  0.05400  0.74620  Biso   1.000  C
  C22      1.0000 0.19760  0.94600  0.24620  Biso   1.000  C
  C23      1.0000 0.69760  0.55400  0.75380  Biso   1.000  C
  C24      1.0000 0.80240  0.44600  0.25380  Biso   1.000  C
  H37      1.0000 0.22010  0.10470  0.73940  Biso   1.000  H
  H38      1.0000 0.27990  0.89530  0.23940  Biso   1.000  H
  H39      1.0000 0.77990  0.60470  0.76060  Biso   1.000  H
  H40      1.0000 0.72010  0.39530  0.26060  Biso   1.000  H
  C25      1.0000 0.32720  0.00230  0.79930  Biso   1.000  C
  C26      1.0000 0.17280  0.99770  0.29930  Biso   1.000  C
  C27      1.0000 0.67280  0.50230  0.70070  Biso   1.000  C
  C28      1.0000 0.82720  0.49770  0.20070  Biso   1.000  C
  H41      1.0000 0.26220  0.02000  0.82810  Biso   1.000  H
  H42      1.0000 0.23780  0.98000  0.32810  Biso   1.000  H
  H43      1.0000 0.73780  0.52000  0.67190  Biso   1.000  H
  H44      1.0000 0.76220  0.48000  0.17190  Biso   1.000  H
  C29      1.0000 0.63040  0.06220  0.89579  Biso   1.000  C
  C30      1.0000 0.86960  0.93780  0.39579  Biso   1.000  C
  C31      1.0000 0.36960  0.56220  0.60421  Biso   1.000  C
  C32      1.0000 0.13040  0.43780  0.10421  Biso   1.000  C
  H45      1.0000 0.67400  0.02940  0.86100  Biso   1.000  H
  H46      1.0000 0.82600  0.97060  0.36100  Biso   1.000  H
  H47      1.0000 0.32600  0.52940  0.63900  Biso   1.000  H
  H48      1.0000 0.17400  0.47060  0.13900  Biso   1.000  H
  C33      1.0000 0.57860  0.20280  0.88550  Biso   1.000  C
  C34      1.0000 0.92140  0.79720  0.38550  Biso   1.000  C
  C35      1.0000 0.42140  0.70280  0.61450  Biso   1.000  C
  C36      1.0000 0.07860  0.29720  0.11450  Biso   1.000  C
  H49      1.0000 0.65730  0.25790  0.87200  Biso   1.000  H
  H50      1.0000 0.84270  0.74210  0.37200  Biso   1.000  H
  H51      1.0000 0.34270  0.75790  0.62800  Biso   1.000  H
  H52      1.0000 0.15730  0.24210  0.12800  Biso   1.000  H
  H53      1.0000 0.50200  0.20330  0.85780  Biso   1.000  H
  H54      1.0000 0.99800  0.79670  0.35780  Biso   1.000  H
  H55      1.0000 0.49800  0.70330  0.64220  Biso   1.000  H
  H56      1.0000 0.00200  0.29670  0.14220  Biso   1.000  H
  C37      1.0000 0.74750  0.06140  0.94120  Biso   1.000  C
  C38      1.0000 0.75250  0.93860  0.44120  Biso   1.000  C
  C39      1.0000 0.25250  0.56140  0.55880  Biso   1.000  C
  C40      1.0000 0.24750  0.43860  0.05880  Biso   1.000  C
  C41      1.0000 0.28890  0.82500  0.03561  Biso   1.000  C
  C42      1.0000 0.21110  0.17500  0.53561  Biso   1.000  C
  C43      1.0000 0.71110  0.32500  0.46439  Biso   1.000  C
  C44      1.0000 0.78890  0.67500  0.96439  Biso   1.000  C
  C45      1.0000 0.37160  0.89900  0.08129  Biso   1.000  C
  C46      1.0000 0.12840  0.10100  0.58129  Biso   1.000  C
  C47      1.0000 0.62840  0.39900  0.41871  Biso   1.000  C
  C48      1.0000 0.87160  0.60100  0.91871  Biso   1.000  C
  H57      1.0000 0.34500  0.86350  0.11810  Biso   1.000  H
  H58      1.0000 0.15500  0.13650  0.61810  Biso   1.000  H
  H59      1.0000 0.65500  0.36350  0.38190  Biso   1.000  H
  H60      1.0000 0.84500  0.63650  0.88190  Biso   1.000  H
  C49      1.0000 0.57860  0.74940  0.09544  Biso   1.000  C
  C50      1.0000 0.92140  0.25060  0.59544  Biso   1.000  C
  C51      1.0000 0.42140  0.24940  0.40456  Biso   1.000  C
  C52      1.0000 0.07860  0.75060  0.90456  Biso   1.000  C
  H61      1.0000 0.67710  0.73320  0.08330  Biso   1.000  H
  H62      1.0000 0.82290  0.26680  0.58330  Biso   1.000  H
  H63      1.0000 0.32290  0.23320  0.41670  Biso   1.000  H
  H64      1.0000 0.17710  0.76680  0.91670  Biso   1.000  H
  H65      1.0000 0.51880  0.67840  0.08050  Biso   1.000  H
  H66      1.0000 0.98120  0.32160  0.58050  Biso   1.000  H
  H67      1.0000 0.48120  0.17840  0.41950  Biso   1.000  H
  H68      1.0000 0.01880  0.82160  0.91950  Biso   1.000  H
  C53      1.0000 0.57350  0.74410  0.15850  Biso   1.000  C
  C54      1.0000 0.92650  0.25590  0.65850  Biso   1.000  C
  C55      1.0000 0.42650  0.24410  0.34150  Biso   1.000  C
  C56      1.0000 0.07350  0.75590  0.84150  Biso   1.000  C
  C57      1.0000 0.66880  0.82080  0.18920  Biso   1.000  C
  C58      1.0000 0.83120  0.17920  0.68920  Biso   1.000  C
  C59      1.0000 0.33120  0.32080  0.31080  Biso   1.000  C
  C60      1.0000 0.16880  0.67920  0.81080  Biso   1.000  C
  H69      1.0000 0.73640  0.87320  0.17060  Biso   1.000  H
  H70      1.0000 0.76360  0.12680  0.67060  Biso   1.000  H
  H71      1.0000 0.26360  0.37320  0.32940  Biso   1.000  H
  H72      1.0000 0.23640  0.62680  0.82940  Biso   1.000  H
  C61      1.0000 0.66520  0.82070  0.24730  Biso   1.000  C
  C62      1.0000 0.83480  0.17930  0.74730  Biso   1.000  C
  C63      1.0000 0.33480  0.32070  0.25270  Biso   1.000  C
  C64      1.0000 0.16520  0.67930  0.75270  Biso   1.000  C
  H73      1.0000 0.73000  0.87330  0.26730  Biso   1.000  H
  H74      1.0000 0.77000  0.12670  0.76730  Biso   1.000  H
  H75      1.0000 0.27000  0.37330  0.23270  Biso   1.000  H
  H76      1.0000 0.23000  0.62670  0.73270  Biso   1.000  H
  C65      1.0000 0.56690  0.74380  0.27540  Biso   1.000  C
  C66      1.0000 0.93310  0.25620  0.77540  Biso   1.000  C
  C67      1.0000 0.43310  0.24380  0.22460  Biso   1.000  C
  C68      1.0000 0.06690  0.75620  0.72460  Biso   1.000  C
  H77      1.0000 0.56360  0.74460  0.31430  Biso   1.000  H
  H78      1.0000 0.93640  0.25540  0.81430  Biso   1.000  H
  H79      1.0000 0.43640  0.24460  0.18570  Biso   1.000  H
  H80      1.0000 0.06360  0.75540  0.68570  Biso   1.000  H
  C69      1.0000 0.47210  0.66450  0.24490  Biso   1.000  C
  C70      1.0000 0.02790  0.33550  0.74490  Biso   1.000  C
  C71      1.0000 0.52790  0.16450  0.25510  Biso   1.000  C
  C72      1.0000 0.97210  0.83550  0.75510  Biso   1.000  C
  H81      1.0000 0.40530  0.61130  0.26350  Biso   1.000  H
  H82      1.0000 0.09470  0.38870  0.76350  Biso   1.000  H
  H83      1.0000 0.59470  0.11130  0.23650  Biso   1.000  H
  H84      1.0000 0.90530  0.88870  0.73650  Biso   1.000  H
  C73      1.0000 0.47690  0.66460  0.18680  Biso   1.000  C
  C74      1.0000 0.02310  0.33540  0.68680  Biso   1.000  C
  C75      1.0000 0.52310  0.16460  0.31320  Biso   1.000  C
  C76      1.0000 0.97690  0.83540  0.81320  Biso   1.000  C
  H85      1.0000 0.41410  0.61030  0.16680  Biso   1.000  H
  H86      1.0000 0.08590  0.38970  0.66680  Biso   1.000  H
  H87      1.0000 0.58590  0.11030  0.33320  Biso   1.000  H
  H88      1.0000 0.91410  0.88970  0.83320  Biso   1.000  H
  C77      1.0000 0.33440  0.04690  0.07840  Biso   1.000  C
  C78      1.0000 0.16560  0.95310  0.57840  Biso   1.000  C
  C79      1.0000 0.66560  0.54690  0.42160  Biso   1.000  C
  C80      1.0000 0.83440  0.45310  0.92160  Biso   1.000  C
  H89      1.0000 0.23250  0.05990  0.08610  Biso   1.000  H
  H90      1.0000 0.26750  0.94010  0.58610  Biso   1.000  H
  H91      1.0000 0.76750  0.55990  0.41390  Biso   1.000  H
  H92      1.0000 0.73250  0.44010  0.91390  Biso   1.000  H
  H93      1.0000 0.38970  0.09570  0.10610  Biso   1.000  H
  H94      1.0000 0.11030  0.90430  0.60610  Biso   1.000  H
  H95      1.0000 0.61030  0.59570  0.39390  Biso   1.000  H
  H96      1.0000 0.88970  0.40430  0.89390  Biso   1.000  H
  O25      1.0000 0.93660  0.98480  0.06541  Biso   1.000  O
  O26      1.0000 0.56340  0.01520  0.56541  Biso   1.000  O
  O27      1.0000 0.06340  0.48480  0.43459  Biso   1.000  O
  O28      1.0000 0.43660  0.51520  0.93459  Biso   1.000  O
  H97      1.0000 0.99400  0.91900  0.06150  Biso   1.000  H
  H98      1.0000 0.50600  0.08100  0.56150  Biso   1.000  H
  H99      1.0000 0.00600  0.41900  0.43850  Biso   1.000  H
  H100     1.0000 0.49400  0.58100  0.93850  Biso   1.000  H
  H101     1.0000 0.87800  0.98500  0.03780  Biso   1.000  H
  H102     1.0000 0.62200  0.01500  0.53780  Biso   1.000  H
  H103     1.0000 0.12200  0.48500  0.46220  Biso   1.000  H
  H104     1.0000 0.37800  0.51500  0.96220  Biso   1.000  H
  O29      1.0000 0.68920  0.12500  0.11663  Biso   1.000  O
  O30      1.0000 0.81080  0.87500  0.61663  Biso   1.000  O
  O31      1.0000 0.31080  0.62500  0.38337  Biso   1.000  O
  O32      1.0000 0.18920  0.37500  0.88337  Biso   1.000  O
  H105     1.0000 0.76500  0.09000  0.10270  Biso   1.000  H
  H106     1.0000 0.73500  0.91000  0.60270  Biso   1.000  H
  H107     1.0000 0.23500  0.59000  0.39730  Biso   1.000  H
  H108     1.0000 0.26500  0.41000  0.89730  Biso   1.000  H
  H109     1.0000 0.67900  0.20300  0.10280  Biso   1.000  H
  H110     1.0000 0.82100  0.79700  0.60280  Biso   1.000  H
  H111     1.0000 0.32100  0.70300  0.39720  Biso   1.000  H
  H112     1.0000 0.17900  0.29700  0.89720  Biso   1.000  H
  O33      1.0000 0.16580  0.11340  0.93054  Biso   1.000  O
  O34      1.0000 0.33420  0.88660  0.43054  Biso   1.000  O
  O35      1.0000 0.83420  0.61340  0.56946  Biso   1.000  O
  O36      1.0000 0.66580  0.38660  0.06946  Biso   1.000  O
  H113     1.0000 0.07650  0.09800  0.93470  Biso   1.000  H
  H114     1.0000 0.42350  0.90200  0.43470  Biso   1.000  H
  H115     1.0000 0.92350  0.59800  0.56530  Biso   1.000  H
  H116     1.0000 0.57650  0.40200  0.06530  Biso   1.000  H
  H117     1.0000 0.20700  0.11200  0.96250  Biso   1.000  H
  H118     1.0000 0.29300  0.88800  0.46250  Biso   1.000  H
  H119     1.0000 0.79300  0.61200  0.53750  Biso   1.000  H
  H120     1.0000 0.70700  0.38800  0.03750  Biso   1.000  H
