data_image0
_cell_length_a       7.94
_cell_length_b       9.691
_cell_length_c       18.539
_cell_angle_alpha    90
_cell_angle_beta     95.83
_cell_angle_gamma    90

_symmetry_space_group_name_H-M    "P 1"
_symmetry_int_tables_number       1

loop_
  _symmetry_equiv_pos_as_xyz
  'x, y, z'

loop_
  _atom_site_label
  _atom_site_occupancy
  _atom_site_fract_x
  _atom_site_fract_y
  _atom_site_fract_z
  _atom_site_thermal_displace_type
  _atom_site_B_iso_or_equiv
  _atom_site_type_symbol
  Cu1      1.0000 0.56400  0.55557  0.99310  Biso   1.000  Cu
  Cu2      1.0000 0.56400  0.44443  0.49310  Biso   1.000  Cu
  F1       1.0000 0.94800  0.76000  0.18270  Biso   1.000  F
  F2       1.0000 0.94800  0.24000  0.68270  Biso   1.000  F
  F3       1.0000 0.75700  0.82710  0.24020  Biso   1.000  F
  F4       1.0000 0.75700  0.17290  0.74020  Biso   1.000  F
  F5       1.0000 0.79800  0.62200  0.23090  Biso   1.000  F
  F6       1.0000 0.79800  0.37800  0.73090  Biso   1.000  F
  F7       1.0000 0.32100  0.02800  0.09500  Biso   1.000  F
  F8       1.0000 0.32100  0.97200  0.59500  Biso   1.000  F
  F9       1.0000 0.14600  0.88300  0.05000  Biso   1.000  F
  F10      1.0000 0.14600  0.11700  0.55000  Biso   1.000  F
  F11      1.0000 0.27400  0.99310  0.98800  Biso   1.000  F
  F12      1.0000 0.27400  0.00690  0.48800  Biso   1.000  F
  F13      1.0000 0.92500  0.14700  0.95000  Biso   1.000  F
  F14      1.0000 0.92500  0.85300  0.45000  Biso   1.000  F
  F15      1.0000 0.82800  0.12550  0.04600  Biso   1.000  F
  F16      1.0000 0.82800  0.87450  0.54600  Biso   1.000  F
  F17      1.0000 0.72800  0.03000  0.95900  Biso   1.000  F
  F18      1.0000 0.72800  0.97000  0.45900  Biso   1.000  F
  F19      1.0000 0.30000  0.38200  0.76770  Biso   1.000  F
  F20      1.0000 0.30000  0.61800  0.26770  Biso   1.000  F
  F21      1.0000 0.15000  0.32600  0.84300  Biso   1.000  F
  F22      1.0000 0.15000  0.67400  0.34300  Biso   1.000  F
  F23      1.0000 0.29200  0.18760  0.80250  Biso   1.000  F
  F24      1.0000 0.29200  0.81240  0.30250  Biso   1.000  F
  O1       1.0000 0.71900  0.63080  0.08340  Biso   1.000  O
  O2       1.0000 0.71900  0.36920  0.58340  Biso   1.000  O
  O3       1.0000 0.41900  0.74390  0.99800  Biso   1.000  O
  O4       1.0000 0.41900  0.25610  0.49800  Biso   1.000  O
  O5       1.0000 0.42300  0.47420  0.90530  Biso   1.000  O
  O6       1.0000 0.42300  0.52580  0.40530  Biso   1.000  O
  O7       1.0000 0.72400  0.36980  0.99450  Biso   1.000  O
  O8       1.0000 0.72400  0.63020  0.49450  Biso   1.000  O
  N1       1.0000 0.42000  0.46330  0.06080  Biso   1.000  N
  N2       1.0000 0.42000  0.53670  0.56080  Biso   1.000  N
  N3       1.0000 0.71400  0.34880  0.42710  Biso   1.000  N
  N4       1.0000 0.71400  0.65120  0.92710  Biso   1.000  N
  C1       1.0000 0.48200  0.40060  0.12060  Biso   1.000  C
  C2       1.0000 0.48200  0.59940  0.62060  Biso   1.000  C
  C3       1.0000 0.38200  0.34140  0.16760  Biso   1.000  C
  C4       1.0000 0.38200  0.65860  0.66760  Biso   1.000  C
  C5       1.0000 0.20700  0.34450  0.15520  Biso   1.000  C
  C6       1.0000 0.20700  0.65550  0.65520  Biso   1.000  C
  C7       1.0000 0.14500  0.41160  0.09360  Biso   1.000  C
  C8       1.0000 0.14500  0.58840  0.59360  Biso   1.000  C
  C9       1.0000 0.24900  0.46920  0.04930  Biso   1.000  C
  C10      1.0000 0.24900  0.53080  0.54930  Biso   1.000  C
  C11      1.0000 0.09000  0.27710  0.20380  Biso   1.000  C
  C12      1.0000 0.09000  0.72290  0.70380  Biso   1.000  C
  C13      1.0000 0.16700  0.19030  0.26180  Biso   1.000  C
  C14      1.0000 0.16700  0.80970  0.76180  Biso   1.000  C
  C15      1.0000 0.03800  0.10840  0.30220  Biso   1.000  C
  C16      1.0000 0.03800  0.89160  0.80220  Biso   1.000  C
  C17      1.0000 0.92500  0.19870  0.34220  Biso   1.000  C
  C18      1.0000 0.92500  0.80130  0.84220  Biso   1.000  C
  C19      1.0000 0.98700  0.28050  0.39900  Biso   1.000  C
  C20      1.0000 0.98700  0.71950  0.89900  Biso   1.000  C
  C21      1.0000 0.88200  0.35000  0.43930  Biso   1.000  C
  C22      1.0000 0.88200  0.65000  0.93930  Biso   1.000  C
  C23      1.0000 0.74800  0.19470  0.32940  Biso   1.000  C
  C24      1.0000 0.74800  0.80530  0.82940  Biso   1.000  C
  C25      1.0000 0.65100  0.26980  0.37180  Biso   1.000  C
  C26      1.0000 0.65100  0.73020  0.87180  Biso   1.000  C
  C27      1.0000 0.80100  0.73000  0.19400  Biso   1.000  C
  C28      1.0000 0.80100  0.27000  0.69400  Biso   1.000  C
  C29      1.0000 0.68200  0.72630  0.12300  Biso   1.000  C
  C30      1.0000 0.68200  0.27370  0.62300  Biso   1.000  C
  C31      1.0000 0.55000  0.81810  0.11250  Biso   1.000  C
  C32      1.0000 0.55000  0.18190  0.61250  Biso   1.000  C
  C33      1.0000 0.43600  0.82170  0.05330  Biso   1.000  C
  C34      1.0000 0.43600  0.17830  0.55330  Biso   1.000  C
  C35      1.0000 0.29600  0.93410  0.04900  Biso   1.000  C
  C36      1.0000 0.29600  0.06590  0.54900  Biso   1.000  C
  C37      1.0000 0.78500  0.13800  0.98100  Biso   1.000  C
  C38      1.0000 0.78500  0.86200  0.48100  Biso   1.000  C
  C39      1.0000 0.68000  0.26380  0.95980  Biso   1.000  C
  C40      1.0000 0.68000  0.73620  0.45980  Biso   1.000  C
  C41      1.0000 0.54500  0.24950  0.90710  Biso   1.000  C
  C42      1.0000 0.54500  0.75050  0.40710  Biso   1.000  C
  C43      1.0000 0.42900  0.35100  0.88400  Biso   1.000  C
  C44      1.0000 0.42900  0.64900  0.38400  Biso   1.000  C
  C45      1.0000 0.29200  0.31500  0.82500  Biso   1.000  C
  C46      1.0000 0.29200  0.68500  0.32500  Biso   1.000  C
  H1       1.0000 0.61720  0.39670  0.12330  Biso   1.000  H
  H2       1.0000 0.61720  0.60330  0.62330  Biso   1.000  H
  H3       1.0000 0.43330  0.29440  0.20970  Biso   1.000  H
  H4       1.0000 0.43330  0.70560  0.70970  Biso   1.000  H
  H5       1.0000 0.02500  0.41770  0.07950  Biso   1.000  H
  H6       1.0000 0.02500  0.58230  0.57950  Biso   1.000  H
  H7       1.0000 0.19810  0.51710  0.00510  Biso   1.000  H
  H8       1.0000 0.19810  0.48290  0.50510  Biso   1.000  H
  H9       1.0000 0.02920  0.34850  0.22320  Biso   1.000  H
  H10      1.0000 0.02920  0.65150  0.72320  Biso   1.000  H
  H11      1.0000 0.01110  0.22190  0.17160  Biso   1.000  H
  H12      1.0000 0.01110  0.77810  0.67160  Biso   1.000  H
  H13      1.0000 0.22980  0.24700  0.29370  Biso   1.000  H
  H14      1.0000 0.22980  0.75300  0.79370  Biso   1.000  H
  H15      1.0000 0.23780  0.12620  0.23910  Biso   1.000  H
  H16      1.0000 0.23780  0.87380  0.73910  Biso   1.000  H
  H17      1.0000 0.96830  0.05450  0.26540  Biso   1.000  H
  H18      1.0000 0.96830  0.94550  0.76540  Biso   1.000  H
  H19      1.0000 0.09750  0.04860  0.33410  Biso   1.000  H
  H20      1.0000 0.09750  0.95140  0.83410  Biso   1.000  H
  H21      1.0000 0.10450  0.29000  0.40720  Biso   1.000  H
  H22      1.0000 0.10450  0.71000  0.90720  Biso   1.000  H
  H23      1.0000 0.92950  0.40280  0.47680  Biso   1.000  H
  H24      1.0000 0.92950  0.59720  0.97680  Biso   1.000  H
  H25      1.0000 0.69480  0.13970  0.28830  Biso   1.000  H
  H26      1.0000 0.69480  0.86030  0.78830  Biso   1.000  H
  H27      1.0000 0.52990  0.26520  0.35910  Biso   1.000  H
  H28      1.0000 0.52990  0.73480  0.85910  Biso   1.000  H
  H29      1.0000 0.54300  0.88440  0.14770  Biso   1.000  H
  H30      1.0000 0.54300  0.11560  0.64770  Biso   1.000  H
  H31      1.0000 0.52950  0.16380  0.88140  Biso   1.000  H
  H32      1.0000 0.52950  0.83620  0.38140  Biso   1.000  H
