data_image0
_cell_length_a       7.9502
_cell_length_b       9.6866
_cell_length_c       18.5732
_cell_angle_alpha    90
_cell_angle_beta     95.809
_cell_angle_gamma    90

_symmetry_space_group_name_H-M    "P 1"
_symmetry_int_tables_number       1

loop_
  _symmetry_equiv_pos_as_xyz
  'x, y, z'

loop_
  _atom_site_label
  _atom_site_occupancy
  _atom_site_fract_x
  _atom_site_fract_y
  _atom_site_fract_z
  _atom_site_thermal_displace_type
  _atom_site_B_iso_or_equiv
  _atom_site_type_symbol
  Cu1      1.0000 0.54054  0.94500  0.10022  Biso   1.000  Cu
  Cu2      1.0000 0.54054  0.05500  0.60022  Biso   1.000  Cu
  N1       1.0000 0.39560  0.85070  0.16770  Biso   1.000  N
  N2       1.0000 0.39560  0.14930  0.66770  Biso   1.000  N
  C1       1.0000 0.22710  0.85500  0.15420  Biso   1.000  C
  C2       1.0000 0.22710  0.14500  0.65420  Biso   1.000  C
  H1       1.0000 0.17910  0.90680  0.11530  Biso   1.000  H
  H2       1.0000 0.17910  0.09320  0.61530  Biso   1.000  H
  C3       1.0000 0.12270  0.78480  0.19650  Biso   1.000  C
  C4       1.0000 0.12270  0.21520  0.69650  Biso   1.000  C
  H3       1.0000 0.00630  0.79610  0.18740  Biso   1.000  H
  H4       1.0000 0.00630  0.20390  0.68740  Biso   1.000  H
  C5       1.0000 0.18570  0.69710  0.25260  Biso   1.000  C
  C6       1.0000 0.18570  0.30290  0.75260  Biso   1.000  C
  C7       1.0000 0.35910  0.69570  0.26450  Biso   1.000  C
  C8       1.0000 0.35910  0.30430  0.76450  Biso   1.000  C
  H5       1.0000 0.41110  0.64210  0.30190  Biso   1.000  H
  H6       1.0000 0.41110  0.35790  0.80190  Biso   1.000  H
  C9       1.0000 0.45950  0.77350  0.22150  Biso   1.000  C
  C10      1.0000 0.45950  0.22650  0.72150  Biso   1.000  C
  H7       1.0000 0.57640  0.77000  0.23170  Biso   1.000  H
  H8       1.0000 0.57640  0.23000  0.73170  Biso   1.000  H
  C11      1.0000 0.07510  0.61120  0.29230  Biso   1.000  C
  C12      1.0000 0.07510  0.38880  0.79230  Biso   1.000  C
  H9       1.0000 0.14500  0.55520  0.32670  Biso   1.000  H
  H10      1.0000 0.14500  0.44480  0.82670  Biso   1.000  H
  H11      1.0000 0.01340  0.54890  0.25820  Biso   1.000  H
  H12      1.0000 0.01340  0.45110  0.75820  Biso   1.000  H
  C13      1.0000 0.94760  0.68970  0.33310  Biso   1.000  C
  C14      1.0000 0.94760  0.31030  0.83310  Biso   1.000  C
  H13      1.0000 0.87750  0.74580  0.29880  Biso   1.000  H
  H14      1.0000 0.87750  0.25420  0.79880  Biso   1.000  H
  H15      1.0000 0.87460  0.62340  0.35360  Biso   1.000  H
  H16      1.0000 0.87460  0.37660  0.85360  Biso   1.000  H
  C15      1.0000 0.02170  0.77690  0.38980  Biso   1.000  C
  C16      1.0000 0.02170  0.22310  0.88980  Biso   1.000  C
  H17      1.0000 0.08120  0.85090  0.36790  Biso   1.000  H
  H18      1.0000 0.08120  0.14910  0.86790  Biso   1.000  H
  H19      1.0000 0.10560  0.72330  0.41940  Biso   1.000  H
  H20      1.0000 0.10560  0.27670  0.91940  Biso   1.000  H
  C17      1.0000 0.90120  0.84240  0.44030  Biso   1.000  C
  C18      1.0000 0.90120  0.15760  0.94030  Biso   1.000  C
  C19      1.0000 0.72530  0.84220  0.42500  Biso   1.000  C
  C20      1.0000 0.72530  0.15780  0.92500  Biso   1.000  C
  H21      1.0000 0.67650  0.80390  0.38190  Biso   1.000  H
  H22      1.0000 0.67650  0.19610  0.88190  Biso   1.000  H
  C21      1.0000 0.62580  0.89730  0.47240  Biso   1.000  C
  C22      1.0000 0.62580  0.10270  0.97240  Biso   1.000  C
  H23      1.0000 0.50920  0.88780  0.46340  Biso   1.000  H
  H24      1.0000 0.50920  0.11220  0.96340  Biso   1.000  H
  N3       1.0000 0.68730  0.96330  0.53020  Biso   1.000  N
  N4       1.0000 0.68730  0.03670  0.03020  Biso   1.000  N
  C23      1.0000 0.86030  0.96510  0.54560  Biso   1.000  C
  C24      1.0000 0.86030  0.03490  0.04560  Biso   1.000  C
  H25      1.0000 0.90620  0.00680  0.58830  Biso   1.000  H
  H26      1.0000 0.90620  0.99320  0.08830  Biso   1.000  H
  C25      1.0000 0.96720  0.90790  0.50080  Biso   1.000  C
  C26      1.0000 0.96720  0.09210  0.00080  Biso   1.000  C
  H27      1.0000 0.08370  0.91400  0.51170  Biso   1.000  H
  H28      1.0000 0.08370  0.08600  0.01170  Biso   1.000  H
  C27      1.0000 0.67640  0.15020  0.20900  Biso   1.000  C
  C28      1.0000 0.67640  0.84980  0.70900  Biso   1.000  C
  O1       1.0000 0.68790  0.02650  0.18850  Biso   1.000  O
  O2       1.0000 0.68790  0.97350  0.68850  Biso   1.000  O
  C29      1.0000 0.56500  0.24970  0.18620  Biso   1.000  C
  C30      1.0000 0.56500  0.75030  0.68620  Biso   1.000  C
  H29      1.0000 0.58070  0.33640  0.20740  Biso   1.000  H
  H30      1.0000 0.58070  0.66360  0.70740  Biso   1.000  H
  C31      1.0000 0.42680  0.23400  0.13310  Biso   1.000  C
  C32      1.0000 0.42680  0.76600  0.63310  Biso   1.000  C
  O3       1.0000 0.38390  0.12920  0.09780  Biso   1.000  O
  O4       1.0000 0.38390  0.87080  0.59780  Biso   1.000  O
  C33      1.0000 0.82700  0.18420  0.27160  Biso   1.000  C
  C34      1.0000 0.82700  0.81580  0.77160  Biso   1.000  C
  F1       1.0000 0.79900  0.30930  0.29970  Biso   1.000  F
  F2       1.0000 0.79900  0.69070  0.79970  Biso   1.000  F
  F3       1.0000 0.96370  0.18600  0.24000  Biso   1.000  F
  F4       1.0000 0.96370  0.81400  0.74000  Biso   1.000  F
  F5       1.0000 0.83220  0.09460  0.32590  Biso   1.000  F
  F6       1.0000 0.83220  0.90540  0.82590  Biso   1.000  F
  F7       1.0000 0.87680  0.30900  0.26140  Biso   1.000  F
  F8       1.0000 0.87680  0.69100  0.76140  Biso   1.000  F
  F9       1.0000 0.76370  0.16710  0.33230  Biso   1.000  F
  F10      1.0000 0.76370  0.83290  0.83230  Biso   1.000  F
  F11      1.0000 0.95630  0.09800  0.26570  Biso   1.000  F
  F12      1.0000 0.95630  0.90200  0.76570  Biso   1.000  F
  C35      1.0000 0.31690  0.36150  0.11330  Biso   1.000  C
  C36      1.0000 0.31690  0.63850  0.61330  Biso   1.000  C
  F13      1.0000 0.36440  0.46400  0.15610  Biso   1.000  F
  F14      1.0000 0.36440  0.53600  0.65610  Biso   1.000  F
  F15      1.0000 0.32200  0.38840  0.04420  Biso   1.000  F
  F16      1.0000 0.32200  0.61160  0.54420  Biso   1.000  F
  F17      1.0000 0.16550  0.31270  0.12360  Biso   1.000  F
  F18      1.0000 0.16550  0.68730  0.62360  Biso   1.000  F
  F19      1.0000 0.40190  0.48390  0.11700  Biso   1.000  F
  F20      1.0000 0.40190  0.51610  0.61700  Biso   1.000  F
  F21      1.0000 0.23740  0.35390  0.04730  Biso   1.000  F
  F22      1.0000 0.23740  0.64610  0.54730  Biso   1.000  F
  F23      1.0000 0.19940  0.37390  0.16020  Biso   1.000  F
  F24      1.0000 0.19940  0.62610  0.66020  Biso   1.000  F
  C37      1.0000 0.42560  0.77360  0.97160  Biso   1.000  C
  C38      1.0000 0.42560  0.22640  0.47160  Biso   1.000  C
  O5       1.0000 0.39100  0.86980  0.01270  Biso   1.000  O
  O6       1.0000 0.39100  0.13020  0.51270  Biso   1.000  O
  C39      1.0000 0.56000  0.68320  0.98140  Biso   1.000  C
  C40      1.0000 0.56000  0.31680  0.48140  Biso   1.000  C
  H31      1.0000 0.57400  0.62020  0.94460  Biso   1.000  H
  H32      1.0000 0.57400  0.37980  0.44460  Biso   1.000  H
  C41      1.0000 0.67400  0.68020  0.04170  Biso   1.000  C
  C42      1.0000 0.67400  0.31980  0.54170  Biso   1.000  C
  O7       1.0000 0.69070  0.75630  0.09500  Biso   1.000  O
  O8       1.0000 0.69070  0.24370  0.59500  Biso   1.000  O
  C43      1.0000 0.31420  0.76040  0.89690  Biso   1.000  C
  C44      1.0000 0.31420  0.23960  0.39690  Biso   1.000  C
  F25      1.0000 0.17160  0.70240  0.91050  Biso   1.000  F
  F26      1.0000 0.17160  0.29760  0.41050  Biso   1.000  F
  F27      1.0000 0.40790  0.66910  0.86470  Biso   1.000  F
  F28      1.0000 0.40790  0.33090  0.36470  Biso   1.000  F
  F29      1.0000 0.29400  0.87580  0.85880  Biso   1.000  F
  F30      1.0000 0.29400  0.12420  0.35880  Biso   1.000  F
  F31      1.0000 0.15640  0.76770  0.91180  Biso   1.000  F
  F32      1.0000 0.15640  0.23230  0.41180  Biso   1.000  F
  F33      1.0000 0.35580  0.88760  0.87330  Biso   1.000  F
  F34      1.0000 0.35580  0.11240  0.37330  Biso   1.000  F
  F35      1.0000 0.34470  0.66900  0.84790  Biso   1.000  F
  F36      1.0000 0.34470  0.33100  0.34790  Biso   1.000  F
  C45      1.0000 0.81850  0.56710  0.04500  Biso   1.000  C
  C46      1.0000 0.81850  0.43290  0.54500  Biso   1.000  C
  F37      1.0000 0.96350  0.61730  0.02640  Biso   1.000  F
  F38      1.0000 0.96350  0.38270  0.52640  Biso   1.000  F
  F39      1.0000 0.84920  0.52300  0.11450  Biso   1.000  F
  F40      1.0000 0.84920  0.47700  0.61450  Biso   1.000  F
  F41      1.0000 0.76720  0.46420  0.00290  Biso   1.000  F
  F42      1.0000 0.76720  0.53580  0.50290  Biso   1.000  F
  F43      1.0000 0.83610  0.52660  0.97570  Biso   1.000  F
  F44      1.0000 0.83610  0.47340  0.47570  Biso   1.000  F
  F45      1.0000 0.96760  0.61280  0.07210  Biso   1.000  F
  F46      1.0000 0.96760  0.38720  0.57210  Biso   1.000  F
  F47      1.0000 0.77460  0.45830  0.08170  Biso   1.000  F
  F48      1.0000 0.77460  0.54170  0.58170  Biso   1.000  F
