data_image0
_cell_length_a       7.922
_cell_length_b       16.266
_cell_length_c       10.163
_cell_angle_alpha    90
_cell_angle_beta     93.83
_cell_angle_gamma    90

_symmetry_space_group_name_H-M    "P 1"
_symmetry_int_tables_number       1

loop_
  _symmetry_equiv_pos_as_xyz
  'x, y, z'

loop_
  _atom_site_label
  _atom_site_occupancy
  _atom_site_fract_x
  _atom_site_fract_y
  _atom_site_fract_z
  _atom_site_thermal_displace_type
  _atom_site_B_iso_or_equiv
  _atom_site_type_symbol
  Cu1      1.0000 0.00000  0.00000  0.00000  Biso   1.000  Cu
  Cu2      1.0000 0.00000  0.50000  0.50000  Biso   1.000  Cu
  F1       1.0000 0.37600  0.76400  0.06400  Biso   1.000  F
  F2       1.0000 0.62400  0.26400  0.43600  Biso   1.000  F
  F3       1.0000 0.62400  0.23600  0.93600  Biso   1.000  F
  F4       1.0000 0.37600  0.73600  0.56400  Biso   1.000  F
  F5       1.0000 0.26200  0.77890  0.23400  Biso   1.000  F
  F6       1.0000 0.73800  0.27890  0.26600  Biso   1.000  F
  F7       1.0000 0.73800  0.22110  0.76600  Biso   1.000  F
  F8       1.0000 0.26200  0.72110  0.73400  Biso   1.000  F
  F9       1.0000 0.18500  0.68940  0.10600  Biso   1.000  F
  F10      1.0000 0.81500  0.18940  0.39400  Biso   1.000  F
  F11      1.0000 0.81500  0.31060  0.89400  Biso   1.000  F
  F12      1.0000 0.18500  0.81060  0.60600  Biso   1.000  F
  F13      1.0000 0.73700  0.82160  0.68000  Biso   1.000  F
  F14      1.0000 0.26300  0.32160  0.82000  Biso   1.000  F
  F15      1.0000 0.26300  0.17840  0.32000  Biso   1.000  F
  F16      1.0000 0.73700  0.67840  0.18000  Biso   1.000  F
  F17      1.0000 0.73900  0.72380  0.79900  Biso   1.000  F
  F18      1.0000 0.26100  0.22380  0.70100  Biso   1.000  F
  F19      1.0000 0.26100  0.27620  0.20100  Biso   1.000  F
  F20      1.0000 0.73900  0.77620  0.29900  Biso   1.000  F
  F21      1.0000 0.58600  0.81800  0.81600  Biso   1.000  F
  F22      1.0000 0.41400  0.31800  0.68400  Biso   1.000  F
  F23      1.0000 0.41400  0.18200  0.18400  Biso   1.000  F
  F24      1.0000 0.58600  0.68200  0.31600  Biso   1.000  F
  O1       1.0000 0.14430  0.89730  0.07280  Biso   1.000  O
  O2       1.0000 0.85570  0.39730  0.42720  Biso   1.000  O
  O3       1.0000 0.85570  0.10270  0.92720  Biso   1.000  O
  O4       1.0000 0.14430  0.60270  0.57280  Biso   1.000  O
  O5       1.0000 0.84470  0.91760  0.88570  Biso   1.000  O
  O6       1.0000 0.15530  0.41760  0.61430  Biso   1.000  O
  O7       1.0000 0.15530  0.08240  0.11430  Biso   1.000  O
  O8       1.0000 0.84470  0.58240  0.38570  Biso   1.000  O
  N1       1.0000 0.15150  0.01290  0.84990  Biso   1.000  N
  N2       1.0000 0.84850  0.51290  0.65010  Biso   1.000  N
  N3       1.0000 0.84850  0.98710  0.15010  Biso   1.000  N
  N4       1.0000 0.15150  0.48710  0.34990  Biso   1.000  N
  C1       1.0000 0.31900  0.00850  0.86940  Biso   1.000  C
  C2       1.0000 0.68100  0.50850  0.63060  Biso   1.000  C
  C3       1.0000 0.68100  0.99150  0.13060  Biso   1.000  C
  C4       1.0000 0.31900  0.49150  0.36940  Biso   1.000  C
  C5       1.0000 0.42800  0.01650  0.77200  Biso   1.000  C
  C6       1.0000 0.57200  0.51650  0.72800  Biso   1.000  C
  C7       1.0000 0.57200  0.98350  0.22800  Biso   1.000  C
  C8       1.0000 0.42800  0.48350  0.27200  Biso   1.000  C
  C9       1.0000 0.36900  0.03040  0.64600  Biso   1.000  C
  C10      1.0000 0.63100  0.53040  0.85400  Biso   1.000  C
  C11      1.0000 0.63100  0.96960  0.35400  Biso   1.000  C
  C12      1.0000 0.36900  0.46960  0.14600  Biso   1.000  C
  C13      1.0000 0.48900  0.03990  0.53720  Biso   1.000  C
  C14      1.0000 0.51100  0.53990  0.96280  Biso   1.000  C
  C15      1.0000 0.51100  0.96010  0.46280  Biso   1.000  C
  C16      1.0000 0.48900  0.46010  0.03720  Biso   1.000  C
  C17      1.0000 0.19700  0.03510  0.62420  Biso   1.000  C
  C18      1.0000 0.80300  0.53510  0.87580  Biso   1.000  C
  C19      1.0000 0.80300  0.96490  0.37580  Biso   1.000  C
  C20      1.0000 0.19700  0.46490  0.12420  Biso   1.000  C
  C21      1.0000 0.09400  0.02620  0.72690  Biso   1.000  C
  C22      1.0000 0.90600  0.52620  0.77310  Biso   1.000  C
  C23      1.0000 0.90600  0.97380  0.27310  Biso   1.000  C
  C24      1.0000 0.09400  0.47380  0.22690  Biso   1.000  C
  C25      1.0000 0.23700  0.76400  0.11000  Biso   1.000  C
  C26      1.0000 0.76300  0.26400  0.39000  Biso   1.000  C
  C27      1.0000 0.76300  0.23600  0.89000  Biso   1.000  C
  C28      1.0000 0.23700  0.73600  0.61000  Biso   1.000  C
  C29      1.0000 0.11300  0.82460  0.04500  Biso   1.000  C
  C30      1.0000 0.88700  0.32460  0.45500  Biso   1.000  C
  C31      1.0000 0.88700  0.17540  0.95500  Biso   1.000  C
  C32      1.0000 0.11300  0.67540  0.54500  Biso   1.000  C
  C33      1.0000 0.98200  0.79610  0.95900  Biso   1.000  C
  C34      1.0000 0.01800  0.29610  0.54100  Biso   1.000  C
  C35      1.0000 0.01800  0.20390  0.04100  Biso   1.000  C
  C36      1.0000 0.98200  0.70390  0.45900  Biso   1.000  C
  C37      1.0000 0.86300  0.84140  0.88800  Biso   1.000  C
  C38      1.0000 0.13700  0.34140  0.61200  Biso   1.000  C
  C39      1.0000 0.13700  0.15860  0.11200  Biso   1.000  C
  C40      1.0000 0.86300  0.65860  0.38800  Biso   1.000  C
  C41      1.0000 0.74200  0.79500  0.79600  Biso   1.000  C
  C42      1.0000 0.25800  0.29500  0.70400  Biso   1.000  C
  C43      1.0000 0.25800  0.20500  0.20400  Biso   1.000  C
  C44      1.0000 0.74200  0.70500  0.29600  Biso   1.000  C
  H1       1.0000 0.36550  0.99720  0.95630  Biso   1.000  H
  H2       1.0000 0.63450  0.49720  0.54370  Biso   1.000  H
  H3       1.0000 0.63450  0.00280  0.04370  Biso   1.000  H
  H4       1.0000 0.36550  0.50280  0.45630  Biso   1.000  H
  H5       1.0000 0.54660  0.01190  0.79260  Biso   1.000  H
  H6       1.0000 0.45340  0.51190  0.70740  Biso   1.000  H
  H7       1.0000 0.45340  0.98810  0.20740  Biso   1.000  H
  H8       1.0000 0.54660  0.48810  0.29260  Biso   1.000  H
  H9       1.0000 0.59260  0.06360  0.57250  Biso   1.000  H
  H10      1.0000 0.40740  0.56360  0.92750  Biso   1.000  H
  H11      1.0000 0.40740  0.93640  0.42750  Biso   1.000  H
  H12      1.0000 0.59260  0.43640  0.07250  Biso   1.000  H
  H13      1.0000 0.43830  0.08230  0.47500  Biso   1.000  H
  H14      1.0000 0.56170  0.58230  0.02500  Biso   1.000  H
  H15      1.0000 0.56170  0.91770  0.52500  Biso   1.000  H
  H16      1.0000 0.43830  0.41770  0.97500  Biso   1.000  H
  H17      1.0000 0.14890  0.04550  0.53690  Biso   1.000  H
  H18      1.0000 0.85110  0.54550  0.96310  Biso   1.000  H
  H19      1.0000 0.85110  0.95450  0.46310  Biso   1.000  H
  H20      1.0000 0.14890  0.45450  0.03690  Biso   1.000  H
  H21      1.0000 0.97380  0.02920  0.70810  Biso   1.000  H
  H22      1.0000 0.02620  0.52920  0.79190  Biso   1.000  H
  H23      1.0000 0.02620  0.97080  0.29190  Biso   1.000  H
  H24      1.0000 0.97380  0.47080  0.20810  Biso   1.000  H
  H25      1.0000 0.97670  0.73750  0.94680  Biso   1.000  H
  H26      1.0000 0.02330  0.23750  0.55320  Biso   1.000  H
  H27      1.0000 0.02330  0.26250  0.05320  Biso   1.000  H
  H28      1.0000 0.97670  0.76250  0.44680  Biso   1.000  H
