data_image0
_cell_length_a       12.8
_cell_length_b       8.333
_cell_length_c       14.046
_cell_angle_alpha    90
_cell_angle_beta     113.164
_cell_angle_gamma    90

_symmetry_space_group_name_H-M    "P 1"
_symmetry_int_tables_number       1

loop_
  _symmetry_equiv_pos_as_xyz
  'x, y, z'

loop_
  _atom_site_label
  _atom_site_occupancy
  _atom_site_fract_x
  _atom_site_fract_y
  _atom_site_fract_z
  _atom_site_thermal_displace_type
  _atom_site_B_iso_or_equiv
  _atom_site_type_symbol
  Cu1      1.0000 0.50000  0.50000  0.50000  Biso   1.000  Cu
  Cu2      1.0000 0.00000  0.50000  0.00000  Biso   1.000  Cu
  O1       1.0000 0.90060  0.27710  0.04130  Biso   1.000  O
  O2       1.0000 0.59940  0.27710  0.45870  Biso   1.000  O
  O3       1.0000 0.09940  0.72290  0.95870  Biso   1.000  O
  O4       1.0000 0.40060  0.72290  0.54130  Biso   1.000  O
  N1       1.0000 0.49200  0.11300  0.80600  Biso   1.000  N
  N2       1.0000 0.00800  0.11300  0.69400  Biso   1.000  N
  N3       1.0000 0.50800  0.88700  0.19400  Biso   1.000  N
  N4       1.0000 0.99200  0.88700  0.30600  Biso   1.000  N
  O5       1.0000 0.82960  0.50130  0.95840  Biso   1.000  O
  O6       1.0000 0.67040  0.50130  0.54160  Biso   1.000  O
  O7       1.0000 0.17040  0.49870  0.04160  Biso   1.000  O
  O8       1.0000 0.32960  0.49870  0.45840  Biso   1.000  O
  N5       1.0000 0.42110  0.99560  0.63740  Biso   1.000  N
  N6       1.0000 0.07890  0.99560  0.86260  Biso   1.000  N
  N7       1.0000 0.57890  0.00440  0.36260  Biso   1.000  N
  N8       1.0000 0.92110  0.00440  0.13740  Biso   1.000  N
  H1       1.0000 0.39220  0.91260  0.59980  Biso   1.000  H
  H2       1.0000 0.10780  0.91260  0.90020  Biso   1.000  H
  H3       1.0000 0.60780  0.08740  0.40020  Biso   1.000  H
  H4       1.0000 0.89220  0.08740  0.09980  Biso   1.000  H
  C1       1.0000 0.44170  0.12570  0.59250  Biso   1.000  C
  C2       1.0000 0.05830  0.12570  0.90750  Biso   1.000  C
  C3       1.0000 0.55830  0.87430  0.40750  Biso   1.000  C
  C4       1.0000 0.94170  0.87430  0.09250  Biso   1.000  C
  H5       1.0000 0.42460  0.12770  0.52170  Biso   1.000  H
  H6       1.0000 0.07540  0.12770  0.97830  Biso   1.000  H
  H7       1.0000 0.57540  0.87230  0.47830  Biso   1.000  H
  H8       1.0000 0.92460  0.87230  0.02170  Biso   1.000  H
  C5       1.0000 0.81740  0.36570  0.99430  Biso   1.000  C
  C6       1.0000 0.68260  0.36570  0.50570  Biso   1.000  C
  C7       1.0000 0.18260  0.63430  0.00570  Biso   1.000  C
  C8       1.0000 0.31740  0.63430  0.49430  Biso   1.000  C
  N9       1.0000 0.56620  0.37790  0.80460  Biso   1.000  N
  N10      1.0000 0.93380  0.37790  0.69540  Biso   1.000  N
  N11      1.0000 0.43380  0.62210  0.19540  Biso   1.000  N
  N12      1.0000 0.06620  0.62210  0.30460  Biso   1.000  N
  N13      1.0000 0.52440  0.40570  0.63630  Biso   1.000  N
  N14      1.0000 0.97560  0.40570  0.86370  Biso   1.000  N
  N15      1.0000 0.47560  0.59430  0.36370  Biso   1.000  N
  N16      1.0000 0.02440  0.59430  0.13630  Biso   1.000  N
  C9       1.0000 0.44470  0.98920  0.74240  Biso   1.000  C
  C10      1.0000 0.05530  0.98920  0.75760  Biso   1.000  C
  C11      1.0000 0.55530  0.01080  0.25760  Biso   1.000  C
  C12      1.0000 0.94470  0.01080  0.24240  Biso   1.000  C
  C13      1.0000 0.51420  0.23780  0.76000  Biso   1.000  C
  C14      1.0000 0.98580  0.23780  0.74000  Biso   1.000  C
  C15      1.0000 0.48580  0.76220  0.24000  Biso   1.000  C
  C16      1.0000 0.01420  0.76220  0.26000  Biso   1.000  C
  C17      1.0000 0.60360  0.42040  0.91520  Biso   1.000  C
  C18      1.0000 0.89640  0.42040  0.58480  Biso   1.000  C
  C19      1.0000 0.39640  0.57960  0.08480  Biso   1.000  C
  C20      1.0000 0.10360  0.57960  0.41520  Biso   1.000  C
  H9       1.0000 0.62840  0.53140  0.92520  Biso   1.000  H
  H10      1.0000 0.87160  0.53140  0.57480  Biso   1.000  H
  H11      1.0000 0.37160  0.46860  0.07480  Biso   1.000  H
  H12      1.0000 0.12840  0.46860  0.42520  Biso   1.000  H
  H13      1.0000 0.54020  0.40950  0.93620  Biso   1.000  H
  H14      1.0000 0.95980  0.40950  0.56380  Biso   1.000  H
  H15      1.0000 0.45980  0.59050  0.06380  Biso   1.000  H
  H16      1.0000 0.04020  0.59050  0.43620  Biso   1.000  H
  C21      1.0000 0.70040  0.31290  0.98220  Biso   1.000  C
  C22      1.0000 0.79960  0.31290  0.51780  Biso   1.000  C
  C23      1.0000 0.29960  0.68710  0.01780  Biso   1.000  C
  C24      1.0000 0.20040  0.68710  0.48220  Biso   1.000  C
  H17      1.0000 0.68710  0.20580  0.95270  Biso   1.000  H
  H18      1.0000 0.81290  0.20580  0.54730  Biso   1.000  H
  H19      1.0000 0.31290  0.79420  0.04730  Biso   1.000  H
  H20      1.0000 0.18710  0.79420  0.45270  Biso   1.000  H
  H21      1.0000 0.69850  0.30620  0.05040  Biso   1.000  H
  H22      1.0000 0.80150  0.30620  0.44960  Biso   1.000  H
  H23      1.0000 0.30150  0.69380  0.94960  Biso   1.000  H
  H24      1.0000 0.19850  0.69380  0.55040  Biso   1.000  H
  N17      1.0000 0.41920  0.85680  0.78000  Biso   1.000  N
  N18      1.0000 0.08080  0.85680  0.72000  Biso   1.000  N
  N19      1.0000 0.58080  0.14320  0.22000  Biso   1.000  N
  N20      1.0000 0.91920  0.14320  0.28000  Biso   1.000  N
  H25      1.0000 0.43280  0.85020  0.84500  Biso   1.000  H
  H26      1.0000 0.06720  0.85020  0.65500  Biso   1.000  H
  H27      1.0000 0.56720  0.14980  0.15500  Biso   1.000  H
  H28      1.0000 0.93280  0.14980  0.34500  Biso   1.000  H
  H29      1.0000 0.38890  0.77720  0.73970  Biso   1.000  H
  H30      1.0000 0.11110  0.77720  0.76030  Biso   1.000  H
  H31      1.0000 0.61110  0.22280  0.26030  Biso   1.000  H
  H32      1.0000 0.88890  0.22280  0.23970  Biso   1.000  H
  C25      1.0000 0.48850  0.25550  0.65270  Biso   1.000  C
  C26      1.0000 0.01150  0.25550  0.84730  Biso   1.000  C
  C27      1.0000 0.51150  0.74450  0.34730  Biso   1.000  C
  C28      1.0000 0.98850  0.74450  0.15270  Biso   1.000  C
  C29      1.0000 0.56910  0.47360  0.72620  Biso   1.000  C
  C30      1.0000 0.93090  0.47360  0.77380  Biso   1.000  C
  C31      1.0000 0.43090  0.52640  0.27380  Biso   1.000  C
  C32      1.0000 0.06910  0.52640  0.22620  Biso   1.000  C
  H33      1.0000 0.60000  0.57630  0.73660  Biso   1.000  H
  H34      1.0000 0.90000  0.57630  0.76340  Biso   1.000  H
  H35      1.0000 0.40000  0.42370  0.26340  Biso   1.000  H
  H36      1.0000 0.10000  0.42370  0.23660  Biso   1.000  H
  Cl1      1.0000 0.75000  0.93480  0.75000  Biso   1.000  Cl
  Cl2      1.0000 0.25000  0.06520  0.25000  Biso   1.000  Cl
  O9       1.0000 0.65470  0.84160  0.74310  Biso   1.000  O
  O10      1.0000 0.84530  0.84160  0.75690  Biso   1.000  O
  O11      1.0000 0.34530  0.15840  0.25690  Biso   1.000  O
  O12      1.0000 0.15470  0.15840  0.24310  Biso   1.000  O
  O13      1.0000 0.77930  0.03510  0.83660  Biso   1.000  O
  O14      1.0000 0.72070  0.03510  0.66340  Biso   1.000  O
  O15      1.0000 0.22070  0.96490  0.16340  Biso   1.000  O
  O16      1.0000 0.27930  0.96490  0.33660  Biso   1.000  O
  Cl3      1.0000 0.75000  0.54570  0.25000  Biso   1.000  Cl
  Cl4      1.0000 0.25000  0.45430  0.75000  Biso   1.000  Cl
  O17      1.0000 0.75000  0.71290  0.25000  Biso   1.000  O
  O18      1.0000 0.25000  0.28710  0.75000  Biso   1.000  O
  O19      1.0000 0.65100  0.51990  0.13560  Biso   1.000  O
  O20      1.0000 0.84900  0.51990  0.36440  Biso   1.000  O
  O21      1.0000 0.34900  0.48010  0.86440  Biso   1.000  O
  O22      1.0000 0.15100  0.48010  0.63560  Biso   1.000  O
  O23      1.0000 0.82640  0.47610  0.22180  Biso   1.000  O
  O24      1.0000 0.67360  0.47610  0.27820  Biso   1.000  O
  O25      1.0000 0.17360  0.52390  0.77820  Biso   1.000  O
  O26      1.0000 0.32640  0.52390  0.72180  Biso   1.000  O
  O27      1.0000 0.53920  0.82470  0.99530  Biso   1.000  O
  O28      1.0000 0.96080  0.82470  0.50470  Biso   1.000  O
  O29      1.0000 0.46080  0.17530  0.00470  Biso   1.000  O
  O30      1.0000 0.03920  0.17530  0.49530  Biso   1.000  O
  H37      1.0000 0.51520  0.89010  0.02540  Biso   1.000  H
  H38      1.0000 0.98480  0.89010  0.47460  Biso   1.000  H
  H39      1.0000 0.48480  0.10990  0.97460  Biso   1.000  H
  H40      1.0000 0.01520  0.10990  0.52540  Biso   1.000  H
  C33      1.0000 0.65210  0.85920  0.01460  Biso   1.000  C
  C34      1.0000 0.84790  0.85920  0.48540  Biso   1.000  C
  C35      1.0000 0.34790  0.14080  0.98540  Biso   1.000  C
  C36      1.0000 0.15210  0.14080  0.51460  Biso   1.000  C
  H41      1.0000 0.67420  0.95620  0.05440  Biso   1.000  H
  H42      1.0000 0.82580  0.95620  0.44560  Biso   1.000  H
  H43      1.0000 0.32580  0.04380  0.94560  Biso   1.000  H
  H44      1.0000 0.17420  0.04380  0.55440  Biso   1.000  H
  H45      1.0000 0.66040  0.87280  0.95010  Biso   1.000  H
  H46      1.0000 0.83960  0.87280  0.54990  Biso   1.000  H
  H47      1.0000 0.33960  0.12720  0.04990  Biso   1.000  H
  H48      1.0000 0.16040  0.12720  0.45010  Biso   1.000  H
  H49      1.0000 0.69950  0.77240  0.05260  Biso   1.000  H
  H50      1.0000 0.80050  0.77240  0.44740  Biso   1.000  H
  H51      1.0000 0.30050  0.22760  0.94740  Biso   1.000  H
  H52      1.0000 0.19950  0.22760  0.55260  Biso   1.000  H
