data_image0
_cell_length_a       15.1823
_cell_length_b       7.801
_cell_length_c       31.418
_cell_angle_alpha    90
_cell_angle_beta     90
_cell_angle_gamma    90

_symmetry_space_group_name_H-M    "P 1"
_symmetry_int_tables_number       1

loop_
  _symmetry_equiv_pos_as_xyz
  'x, y, z'

loop_
  _atom_site_label
  _atom_site_occupancy
  _atom_site_fract_x
  _atom_site_fract_y
  _atom_site_fract_z
  _atom_site_thermal_displace_type
  _atom_site_B_iso_or_equiv
  _atom_site_type_symbol
  Cu1      1.0000 0.60841  0.34919  0.24517  Biso   1.000  Cu
  Cu2      1.0000 0.89159  0.65081  0.74517  Biso   1.000  Cu
  Cu3      1.0000 0.10841  0.15081  0.75483  Biso   1.000  Cu
  Cu4      1.0000 0.39159  0.84919  0.25483  Biso   1.000  Cu
  Cu5      1.0000 0.39159  0.65081  0.75483  Biso   1.000  Cu
  Cu6      1.0000 0.10841  0.34919  0.25483  Biso   1.000  Cu
  Cu7      1.0000 0.89159  0.84919  0.24517  Biso   1.000  Cu
  Cu8      1.0000 0.60841  0.15081  0.74517  Biso   1.000  Cu
  O1       1.0000 0.84580  0.81550  0.06451  Biso   1.000  O
  O2       1.0000 0.65420  0.18450  0.56451  Biso   1.000  O
  O3       1.0000 0.34580  0.68450  0.93549  Biso   1.000  O
  O4       1.0000 0.15420  0.31550  0.43549  Biso   1.000  O
  O5       1.0000 0.15420  0.18450  0.93549  Biso   1.000  O
  O6       1.0000 0.34580  0.81550  0.43549  Biso   1.000  O
  O7       1.0000 0.65420  0.31550  0.06451  Biso   1.000  O
  O8       1.0000 0.84580  0.68450  0.56451  Biso   1.000  O
  O9       1.0000 0.93430  0.26850  0.08648  Biso   1.000  O
  O10      1.0000 0.56570  0.73150  0.58648  Biso   1.000  O
  O11      1.0000 0.43430  0.23150  0.91352  Biso   1.000  O
  O12      1.0000 0.06570  0.76850  0.41352  Biso   1.000  O
  O13      1.0000 0.06570  0.73150  0.91352  Biso   1.000  O
  O14      1.0000 0.43430  0.26850  0.41352  Biso   1.000  O
  O15      1.0000 0.56570  0.76850  0.08648  Biso   1.000  O
  O16      1.0000 0.93430  0.23150  0.58648  Biso   1.000  O
  O17      1.0000 0.69600  0.23280  0.27835  Biso   1.000  O
  O18      1.0000 0.80400  0.76720  0.77835  Biso   1.000  O
  O19      1.0000 0.19600  0.26720  0.72165  Biso   1.000  O
  O20      1.0000 0.30400  0.73280  0.22165  Biso   1.000  O
  O21      1.0000 0.30400  0.76720  0.72165  Biso   1.000  O
  O22      1.0000 0.19600  0.23280  0.22165  Biso   1.000  O
  O23      1.0000 0.80400  0.73280  0.27835  Biso   1.000  O
  O24      1.0000 0.69600  0.26720  0.77835  Biso   1.000  O
  O25      1.0000 0.74730  0.10300  0.33535  Biso   1.000  O
  O26      1.0000 0.75270  0.89700  0.83535  Biso   1.000  O
  O27      1.0000 0.24730  0.39700  0.66465  Biso   1.000  O
  O28      1.0000 0.25270  0.60300  0.16465  Biso   1.000  O
  O29      1.0000 0.25270  0.89700  0.66465  Biso   1.000  O
  O30      1.0000 0.24730  0.10300  0.16465  Biso   1.000  O
  O31      1.0000 0.75270  0.60300  0.33535  Biso   1.000  O
  O32      1.0000 0.74730  0.39700  0.83535  Biso   1.000  O
  O33      1.0000 0.51820  0.18010  0.26303  Biso   1.000  O
  O34      1.0000 0.98180  0.81990  0.76303  Biso   1.000  O
  O35      1.0000 0.01820  0.31990  0.73697  Biso   1.000  O
  O36      1.0000 0.48180  0.68010  0.23697  Biso   1.000  O
  O37      1.0000 0.48180  0.81990  0.73697  Biso   1.000  O
  O38      1.0000 0.01820  0.18010  0.23697  Biso   1.000  O
  O39      1.0000 0.98180  0.68010  0.26303  Biso   1.000  O
  O40      1.0000 0.51820  0.31990  0.76303  Biso   1.000  O
  O41      1.0000 0.48410  0.93300  0.29353  Biso   1.000  O
  O42      1.0000 0.01590  0.06700  0.79353  Biso   1.000  O
  O43      1.0000 0.98410  0.56700  0.70647  Biso   1.000  O
  O44      1.0000 0.51590  0.43300  0.20647  Biso   1.000  O
  O45      1.0000 0.51590  0.06700  0.70647  Biso   1.000  O
  O46      1.0000 0.98410  0.93300  0.20647  Biso   1.000  O
  O47      1.0000 0.01590  0.43300  0.29353  Biso   1.000  O
  O48      1.0000 0.48410  0.56700  0.79353  Biso   1.000  O
  O49      1.0000 0.59480  0.54090  0.29763  Biso   1.000  O
  O50      1.0000 0.90520  0.45910  0.79763  Biso   1.000  O
  O51      1.0000 0.09480  0.95910  0.70237  Biso   1.000  O
  O52      1.0000 0.40520  0.04090  0.20237  Biso   1.000  O
  O53      1.0000 0.40520  0.45910  0.70237  Biso   1.000  O
  O54      1.0000 0.09480  0.54090  0.20237  Biso   1.000  O
  O55      1.0000 0.90520  0.04090  0.29763  Biso   1.000  O
  O56      1.0000 0.59480  0.95910  0.79763  Biso   1.000  O
  H1       1.0000 0.64270  0.55440  0.30930  Biso   1.000  H
  H2       1.0000 0.85730  0.44560  0.80930  Biso   1.000  H
  H3       1.0000 0.14270  0.94560  0.69070  Biso   1.000  H
  H4       1.0000 0.35730  0.05440  0.19070  Biso   1.000  H
  H5       1.0000 0.35730  0.44560  0.69070  Biso   1.000  H
  H6       1.0000 0.14270  0.55440  0.19070  Biso   1.000  H
  H7       1.0000 0.85730  0.05440  0.30930  Biso   1.000  H
  H8       1.0000 0.64270  0.94560  0.80930  Biso   1.000  H
  N1       1.0000 0.89550  0.54340  0.07468  Biso   1.000  N
  N2       1.0000 0.60450  0.45660  0.57468  Biso   1.000  N
  N3       1.0000 0.39550  0.95660  0.92532  Biso   1.000  N
  N4       1.0000 0.10450  0.04340  0.42532  Biso   1.000  N
  N5       1.0000 0.10450  0.45660  0.92532  Biso   1.000  N
  N6       1.0000 0.39550  0.54340  0.42532  Biso   1.000  N
  N7       1.0000 0.60450  0.04340  0.07468  Biso   1.000  N
  N8       1.0000 0.89550  0.95660  0.57468  Biso   1.000  N
  N9       1.0000 0.70410  0.43140  0.20482  Biso   1.000  N
  N10      1.0000 0.79590  0.56860  0.70482  Biso   1.000  N
  N11      1.0000 0.20410  0.06860  0.79518  Biso   1.000  N
  N12      1.0000 0.29590  0.93140  0.29518  Biso   1.000  N
  N13      1.0000 0.29590  0.56860  0.79518  Biso   1.000  N
  N14      1.0000 0.20410  0.43140  0.29518  Biso   1.000  N
  N15      1.0000 0.79590  0.93140  0.20482  Biso   1.000  N
  N16      1.0000 0.70410  0.06860  0.70482  Biso   1.000  N
  C1       1.0000 0.86390  0.67660  0.04900  Biso   1.000  C
  C2       1.0000 0.63610  0.32340  0.54900  Biso   1.000  C
  C3       1.0000 0.36390  0.82340  0.95100  Biso   1.000  C
  C4       1.0000 0.13610  0.17660  0.45100  Biso   1.000  C
  C5       1.0000 0.13610  0.32340  0.95100  Biso   1.000  C
  C6       1.0000 0.36390  0.67660  0.45100  Biso   1.000  C
  C7       1.0000 0.63610  0.17660  0.04900  Biso   1.000  C
  C8       1.0000 0.86390  0.82340  0.54900  Biso   1.000  C
  C9       1.0000 0.85610  0.64130  0.00303  Biso   1.000  C
  C10      1.0000 0.64390  0.35870  0.50303  Biso   1.000  C
  C11      1.0000 0.35610  0.85870  0.99697  Biso   1.000  C
  C12      1.0000 0.14390  0.14130  0.49697  Biso   1.000  C
  C13      1.0000 0.14390  0.35870  0.99697  Biso   1.000  C
  C14      1.0000 0.35610  0.64130  0.49697  Biso   1.000  C
  C15      1.0000 0.64390  0.14130  0.00303  Biso   1.000  C
  C16      1.0000 0.85610  0.85870  0.50303  Biso   1.000  C
  C17      1.0000 0.82770  0.76690  0.97584  Biso   1.000  C
  C18      1.0000 0.67230  0.23310  0.47584  Biso   1.000  C
  C19      1.0000 0.32770  0.73310  0.02416  Biso   1.000  C
  C20      1.0000 0.17230  0.26690  0.52416  Biso   1.000  C
  C21      1.0000 0.17230  0.23310  0.02416  Biso   1.000  C
  C22      1.0000 0.32770  0.76690  0.52416  Biso   1.000  C
  C23      1.0000 0.67230  0.26690  0.97584  Biso   1.000  C
  C24      1.0000 0.82770  0.73310  0.47584  Biso   1.000  C
  H9       1.0000 0.81130  0.87330  0.98660  Biso   1.000  H
  H10      1.0000 0.68870  0.12670  0.48660  Biso   1.000  H
  H11      1.0000 0.31130  0.62670  0.01340  Biso   1.000  H
  H12      1.0000 0.18870  0.37330  0.51340  Biso   1.000  H
  H13      1.0000 0.18870  0.12670  0.01340  Biso   1.000  H
  H14      1.0000 0.31130  0.87330  0.51340  Biso   1.000  H
  H15      1.0000 0.68870  0.37330  0.98660  Biso   1.000  H
  H16      1.0000 0.81130  0.62670  0.48660  Biso   1.000  H
  C25      1.0000 0.82310  0.73670  0.93220  Biso   1.000  C
  C26      1.0000 0.67690  0.26330  0.43220  Biso   1.000  C
  C27      1.0000 0.32310  0.76330  0.06780  Biso   1.000  C
  C28      1.0000 0.17690  0.23670  0.56780  Biso   1.000  C
  C29      1.0000 0.17690  0.26330  0.06780  Biso   1.000  C
  C30      1.0000 0.32310  0.73670  0.56780  Biso   1.000  C
  C31      1.0000 0.67690  0.23670  0.93220  Biso   1.000  C
  C32      1.0000 0.82310  0.76330  0.43220  Biso   1.000  C
  H17      1.0000 0.80460  0.82370  0.91400  Biso   1.000  H
  H18      1.0000 0.69540  0.17630  0.41400  Biso   1.000  H
  H19      1.0000 0.30460  0.67630  0.08600  Biso   1.000  H
  H20      1.0000 0.19540  0.32370  0.58600  Biso   1.000  H
  H21      1.0000 0.19540  0.17630  0.08600  Biso   1.000  H
  H22      1.0000 0.30460  0.82370  0.58600  Biso   1.000  H
  H23      1.0000 0.69540  0.32370  0.91400  Biso   1.000  H
  H24      1.0000 0.80460  0.67630  0.41400  Biso   1.000  H
  C33      1.0000 0.84530  0.58250  0.91608  Biso   1.000  C
  C34      1.0000 0.65470  0.41750  0.41608  Biso   1.000  C
  C35      1.0000 0.34530  0.91750  0.08392  Biso   1.000  C
  C36      1.0000 0.15470  0.08250  0.58392  Biso   1.000  C
  C37      1.0000 0.15470  0.41750  0.08392  Biso   1.000  C
  C38      1.0000 0.34530  0.58250  0.58392  Biso   1.000  C
  C39      1.0000 0.65470  0.08250  0.91608  Biso   1.000  C
  C40      1.0000 0.84530  0.91750  0.41608  Biso   1.000  C
  H25      1.0000 0.84170  0.56470  0.88690  Biso   1.000  H
  H26      1.0000 0.65830  0.43530  0.38690  Biso   1.000  H
  H27      1.0000 0.34170  0.93530  0.11310  Biso   1.000  H
  H28      1.0000 0.15830  0.06470  0.61310  Biso   1.000  H
  H29      1.0000 0.15830  0.43530  0.11310  Biso   1.000  H
  H30      1.0000 0.34170  0.56470  0.61310  Biso   1.000  H
  H31      1.0000 0.65830  0.06470  0.88690  Biso   1.000  H
  H32      1.0000 0.84170  0.93530  0.38690  Biso   1.000  H
  C41      1.0000 0.87360  0.44830  0.94255  Biso   1.000  C
  C42      1.0000 0.62640  0.55170  0.44255  Biso   1.000  C
  C43      1.0000 0.37360  0.05170  0.05745  Biso   1.000  C
  C44      1.0000 0.12640  0.94830  0.55745  Biso   1.000  C
  C45      1.0000 0.12640  0.55170  0.05745  Biso   1.000  C
  C46      1.0000 0.37360  0.44830  0.55745  Biso   1.000  C
  C47      1.0000 0.62640  0.94830  0.94255  Biso   1.000  C
  C48      1.0000 0.87360  0.05170  0.44255  Biso   1.000  C
  C49      1.0000 0.87880  0.47870  0.98728  Biso   1.000  C
  C50      1.0000 0.62120  0.52130  0.48728  Biso   1.000  C
  C51      1.0000 0.37880  0.02130  0.01272  Biso   1.000  C
  C52      1.0000 0.12120  0.97870  0.51272  Biso   1.000  C
  C53      1.0000 0.12120  0.52130  0.01272  Biso   1.000  C
  C54      1.0000 0.37880  0.47870  0.51272  Biso   1.000  C
  C55      1.0000 0.62120  0.97870  0.98728  Biso   1.000  C
  C56      1.0000 0.87880  0.02130  0.48728  Biso   1.000  C
  C57      1.0000 0.89620  0.28470  0.92766  Biso   1.000  C
  C58      1.0000 0.60380  0.71530  0.42766  Biso   1.000  C
  C59      1.0000 0.39620  0.21530  0.07234  Biso   1.000  C
  C60      1.0000 0.10380  0.78470  0.57234  Biso   1.000  C
  C61      1.0000 0.10380  0.71530  0.07234  Biso   1.000  C
  C62      1.0000 0.39620  0.28470  0.57234  Biso   1.000  C
  C63      1.0000 0.60380  0.78470  0.92766  Biso   1.000  C
  C64      1.0000 0.89620  0.21530  0.42766  Biso   1.000  C
  H33      1.0000 0.89380  0.26260  0.89860  Biso   1.000  H
  H34      1.0000 0.60620  0.73740  0.39860  Biso   1.000  H
  H35      1.0000 0.39380  0.23740  0.10140  Biso   1.000  H
  H36      1.0000 0.10620  0.76260  0.60140  Biso   1.000  H
  H37      1.0000 0.10620  0.73740  0.10140  Biso   1.000  H
  H38      1.0000 0.39380  0.26260  0.60140  Biso   1.000  H
  H39      1.0000 0.60620  0.76260  0.89860  Biso   1.000  H
  H40      1.0000 0.89380  0.23740  0.39860  Biso   1.000  H
  C65      1.0000 0.92140  0.15930  0.95420  Biso   1.000  C
  C66      1.0000 0.57860  0.84070  0.45420  Biso   1.000  C
  C67      1.0000 0.42140  0.34070  0.04580  Biso   1.000  C
  C68      1.0000 0.07860  0.65930  0.54580  Biso   1.000  C
  C69      1.0000 0.07860  0.84070  0.04580  Biso   1.000  C
  C70      1.0000 0.42140  0.15930  0.54580  Biso   1.000  C
  C71      1.0000 0.57860  0.65930  0.95420  Biso   1.000  C
  C72      1.0000 0.92140  0.34070  0.45420  Biso   1.000  C
  H41      1.0000 0.93680  0.05260  0.94330  Biso   1.000  H
  H42      1.0000 0.56320  0.94740  0.44330  Biso   1.000  H
  H43      1.0000 0.43680  0.44740  0.05670  Biso   1.000  H
  H44      1.0000 0.06320  0.55260  0.55670  Biso   1.000  H
  H45      1.0000 0.06320  0.94740  0.05670  Biso   1.000  H
  H46      1.0000 0.43680  0.05260  0.55670  Biso   1.000  H
  H47      1.0000 0.56320  0.55260  0.94330  Biso   1.000  H
  H48      1.0000 0.93680  0.44740  0.44330  Biso   1.000  H
  C73      1.0000 0.92450  0.18730  0.99816  Biso   1.000  C
  C74      1.0000 0.57550  0.81270  0.49816  Biso   1.000  C
  C75      1.0000 0.42450  0.31270  0.00184  Biso   1.000  C
  C76      1.0000 0.07550  0.68730  0.50184  Biso   1.000  C
  C77      1.0000 0.07550  0.81270  0.00184  Biso   1.000  C
  C78      1.0000 0.42450  0.18730  0.50184  Biso   1.000  C
  C79      1.0000 0.57550  0.68730  0.99816  Biso   1.000  C
  C80      1.0000 0.92450  0.31270  0.49816  Biso   1.000  C
  H49      1.0000 0.93990  0.09810  0.01630  Biso   1.000  H
  H50      1.0000 0.56010  0.90190  0.51630  Biso   1.000  H
  H51      1.0000 0.43990  0.40190  0.98370  Biso   1.000  H
  H52      1.0000 0.06010  0.59810  0.48370  Biso   1.000  H
  H53      1.0000 0.06010  0.90190  0.98370  Biso   1.000  H
  H54      1.0000 0.43990  0.09810  0.48370  Biso   1.000  H
  H55      1.0000 0.56010  0.59810  0.01630  Biso   1.000  H
  H56      1.0000 0.93990  0.40190  0.51630  Biso   1.000  H
  C81      1.0000 0.90500  0.34560  0.01456  Biso   1.000  C
  C82      1.0000 0.59500  0.65440  0.51456  Biso   1.000  C
  C83      1.0000 0.40500  0.15440  0.98544  Biso   1.000  C
  C84      1.0000 0.09500  0.84560  0.48544  Biso   1.000  C
  C85      1.0000 0.09500  0.65440  0.98544  Biso   1.000  C
  C86      1.0000 0.40500  0.34560  0.48544  Biso   1.000  C
  C87      1.0000 0.59500  0.84560  0.01456  Biso   1.000  C
  C88      1.0000 0.90500  0.15440  0.51456  Biso   1.000  C
  C89      1.0000 0.91250  0.37750  0.06078  Biso   1.000  C
  C90      1.0000 0.58750  0.62250  0.56078  Biso   1.000  C
  C91      1.0000 0.41250  0.12250  0.93922  Biso   1.000  C
  C92      1.0000 0.08750  0.87750  0.43922  Biso   1.000  C
  C93      1.0000 0.08750  0.62250  0.93922  Biso   1.000  C
  C94      1.0000 0.41250  0.37750  0.43922  Biso   1.000  C
  C95      1.0000 0.58750  0.87750  0.06078  Biso   1.000  C
  C96      1.0000 0.91250  0.12250  0.56078  Biso   1.000  C
  C97      1.0000 0.91300  0.58130  0.11971  Biso   1.000  C
  C98      1.0000 0.58700  0.41870  0.61971  Biso   1.000  C
  C99      1.0000 0.41300  0.91870  0.88029  Biso   1.000  C
  C100     1.0000 0.08700  0.08130  0.38029  Biso   1.000  C
  C101     1.0000 0.08700  0.41870  0.88029  Biso   1.000  C
  C102     1.0000 0.41300  0.58130  0.38029  Biso   1.000  C
  C103     1.0000 0.58700  0.08130  0.11971  Biso   1.000  C
  C104     1.0000 0.91300  0.91870  0.61971  Biso   1.000  C
  H57      1.0000 0.92310  0.70340  0.12280  Biso   1.000  H
  H58      1.0000 0.57690  0.29660  0.62280  Biso   1.000  H
  H59      1.0000 0.42310  0.79660  0.87720  Biso   1.000  H
  H60      1.0000 0.07690  0.20340  0.37720  Biso   1.000  H
  H61      1.0000 0.07690  0.29660  0.87720  Biso   1.000  H
  H62      1.0000 0.42310  0.70340  0.37720  Biso   1.000  H
  H63      1.0000 0.57690  0.20340  0.12280  Biso   1.000  H
  H64      1.0000 0.92310  0.79660  0.62280  Biso   1.000  H
  H65      1.0000 0.96640  0.52240  0.12830  Biso   1.000  H
  H66      1.0000 0.53360  0.47760  0.62830  Biso   1.000  H
  H67      1.0000 0.46640  0.97760  0.87170  Biso   1.000  H
  H68      1.0000 0.03360  0.02240  0.37170  Biso   1.000  H
  H69      1.0000 0.03360  0.47760  0.87170  Biso   1.000  H
  H70      1.0000 0.46640  0.52240  0.37170  Biso   1.000  H
  H71      1.0000 0.53360  0.02240  0.12830  Biso   1.000  H
  H72      1.0000 0.96640  0.97760  0.62830  Biso   1.000  H
  C105     1.0000 0.83870  0.52840  0.14910  Biso   1.000  C
  C106     1.0000 0.66130  0.47160  0.64910  Biso   1.000  C
  C107     1.0000 0.33870  0.97160  0.85090  Biso   1.000  C
  C108     1.0000 0.16130  0.02840  0.35090  Biso   1.000  C
  C109     1.0000 0.16130  0.47160  0.85090  Biso   1.000  C
  C110     1.0000 0.33870  0.52840  0.35090  Biso   1.000  C
  C111     1.0000 0.66130  0.02840  0.14910  Biso   1.000  C
  C112     1.0000 0.83870  0.97160  0.64910  Biso   1.000  C
  C113     1.0000 0.75160  0.54740  0.13808  Biso   1.000  C
  C114     1.0000 0.74840  0.45260  0.63808  Biso   1.000  C
  C115     1.0000 0.25160  0.95260  0.86192  Biso   1.000  C
  C116     1.0000 0.24840  0.04740  0.36192  Biso   1.000  C
  C117     1.0000 0.24840  0.45260  0.86192  Biso   1.000  C
  C118     1.0000 0.25160  0.54740  0.36192  Biso   1.000  C
  C119     1.0000 0.74840  0.04740  0.13808  Biso   1.000  C
  C120     1.0000 0.75160  0.95260  0.63808  Biso   1.000  C
  H73      1.0000 0.73660  0.59280  0.11170  Biso   1.000  H
  H74      1.0000 0.76340  0.40720  0.61170  Biso   1.000  H
  H75      1.0000 0.23660  0.90720  0.88830  Biso   1.000  H
  H76      1.0000 0.26340  0.09280  0.38830  Biso   1.000  H
  H77      1.0000 0.26340  0.40720  0.88830  Biso   1.000  H
  H78      1.0000 0.23660  0.59280  0.38830  Biso   1.000  H
  H79      1.0000 0.76340  0.09280  0.11170  Biso   1.000  H
  H80      1.0000 0.73660  0.90720  0.61170  Biso   1.000  H
  C121     1.0000 0.68680  0.49920  0.16623  Biso   1.000  C
  C122     1.0000 0.81320  0.50080  0.66623  Biso   1.000  C
  C123     1.0000 0.18680  0.00080  0.83377  Biso   1.000  C
  C124     1.0000 0.31320  0.99920  0.33377  Biso   1.000  C
  C125     1.0000 0.31320  0.50080  0.83377  Biso   1.000  C
  C126     1.0000 0.18680  0.49920  0.33377  Biso   1.000  C
  C127     1.0000 0.81320  0.99920  0.16623  Biso   1.000  C
  C128     1.0000 0.68680  0.00080  0.66623  Biso   1.000  C
  H81      1.0000 0.62830  0.51410  0.15830  Biso   1.000  H
  H82      1.0000 0.87170  0.48590  0.65830  Biso   1.000  H
  H83      1.0000 0.12830  0.98590  0.84170  Biso   1.000  H
  H84      1.0000 0.37170  0.01410  0.34170  Biso   1.000  H
  H85      1.0000 0.37170  0.48590  0.84170  Biso   1.000  H
  H86      1.0000 0.12830  0.51410  0.34170  Biso   1.000  H
  H87      1.0000 0.87170  0.01410  0.15830  Biso   1.000  H
  H88      1.0000 0.62830  0.98590  0.65830  Biso   1.000  H
  C129     1.0000 0.78960  0.41240  0.21488  Biso   1.000  C
  C130     1.0000 0.71040  0.58760  0.71488  Biso   1.000  C
  C131     1.0000 0.28960  0.08760  0.78512  Biso   1.000  C
  C132     1.0000 0.21040  0.91240  0.28512  Biso   1.000  C
  C133     1.0000 0.21040  0.58760  0.78512  Biso   1.000  C
  C134     1.0000 0.28960  0.41240  0.28512  Biso   1.000  C
  C135     1.0000 0.71040  0.91240  0.21488  Biso   1.000  C
  C136     1.0000 0.78960  0.08760  0.71488  Biso   1.000  C
  H89      1.0000 0.80370  0.36540  0.24120  Biso   1.000  H
  H90      1.0000 0.69630  0.63460  0.74120  Biso   1.000  H
  H91      1.0000 0.30370  0.13460  0.75880  Biso   1.000  H
  H92      1.0000 0.19630  0.86540  0.25880  Biso   1.000  H
  H93      1.0000 0.19630  0.63460  0.75880  Biso   1.000  H
  H94      1.0000 0.30370  0.36540  0.25880  Biso   1.000  H
  H95      1.0000 0.69630  0.86540  0.24120  Biso   1.000  H
  H96      1.0000 0.80370  0.13460  0.74120  Biso   1.000  H
  C137     1.0000 0.85710  0.45890  0.18824  Biso   1.000  C
  C138     1.0000 0.64290  0.54110  0.68824  Biso   1.000  C
  C139     1.0000 0.35710  0.04110  0.81176  Biso   1.000  C
  C140     1.0000 0.14290  0.95890  0.31176  Biso   1.000  C
  C141     1.0000 0.14290  0.54110  0.81176  Biso   1.000  C
  C142     1.0000 0.35710  0.45890  0.31176  Biso   1.000  C
  C143     1.0000 0.64290  0.95890  0.18824  Biso   1.000  C
  C144     1.0000 0.85710  0.04110  0.68824  Biso   1.000  C
  H97      1.0000 0.91520  0.44320  0.19670  Biso   1.000  H
  H98      1.0000 0.58480  0.55680  0.69670  Biso   1.000  H
  H99      1.0000 0.41520  0.05680  0.80330  Biso   1.000  H
  H100     1.0000 0.08480  0.94320  0.30330  Biso   1.000  H
  H101     1.0000 0.08480  0.55680  0.80330  Biso   1.000  H
  H102     1.0000 0.41520  0.44320  0.30330  Biso   1.000  H
  H103     1.0000 0.58480  0.94320  0.19670  Biso   1.000  H
  H104     1.0000 0.91520  0.05680  0.69670  Biso   1.000  H
  C145     1.0000 0.68560  0.14930  0.31285  Biso   1.000  C
  C146     1.0000 0.81440  0.85070  0.81285  Biso   1.000  C
  C147     1.0000 0.18560  0.35070  0.68715  Biso   1.000  C
  C148     1.0000 0.31440  0.64930  0.18715  Biso   1.000  C
  C149     1.0000 0.31440  0.85070  0.68715  Biso   1.000  C
  C150     1.0000 0.18560  0.14930  0.18715  Biso   1.000  C
  C151     1.0000 0.81440  0.64930  0.31285  Biso   1.000  C
  C152     1.0000 0.68560  0.35070  0.81285  Biso   1.000  C
  C153     1.0000 0.59280  0.10300  0.32691  Biso   1.000  C
  C154     1.0000 0.90720  0.89700  0.82691  Biso   1.000  C
  C155     1.0000 0.09280  0.39700  0.67309  Biso   1.000  C
  C156     1.0000 0.40720  0.60300  0.17309  Biso   1.000  C
  C157     1.0000 0.40720  0.89700  0.67309  Biso   1.000  C
  C158     1.0000 0.09280  0.10300  0.17309  Biso   1.000  C
  C159     1.0000 0.90720  0.60300  0.32691  Biso   1.000  C
  C160     1.0000 0.59280  0.39700  0.82691  Biso   1.000  C
  H105     1.0000 0.59600  0.00150  0.34460  Biso   1.000  H
  H106     1.0000 0.90400  0.99850  0.84460  Biso   1.000  H
  H107     1.0000 0.09600  0.49850  0.65540  Biso   1.000  H
  H108     1.0000 0.40400  0.50150  0.15540  Biso   1.000  H
  H109     1.0000 0.40400  0.99850  0.65540  Biso   1.000  H
  H110     1.0000 0.09600  0.00150  0.15540  Biso   1.000  H
  H111     1.0000 0.90400  0.50150  0.34460  Biso   1.000  H
  H112     1.0000 0.59600  0.49850  0.84460  Biso   1.000  H
  H113     1.0000 0.57030  0.19560  0.34440  Biso   1.000  H
  H114     1.0000 0.92970  0.80440  0.84440  Biso   1.000  H
  H115     1.0000 0.07030  0.30440  0.65560  Biso   1.000  H
  H116     1.0000 0.42970  0.69560  0.15560  Biso   1.000  H
  H117     1.0000 0.42970  0.80440  0.65560  Biso   1.000  H
  H118     1.0000 0.07030  0.19560  0.15560  Biso   1.000  H
  H119     1.0000 0.92970  0.69560  0.34440  Biso   1.000  H
  H120     1.0000 0.57030  0.30440  0.84440  Biso   1.000  H
  C161     1.0000 0.52810  0.07000  0.29186  Biso   1.000  C
  C162     1.0000 0.97190  0.93000  0.79186  Biso   1.000  C
  C163     1.0000 0.02810  0.43000  0.70814  Biso   1.000  C
  C164     1.0000 0.47190  0.57000  0.20814  Biso   1.000  C
  C165     1.0000 0.47190  0.93000  0.70814  Biso   1.000  C
  C166     1.0000 0.02810  0.07000  0.20814  Biso   1.000  C
  C167     1.0000 0.97190  0.57000  0.29186  Biso   1.000  C
  C168     1.0000 0.52810  0.43000  0.79186  Biso   1.000  C
  H121     1.0000 0.57300  0.61100  0.28900  Biso   1.000  H
  H122     1.0000 0.92700  0.38900  0.78900  Biso   1.000  H
  H123     1.0000 0.07300  0.88900  0.71100  Biso   1.000  H
  H124     1.0000 0.42700  0.11100  0.21100  Biso   1.000  H
  H125     1.0000 0.42700  0.38900  0.71100  Biso   1.000  H
  H126     1.0000 0.07300  0.61100  0.21100  Biso   1.000  H
  H127     1.0000 0.92700  0.11100  0.28900  Biso   1.000  H
  H128     1.0000 0.57300  0.88900  0.78900  Biso   1.000  H
