data_image0
_cell_length_a       13.796
_cell_length_b       19.43
_cell_length_c       12.057
_cell_angle_alpha    90
_cell_angle_beta     139.172
_cell_angle_gamma    90

_symmetry_space_group_name_H-M    "P 1"
_symmetry_int_tables_number       1

loop_
  _symmetry_equiv_pos_as_xyz
  'x, y, z'

loop_
  _atom_site_label
  _atom_site_occupancy
  _atom_site_fract_x
  _atom_site_fract_y
  _atom_site_fract_z
  _atom_site_thermal_displace_type
  _atom_site_B_iso_or_equiv
  _atom_site_type_symbol
  Cu1      1.0000 0.18396  0.06497  0.22400  Biso   1.000  Cu
  Cu2      1.0000 0.31604  0.56497  0.27600  Biso   1.000  Cu
  Cu3      1.0000 0.81604  0.93503  0.77600  Biso   1.000  Cu
  Cu4      1.0000 0.68396  0.43503  0.72400  Biso   1.000  Cu
  Cu5      1.0000 0.78689  0.95108  0.23123  Biso   1.000  Cu
  Cu6      1.0000 0.71311  0.45108  0.26877  Biso   1.000  Cu
  Cu7      1.0000 0.21311  0.04892  0.76877  Biso   1.000  Cu
  Cu8      1.0000 0.28689  0.54892  0.73123  Biso   1.000  Cu
  Cu9      1.0000 0.94593  0.08248  0.23144  Biso   1.000  Cu
  Cu10     1.0000 0.55407  0.58248  0.26856  Biso   1.000  Cu
  Cu11     1.0000 0.05407  0.91752  0.76856  Biso   1.000  Cu
  Cu12     1.0000 0.44593  0.41752  0.73144  Biso   1.000  Cu
  Cu13     1.0000 0.57124  0.55850  0.80315  Biso   1.000  Cu
  Cu14     1.0000 0.92876  0.05850  0.69685  Biso   1.000  Cu
  Cu15     1.0000 0.42876  0.44150  0.19685  Biso   1.000  Cu
  Cu16     1.0000 0.07124  0.94150  0.30315  Biso   1.000  Cu
  S1       1.0000 0.80030  0.41541  0.10940  Biso   1.000  S
  S2       1.0000 0.69970  0.91541  0.39060  Biso   1.000  S
  S3       1.0000 0.19970  0.58459  0.89060  Biso   1.000  S
  S4       1.0000 0.30030  0.08459  0.60940  Biso   1.000  S
  S5       1.0000 0.27910  0.10656  0.08400  Biso   1.000  S
  S6       1.0000 0.22090  0.60656  0.41600  Biso   1.000  S
  S7       1.0000 0.72090  0.89344  0.91600  Biso   1.000  S
  S8       1.0000 0.77910  0.39344  0.58400  Biso   1.000  S
  O1       1.0000 0.33620  0.09470  0.24540  Biso   1.000  O
  O2       1.0000 0.16380  0.59470  0.25460  Biso   1.000  O
  O3       1.0000 0.66380  0.90530  0.75460  Biso   1.000  O
  O4       1.0000 0.83620  0.40530  0.74540  Biso   1.000  O
  O5       1.0000 0.14890  0.15950  0.22650  Biso   1.000  O
  O6       1.0000 0.35110  0.65950  0.27350  Biso   1.000  O
  O7       1.0000 0.85110  0.84050  0.77350  Biso   1.000  O
  O8       1.0000 0.64890  0.34050  0.72650  Biso   1.000  O
  O9       1.0000 0.64680  0.35840  0.22150  Biso   1.000  O
  O10      1.0000 0.85320  0.85840  0.27850  Biso   1.000  O
  O11      1.0000 0.35320  0.64160  0.77850  Biso   1.000  O
  O12      1.0000 0.14680  0.14160  0.72150  Biso   1.000  O
  O13      1.0000 0.41790  0.36210  0.09590  Biso   1.000  O
  O14      1.0000 0.08210  0.86210  0.40410  Biso   1.000  O
  O15      1.0000 0.58210  0.63790  0.90410  Biso   1.000  O
  O16      1.0000 0.91790  0.13790  0.59590  Biso   1.000  O
  O17      1.0000 0.78880  0.48280  0.04720  Biso   1.000  O
  O18      1.0000 0.71120  0.98280  0.45280  Biso   1.000  O
  O19      1.0000 0.21120  0.51720  0.95280  Biso   1.000  O
  O20      1.0000 0.28880  0.01720  0.54720  Biso   1.000  O
  O21      1.0000 0.85510  0.41960  0.27130  Biso   1.000  O
  O22      1.0000 0.64490  0.91960  0.22870  Biso   1.000  O
  O23      1.0000 0.14490  0.58040  0.72870  Biso   1.000  O
  O24      1.0000 0.35510  0.08040  0.77130  Biso   1.000  O
  O25      1.0000 0.66520  0.37530  0.98530  Biso   1.000  O
  O26      1.0000 0.83480  0.87530  0.51470  Biso   1.000  O
  O27      1.0000 0.33480  0.62470  0.01470  Biso   1.000  O
  O28      1.0000 0.16520  0.12470  0.48530  Biso   1.000  O
  O29      1.0000 0.82140  0.12870  0.22880  Biso   1.000  O
  O30      1.0000 0.67860  0.62870  0.27120  Biso   1.000  O
  O31      1.0000 0.17860  0.87130  0.77120  Biso   1.000  O
  O32      1.0000 0.32140  0.37130  0.72880  Biso   1.000  O
  O33      1.0000 0.92710  0.16060  0.11820  Biso   1.000  O
  O34      1.0000 0.57290  0.66060  0.38180  Biso   1.000  O
  O35      1.0000 0.07290  0.83940  0.88180  Biso   1.000  O
  O36      1.0000 0.42710  0.33940  0.61820  Biso   1.000  O
  O37      1.0000 0.30740  0.39330  0.19900  Biso   1.000  O
  O38      1.0000 0.19260  0.89330  0.30100  Biso   1.000  O
  O39      1.0000 0.69260  0.60670  0.80100  Biso   1.000  O
  O40      1.0000 0.80740  0.10670  0.69900  Biso   1.000  O
  O41      1.0000 0.25940  0.04290  0.00530  Biso   1.000  O
  O42      1.0000 0.24060  0.54290  0.49470  Biso   1.000  O
  O43      1.0000 0.74060  0.95710  0.99470  Biso   1.000  O
  O44      1.0000 0.75940  0.45710  0.50530  Biso   1.000  O
  C1       1.0000 0.41740  0.15060  0.12720  Biso   1.000  C
  C2       1.0000 0.08260  0.65060  0.37280  Biso   1.000  C
  C3       1.0000 0.58260  0.84940  0.87280  Biso   1.000  C
  C4       1.0000 0.91740  0.34940  0.62720  Biso   1.000  C
  O45      1.0000 0.97440  0.99480  0.33990  Biso   1.000  O
  O46      1.0000 0.52560  0.49480  0.16010  Biso   1.000  O
  O47      1.0000 0.02560  0.00520  0.66010  Biso   1.000  O
  O48      1.0000 0.47440  0.50520  0.83990  Biso   1.000  O
  C5       1.0000 0.52280  0.25370  0.14890  Biso   1.000  C
  C6       1.0000 0.97720  0.75370  0.35110  Biso   1.000  C
  C7       1.0000 0.47720  0.74630  0.85110  Biso   1.000  C
  C8       1.0000 0.02280  0.24630  0.64890  Biso   1.000  C
  C9       1.0000 0.14030  0.30260  0.19690  Biso   1.000  C
  C10      1.0000 0.35970  0.80260  0.30310  Biso   1.000  C
  C11      1.0000 0.85970  0.69740  0.80310  Biso   1.000  C
  C12      1.0000 0.64030  0.19740  0.69690  Biso   1.000  C
  H1       1.0000 0.20730  0.27970  0.20950  Biso   1.000  H
  H2       1.0000 0.29270  0.77970  0.29050  Biso   1.000  H
  H3       1.0000 0.79270  0.72030  0.79050  Biso   1.000  H
  H4       1.0000 0.70730  0.22030  0.70950  Biso   1.000  H
  O49      1.0000 0.14710  0.14870  0.97230  Biso   1.000  O
  O50      1.0000 0.35290  0.64870  0.52770  Biso   1.000  O
  O51      1.0000 0.85290  0.85130  0.02770  Biso   1.000  O
  O52      1.0000 0.64710  0.35130  0.47230  Biso   1.000  O
  C13      1.0000 0.04240  0.40820  0.18480  Biso   1.000  C
  C14      1.0000 0.45760  0.90820  0.31520  Biso   1.000  C
  C15      1.0000 0.95760  0.59180  0.81520  Biso   1.000  C
  C16      1.0000 0.54240  0.09180  0.68480  Biso   1.000  C
  H5       1.0000 0.04560  0.45590  0.19340  Biso   1.000  H
  H6       1.0000 0.45440  0.95590  0.30660  Biso   1.000  H
  H7       1.0000 0.95440  0.54410  0.80660  Biso   1.000  H
  H8       1.0000 0.54560  0.04410  0.69340  Biso   1.000  H
  O53      1.0000 0.02380  0.02590  0.17520  Biso   1.000  O
  O54      1.0000 0.47620  0.52590  0.32480  Biso   1.000  O
  O55      1.0000 0.97620  0.97410  0.82480  Biso   1.000  O
  O56      1.0000 0.52380  0.47410  0.67520  Biso   1.000  O
  C17      1.0000 0.62440  0.21570  0.17450  Biso   1.000  C
  C18      1.0000 0.87560  0.71570  0.32550  Biso   1.000  C
  C19      1.0000 0.37560  0.78430  0.82550  Biso   1.000  C
  C20      1.0000 0.12440  0.28430  0.67450  Biso   1.000  C
  H9       1.0000 0.69460  0.23770  0.19140  Biso   1.000  H
  H10      1.0000 0.80540  0.73770  0.30860  Biso   1.000  H
  H11      1.0000 0.30540  0.76230  0.80860  Biso   1.000  H
  H12      1.0000 0.19460  0.26230  0.69140  Biso   1.000  H
  C21      1.0000 0.03860  0.26620  0.17090  Biso   1.000  C
  C22      1.0000 0.46140  0.76620  0.32910  Biso   1.000  C
  C23      1.0000 0.96140  0.73380  0.82910  Biso   1.000  C
  C24      1.0000 0.53860  0.23380  0.67090  Biso   1.000  C
  C25      1.0000 0.51840  0.11190  0.15590  Biso   1.000  C
  C26      1.0000 0.98160  0.61190  0.34410  Biso   1.000  C
  C27      1.0000 0.48160  0.88810  0.84410  Biso   1.000  C
  C28      1.0000 0.01840  0.38810  0.65590  Biso   1.000  C
  H13      1.0000 0.51900  0.06420  0.16280  Biso   1.000  H
  H14      1.0000 0.98100  0.56420  0.33720  Biso   1.000  H
  H15      1.0000 0.48100  0.93580  0.83720  Biso   1.000  H
  H16      1.0000 0.01900  0.43580  0.66280  Biso   1.000  H
  O57      1.0000 0.69730  0.03820  0.17890  Biso   1.000  O
  O58      1.0000 0.80270  0.53820  0.32110  Biso   1.000  O
  O59      1.0000 0.30270  0.96180  0.82110  Biso   1.000  O
  O60      1.0000 0.19730  0.46180  0.67890  Biso   1.000  O
  O61      1.0000 0.28160  0.47450  0.30390  Biso   1.000  O
  O62      1.0000 0.21840  0.97450  0.19610  Biso   1.000  O
  O63      1.0000 0.71840  0.52550  0.69610  Biso   1.000  O
  O64      1.0000 0.78160  0.02550  0.80390  Biso   1.000  O
  C29      1.0000 0.42010  0.22180  0.12590  Biso   1.000  C
  C30      1.0000 0.07990  0.72180  0.37410  Biso   1.000  C
  C31      1.0000 0.57990  0.77820  0.87410  Biso   1.000  C
  C32      1.0000 0.92010  0.27820  0.62590  Biso   1.000  C
  H17      1.0000 0.35330  0.24750  0.10970  Biso   1.000  H
  H18      1.0000 0.14670  0.74750  0.39030  Biso   1.000  H
  H19      1.0000 0.64670  0.75250  0.89030  Biso   1.000  H
  H20      1.0000 0.85330  0.25250  0.60970  Biso   1.000  H
  C33      1.0000 0.93780  0.37120  0.15230  Biso   1.000  C
  C34      1.0000 0.56220  0.87120  0.34770  Biso   1.000  C
  C35      1.0000 0.06220  0.62880  0.84770  Biso   1.000  C
  C36      1.0000 0.43780  0.12880  0.65230  Biso   1.000  C
  C37      1.0000 0.93560  0.29980  0.14550  Biso   1.000  C
  C38      1.0000 0.56440  0.79980  0.35450  Biso   1.000  C
  C39      1.0000 0.06440  0.70020  0.85450  Biso   1.000  C
  C40      1.0000 0.43560  0.20020  0.64550  Biso   1.000  C
  H21      1.0000 0.86490  0.27510  0.12370  Biso   1.000  H
  H22      1.0000 0.63510  0.77510  0.37630  Biso   1.000  H
  H23      1.0000 0.13510  0.72490  0.87630  Biso   1.000  H
  H24      1.0000 0.36490  0.22490  0.62370  Biso   1.000  H
  C41      1.0000 0.61830  0.14450  0.17420  Biso   1.000  C
  C42      1.0000 0.88170  0.64450  0.32580  Biso   1.000  C
  C43      1.0000 0.38170  0.85550  0.82580  Biso   1.000  C
  C44      1.0000 0.11830  0.35550  0.67420  Biso   1.000  C
  C45      1.0000 0.14130  0.37460  0.20420  Biso   1.000  C
  C46      1.0000 0.35870  0.87460  0.29580  Biso   1.000  C
  C47      1.0000 0.85870  0.62540  0.79580  Biso   1.000  C
  C48      1.0000 0.64130  0.12540  0.70420  Biso   1.000  C
  C49      1.0000 0.72450  0.10020  0.19920  Biso   1.000  C
  C50      1.0000 0.77550  0.60020  0.30080  Biso   1.000  C
  C51      1.0000 0.27550  0.89980  0.80080  Biso   1.000  C
  C52      1.0000 0.22450  0.39980  0.69920  Biso   1.000  C
  C53      1.0000 0.04080  0.18830  0.17280  Biso   1.000  C
  C54      1.0000 0.45920  0.68830  0.32720  Biso   1.000  C
  C55      1.0000 0.95920  0.81170  0.82720  Biso   1.000  C
  C56      1.0000 0.54080  0.31170  0.67280  Biso   1.000  C
  C57      1.0000 0.52980  0.33110  0.15350  Biso   1.000  C
  C58      1.0000 0.97020  0.83110  0.34650  Biso   1.000  C
  C59      1.0000 0.47020  0.66890  0.84650  Biso   1.000  C
  C60      1.0000 0.02980  0.16890  0.65350  Biso   1.000  C
  C61      1.0000 0.25090  0.41680  0.23540  Biso   1.000  C
  C62      1.0000 0.24910  0.91680  0.26460  Biso   1.000  C
  C63      1.0000 0.74910  0.58320  0.76460  Biso   1.000  C
  C64      1.0000 0.75090  0.08320  0.73540  Biso   1.000  C
