data_image0
_cell_length_a       13.814
_cell_length_b       19.437
_cell_length_c       12.067
_cell_angle_alpha    90
_cell_angle_beta     139.21
_cell_angle_gamma    90

_symmetry_space_group_name_H-M    "P 1"
_symmetry_int_tables_number       1

loop_
  _symmetry_equiv_pos_as_xyz
  'x, y, z'

loop_
  _atom_site_label
  _atom_site_occupancy
  _atom_site_fract_x
  _atom_site_fract_y
  _atom_site_fract_z
  _atom_site_thermal_displace_type
  _atom_site_B_iso_or_equiv
  _atom_site_type_symbol
  Cu1      1.0000 0.18379  0.06506  0.22365  Biso   1.000  Cu
  Cu2      1.0000 0.31621  0.56506  0.27635  Biso   1.000  Cu
  Cu3      1.0000 0.81621  0.93494  0.77635  Biso   1.000  Cu
  Cu4      1.0000 0.68379  0.43494  0.72365  Biso   1.000  Cu
  Cu5      1.0000 0.78694  0.95116  0.23130  Biso   1.000  Cu
  Cu6      1.0000 0.71306  0.45116  0.26870  Biso   1.000  Cu
  Cu7      1.0000 0.21306  0.04884  0.76870  Biso   1.000  Cu
  Cu8      1.0000 0.28694  0.54884  0.73130  Biso   1.000  Cu
  Cu9      1.0000 0.94587  0.08250  0.23140  Biso   1.000  Cu
  Cu10     1.0000 0.55413  0.58250  0.26860  Biso   1.000  Cu
  Cu11     1.0000 0.05413  0.91750  0.76860  Biso   1.000  Cu
  Cu12     1.0000 0.44587  0.41750  0.73140  Biso   1.000  Cu
  Cu13     1.0000 0.57133  0.55835  0.80340  Biso   1.000  Cu
  Cu14     1.0000 0.92867  0.05835  0.69660  Biso   1.000  Cu
  Cu15     1.0000 0.42867  0.44165  0.19660  Biso   1.000  Cu
  Cu16     1.0000 0.07133  0.94165  0.30340  Biso   1.000  Cu
  S1       1.0000 0.80060  0.41557  0.10960  Biso   1.000  S
  S2       1.0000 0.69940  0.91557  0.39040  Biso   1.000  S
  S3       1.0000 0.19940  0.58443  0.89040  Biso   1.000  S
  S4       1.0000 0.30060  0.08443  0.60960  Biso   1.000  S
  S5       1.0000 0.27850  0.10659  0.08310  Biso   1.000  S
  S6       1.0000 0.22150  0.60659  0.41690  Biso   1.000  S
  S7       1.0000 0.72150  0.89341  0.91690  Biso   1.000  S
  S8       1.0000 0.77850  0.39341  0.58310  Biso   1.000  S
  O1       1.0000 0.33580  0.09470  0.24450  Biso   1.000  O
  O2       1.0000 0.16420  0.59470  0.25550  Biso   1.000  O
  O3       1.0000 0.66420  0.90530  0.75550  Biso   1.000  O
  O4       1.0000 0.83580  0.40530  0.74450  Biso   1.000  O
  O5       1.0000 0.14990  0.15960  0.22700  Biso   1.000  O
  O6       1.0000 0.35010  0.65960  0.27300  Biso   1.000  O
  O7       1.0000 0.85010  0.84040  0.77300  Biso   1.000  O
  O8       1.0000 0.64990  0.34040  0.72700  Biso   1.000  O
  O9       1.0000 0.64570  0.35830  0.21980  Biso   1.000  O
  O10      1.0000 0.85430  0.85830  0.28020  Biso   1.000  O
  O11      1.0000 0.35430  0.64170  0.78020  Biso   1.000  O
  O12      1.0000 0.14570  0.14170  0.71980  Biso   1.000  O
  O13      1.0000 0.41730  0.36220  0.09520  Biso   1.000  O
  O14      1.0000 0.08270  0.86220  0.40480  Biso   1.000  O
  O15      1.0000 0.58270  0.63780  0.90480  Biso   1.000  O
  O16      1.0000 0.91730  0.13780  0.59520  Biso   1.000  O
  O17      1.0000 0.78960  0.48230  0.04700  Biso   1.000  O
  O18      1.0000 0.71040  0.98230  0.45300  Biso   1.000  O
  O19      1.0000 0.21040  0.51770  0.95300  Biso   1.000  O
  O20      1.0000 0.28960  0.01770  0.54700  Biso   1.000  O
  O21      1.0000 0.85390  0.41950  0.27060  Biso   1.000  O
  O22      1.0000 0.64610  0.91950  0.22940  Biso   1.000  O
  O23      1.0000 0.14610  0.58050  0.72940  Biso   1.000  O
  O24      1.0000 0.35390  0.08050  0.77060  Biso   1.000  O
  O25      1.0000 0.66540  0.37530  0.98530  Biso   1.000  O
  O26      1.0000 0.83460  0.87530  0.51470  Biso   1.000  O
  O27      1.0000 0.33460  0.62470  0.01470  Biso   1.000  O
  O28      1.0000 0.16540  0.12470  0.48530  Biso   1.000  O
  O29      1.0000 0.82240  0.12900  0.22990  Biso   1.000  O
  O30      1.0000 0.67760  0.62900  0.27010  Biso   1.000  O
  O31      1.0000 0.17760  0.87100  0.77010  Biso   1.000  O
  O32      1.0000 0.32240  0.37100  0.72990  Biso   1.000  O
  O33      1.0000 0.92760  0.16060  0.11900  Biso   1.000  O
  O34      1.0000 0.57240  0.66060  0.38100  Biso   1.000  O
  O35      1.0000 0.07240  0.83940  0.88100  Biso   1.000  O
  O36      1.0000 0.42760  0.33940  0.61900  Biso   1.000  O
  O37      1.0000 0.30890  0.39340  0.19970  Biso   1.000  O
  O38      1.0000 0.19110  0.89340  0.30030  Biso   1.000  O
  O39      1.0000 0.69110  0.60660  0.80030  Biso   1.000  O
  O40      1.0000 0.80890  0.10660  0.69970  Biso   1.000  O
  O41      1.0000 0.25960  0.04300  0.00600  Biso   1.000  O
  O42      1.0000 0.24040  0.54300  0.49400  Biso   1.000  O
  O43      1.0000 0.74040  0.95700  0.99400  Biso   1.000  O
  O44      1.0000 0.75960  0.45700  0.50600  Biso   1.000  O
  C1       1.0000 0.41750  0.15040  0.12810  Biso   1.000  C
  C2       1.0000 0.08250  0.65040  0.37190  Biso   1.000  C
  C3       1.0000 0.58250  0.84960  0.87190  Biso   1.000  C
  C4       1.0000 0.91750  0.34960  0.62810  Biso   1.000  C
  O45      1.0000 0.97460  0.99530  0.33990  Biso   1.000  O
  O46      1.0000 0.52540  0.49530  0.16010  Biso   1.000  O
  O47      1.0000 0.02540  0.00470  0.66010  Biso   1.000  O
  O48      1.0000 0.47460  0.50470  0.83990  Biso   1.000  O
  C5       1.0000 0.52400  0.25340  0.15000  Biso   1.000  C
  C6       1.0000 0.97600  0.75340  0.35000  Biso   1.000  C
  C7       1.0000 0.47600  0.74660  0.85000  Biso   1.000  C
  C8       1.0000 0.02400  0.24660  0.65000  Biso   1.000  C
  C9       1.0000 0.14300  0.30280  0.19980  Biso   1.000  C
  C10      1.0000 0.35700  0.80280  0.30020  Biso   1.000  C
  C11      1.0000 0.85700  0.69720  0.80020  Biso   1.000  C
  C12      1.0000 0.64300  0.19720  0.69980  Biso   1.000  C
  H1       1.0000 0.21170  0.28010  0.21500  Biso   1.000  H
  H2       1.0000 0.28830  0.78010  0.28500  Biso   1.000  H
  H3       1.0000 0.78830  0.71990  0.78500  Biso   1.000  H
  H4       1.0000 0.71170  0.21990  0.71500  Biso   1.000  H
  O49      1.0000 0.14540  0.14770  0.97030  Biso   1.000  O
  O50      1.0000 0.35460  0.64770  0.52970  Biso   1.000  O
  O51      1.0000 0.85460  0.85230  0.02970  Biso   1.000  O
  O52      1.0000 0.64540  0.35230  0.47030  Biso   1.000  O
  C13      1.0000 0.04170  0.40820  0.18380  Biso   1.000  C
  C14      1.0000 0.45830  0.90820  0.31620  Biso   1.000  C
  C15      1.0000 0.95830  0.59180  0.81620  Biso   1.000  C
  C16      1.0000 0.54170  0.09180  0.68380  Biso   1.000  C
  H5       1.0000 0.04240  0.45590  0.18910  Biso   1.000  H
  H6       1.0000 0.45760  0.95590  0.31090  Biso   1.000  H
  H7       1.0000 0.95760  0.54410  0.81090  Biso   1.000  H
  H8       1.0000 0.54240  0.04410  0.68910  Biso   1.000  H
  O53      1.0000 0.02360  0.02610  0.17550  Biso   1.000  O
  O54      1.0000 0.47640  0.52610  0.32450  Biso   1.000  O
  O55      1.0000 0.97640  0.97390  0.82450  Biso   1.000  O
  O56      1.0000 0.52360  0.47390  0.67550  Biso   1.000  O
  C17      1.0000 0.62570  0.21570  0.17670  Biso   1.000  C
  C18      1.0000 0.87430  0.71570  0.32330  Biso   1.000  C
  C19      1.0000 0.37430  0.78430  0.82330  Biso   1.000  C
  C20      1.0000 0.12570  0.28430  0.67670  Biso   1.000  C
  H9       1.0000 0.69750  0.23750  0.19610  Biso   1.000  H
  H10      1.0000 0.80250  0.73750  0.30390  Biso   1.000  H
  H11      1.0000 0.30250  0.76250  0.80390  Biso   1.000  H
  H12      1.0000 0.19750  0.26250  0.69610  Biso   1.000  H
  C21      1.0000 0.03830  0.26590  0.16970  Biso   1.000  C
  C22      1.0000 0.46170  0.76590  0.33030  Biso   1.000  C
  C23      1.0000 0.96170  0.73410  0.83030  Biso   1.000  C
  C24      1.0000 0.53830  0.23410  0.66970  Biso   1.000  C
  C25      1.0000 0.51770  0.11210  0.15600  Biso   1.000  C
  C26      1.0000 0.98230  0.61210  0.34400  Biso   1.000  C
  C27      1.0000 0.48230  0.88790  0.84400  Biso   1.000  C
  C28      1.0000 0.01770  0.38790  0.65600  Biso   1.000  C
  H13      1.0000 0.51870  0.06440  0.16310  Biso   1.000  H
  H14      1.0000 0.98130  0.56440  0.33690  Biso   1.000  H
  H15      1.0000 0.48130  0.93560  0.83690  Biso   1.000  H
  H16      1.0000 0.01870  0.43560  0.66310  Biso   1.000  H
  O57      1.0000 0.69690  0.03790  0.17840  Biso   1.000  O
  O58      1.0000 0.80310  0.53790  0.32160  Biso   1.000  O
  O59      1.0000 0.30310  0.96210  0.82160  Biso   1.000  O
  O60      1.0000 0.19690  0.46210  0.67840  Biso   1.000  O
  O61      1.0000 0.28290  0.47420  0.30490  Biso   1.000  O
  O62      1.0000 0.21710  0.97420  0.19510  Biso   1.000  O
  O63      1.0000 0.71710  0.52580  0.69510  Biso   1.000  O
  O64      1.0000 0.78290  0.02580  0.80490  Biso   1.000  O
  C29      1.0000 0.41980  0.22150  0.12470  Biso   1.000  C
  C30      1.0000 0.08020  0.72150  0.37530  Biso   1.000  C
  C31      1.0000 0.58020  0.77850  0.87530  Biso   1.000  C
  C32      1.0000 0.91980  0.27850  0.62470  Biso   1.000  C
  H17      1.0000 0.35160  0.24740  0.10550  Biso   1.000  H
  H18      1.0000 0.14840  0.74740  0.39450  Biso   1.000  H
  H19      1.0000 0.64840  0.75260  0.89450  Biso   1.000  H
  H20      1.0000 0.85160  0.25260  0.60550  Biso   1.000  H
  C33      1.0000 0.93920  0.37120  0.15310  Biso   1.000  C
  C34      1.0000 0.56080  0.87120  0.34690  Biso   1.000  C
  C35      1.0000 0.06080  0.62880  0.84690  Biso   1.000  C
  C36      1.0000 0.43920  0.12880  0.65310  Biso   1.000  C
  C37      1.0000 0.93670  0.29990  0.14760  Biso   1.000  C
  C38      1.0000 0.56330  0.79990  0.35240  Biso   1.000  C
  C39      1.0000 0.06330  0.70010  0.85240  Biso   1.000  C
  C40      1.0000 0.43670  0.20010  0.64760  Biso   1.000  C
  H21      1.0000 0.86770  0.27540  0.12930  Biso   1.000  H
  H22      1.0000 0.63230  0.77540  0.37070  Biso   1.000  H
  H23      1.0000 0.13230  0.72460  0.87070  Biso   1.000  H
  H24      1.0000 0.36770  0.22460  0.62930  Biso   1.000  H
  C41      1.0000 0.61660  0.14490  0.17340  Biso   1.000  C
  C42      1.0000 0.88340  0.64490  0.32660  Biso   1.000  C
  C43      1.0000 0.38340  0.85510  0.82660  Biso   1.000  C
  C44      1.0000 0.11660  0.35510  0.67340  Biso   1.000  C
  C45      1.0000 0.14270  0.37530  0.20660  Biso   1.000  C
  C46      1.0000 0.35730  0.87530  0.29340  Biso   1.000  C
  C47      1.0000 0.85730  0.62470  0.79340  Biso   1.000  C
  C48      1.0000 0.64270  0.12470  0.70660  Biso   1.000  C
  C49      1.0000 0.72250  0.10080  0.19780  Biso   1.000  C
  C50      1.0000 0.77750  0.60080  0.30220  Biso   1.000  C
  C51      1.0000 0.27750  0.89920  0.80220  Biso   1.000  C
  C52      1.0000 0.22250  0.39920  0.69780  Biso   1.000  C
  C53      1.0000 0.04060  0.18870  0.17250  Biso   1.000  C
  C54      1.0000 0.45940  0.68870  0.32750  Biso   1.000  C
  C55      1.0000 0.95940  0.81130  0.82750  Biso   1.000  C
  C56      1.0000 0.54060  0.31130  0.67250  Biso   1.000  C
  C57      1.0000 0.53000  0.33160  0.15520  Biso   1.000  C
  C58      1.0000 0.97000  0.83160  0.34480  Biso   1.000  C
  C59      1.0000 0.47000  0.66840  0.84480  Biso   1.000  C
  C60      1.0000 0.03000  0.16840  0.65520  Biso   1.000  C
  C61      1.0000 0.25080  0.41650  0.23430  Biso   1.000  C
  C62      1.0000 0.24920  0.91650  0.26570  Biso   1.000  C
  C63      1.0000 0.74920  0.58350  0.76570  Biso   1.000  C
  C64      1.0000 0.75080  0.08350  0.73430  Biso   1.000  C
