data_image0
_cell_length_a       25.2976
_cell_length_b       5.3702
_cell_length_c       21.3122
_cell_angle_alpha    90
_cell_angle_beta     115.865
_cell_angle_gamma    90

_symmetry_space_group_name_H-M    "P 1"
_symmetry_int_tables_number       1

loop_
  _symmetry_equiv_pos_as_xyz
  'x, y, z'

loop_
  _atom_site_label
  _atom_site_occupancy
  _atom_site_fract_x
  _atom_site_fract_y
  _atom_site_fract_z
  _atom_site_thermal_displace_type
  _atom_site_B_iso_or_equiv
  _atom_site_type_symbol
  Cu1      1.0000 0.00000  0.00000  0.00000  Biso   1.000  Cu
  Cu2      1.0000 0.00000  0.00000  0.50000  Biso   1.000  Cu
  Cu3      1.0000 0.50000  0.50000  0.00000  Biso   1.000  Cu
  Cu4      1.0000 0.50000  0.50000  0.50000  Biso   1.000  Cu
  O1       1.0000 0.07835  0.85870  0.04676  Biso   1.000  O
  O2       1.0000 0.92165  0.85870  0.45324  Biso   1.000  O
  O3       1.0000 0.57835  0.35870  0.04676  Biso   1.000  O
  O4       1.0000 0.42165  0.35870  0.45324  Biso   1.000  O
  O5       1.0000 0.92165  0.14130  0.95324  Biso   1.000  O
  O6       1.0000 0.07835  0.14130  0.54676  Biso   1.000  O
  O7       1.0000 0.42165  0.64130  0.95324  Biso   1.000  O
  O8       1.0000 0.57835  0.64130  0.54676  Biso   1.000  O
  O9       1.0000 0.11395  0.15840  0.00388  Biso   1.000  O
  O10      1.0000 0.88605  0.15840  0.49612  Biso   1.000  O
  O11      1.0000 0.61395  0.65840  0.00388  Biso   1.000  O
  O12      1.0000 0.38605  0.65840  0.49612  Biso   1.000  O
  O13      1.0000 0.88605  0.84160  0.99612  Biso   1.000  O
  O14      1.0000 0.11395  0.84160  0.50388  Biso   1.000  O
  O15      1.0000 0.38605  0.34160  0.99612  Biso   1.000  O
  O16      1.0000 0.61395  0.34160  0.50388  Biso   1.000  O
  O17      1.0000 0.31946  0.11030  0.04659  Biso   1.000  O
  O18      1.0000 0.68054  0.11030  0.45341  Biso   1.000  O
  O19      1.0000 0.81946  0.61030  0.04659  Biso   1.000  O
  O20      1.0000 0.18054  0.61030  0.45341  Biso   1.000  O
  O21      1.0000 0.68054  0.88970  0.95341  Biso   1.000  O
  O22      1.0000 0.31946  0.88970  0.54659  Biso   1.000  O
  O23      1.0000 0.18054  0.38970  0.95341  Biso   1.000  O
  O24      1.0000 0.81946  0.38970  0.54659  Biso   1.000  O
  H1       1.0000 0.34730  0.15400  0.03650  Biso   1.000  H
  H2       1.0000 0.65270  0.15400  0.46350  Biso   1.000  H
  H3       1.0000 0.84730  0.65400  0.03650  Biso   1.000  H
  H4       1.0000 0.15270  0.65400  0.46350  Biso   1.000  H
  H5       1.0000 0.65270  0.84600  0.96350  Biso   1.000  H
  H6       1.0000 0.34730  0.84600  0.53650  Biso   1.000  H
  H7       1.0000 0.15270  0.34600  0.96350  Biso   1.000  H
  H8       1.0000 0.84730  0.34600  0.53650  Biso   1.000  H
  O25      1.0000 0.37815  0.79370  0.10363  Biso   1.000  O
  O26      1.0000 0.62185  0.79370  0.39637  Biso   1.000  O
  O27      1.0000 0.87815  0.29370  0.10363  Biso   1.000  O
  O28      1.0000 0.12185  0.29370  0.39637  Biso   1.000  O
  O29      1.0000 0.62185  0.20630  0.89637  Biso   1.000  O
  O30      1.0000 0.37815  0.20630  0.60363  Biso   1.000  O
  O31      1.0000 0.12185  0.70630  0.89637  Biso   1.000  O
  O32      1.0000 0.87815  0.70630  0.60363  Biso   1.000  O
  O33      1.0000 0.30010  0.21720  0.22279  Biso   1.000  O
  O34      1.0000 0.69990  0.21720  0.27721  Biso   1.000  O
  O35      1.0000 0.80010  0.71720  0.22279  Biso   1.000  O
  O36      1.0000 0.19990  0.71720  0.27721  Biso   1.000  O
  O37      1.0000 0.69990  0.78280  0.77721  Biso   1.000  O
  O38      1.0000 0.30010  0.78280  0.72279  Biso   1.000  O
  O39      1.0000 0.19990  0.28280  0.77721  Biso   1.000  O
  O40      1.0000 0.80010  0.28280  0.72279  Biso   1.000  O
  O41      1.0000 0.20769  0.21710  0.19827  Biso   1.000  O
  O42      1.0000 0.79231  0.21710  0.30173  Biso   1.000  O
  O43      1.0000 0.70769  0.71710  0.19827  Biso   1.000  O
  O44      1.0000 0.29231  0.71710  0.30173  Biso   1.000  O
  O45      1.0000 0.79231  0.78290  0.80173  Biso   1.000  O
  O46      1.0000 0.20769  0.78290  0.69827  Biso   1.000  O
  O47      1.0000 0.29231  0.28290  0.80173  Biso   1.000  O
  O48      1.0000 0.70769  0.28290  0.69827  Biso   1.000  O
  N1       1.0000 0.01902  0.24200  0.07966  Biso   1.000  N
  N2       1.0000 0.98098  0.24200  0.42034  Biso   1.000  N
  N3       1.0000 0.51902  0.74200  0.07966  Biso   1.000  N
  N4       1.0000 0.48098  0.74200  0.42034  Biso   1.000  N
  N5       1.0000 0.98098  0.75800  0.92034  Biso   1.000  N
  N6       1.0000 0.01902  0.75800  0.57966  Biso   1.000  N
  N7       1.0000 0.48098  0.25800  0.92034  Biso   1.000  N
  N8       1.0000 0.51902  0.25800  0.57966  Biso   1.000  N
  N9       1.0000 0.25020  0.30260  0.19249  Biso   1.000  N
  N10      1.0000 0.74980  0.30260  0.30751  Biso   1.000  N
  N11      1.0000 0.75020  0.80260  0.19249  Biso   1.000  N
  N12      1.0000 0.24980  0.80260  0.30751  Biso   1.000  N
  N13      1.0000 0.74980  0.69740  0.80751  Biso   1.000  N
  N14      1.0000 0.25020  0.69740  0.69249  Biso   1.000  N
  N15      1.0000 0.24980  0.19740  0.80751  Biso   1.000  N
  N16      1.0000 0.75020  0.19740  0.69249  Biso   1.000  N
  C1       1.0000 0.17873  0.83610  0.07286  Biso   1.000  C
  C2       1.0000 0.82127  0.83610  0.42714  Biso   1.000  C
  C3       1.0000 0.67873  0.33610  0.07286  Biso   1.000  C
  C4       1.0000 0.32127  0.33610  0.42714  Biso   1.000  C
  C5       1.0000 0.82127  0.16390  0.92714  Biso   1.000  C
  C6       1.0000 0.17873  0.16390  0.57286  Biso   1.000  C
  C7       1.0000 0.32127  0.66390  0.92714  Biso   1.000  C
  C8       1.0000 0.67873  0.66390  0.57286  Biso   1.000  C
  C9       1.0000 0.22615  0.92600  0.06286  Biso   1.000  C
  C10      1.0000 0.77385  0.92600  0.43714  Biso   1.000  C
  C11      1.0000 0.72615  0.42600  0.06286  Biso   1.000  C
  C12      1.0000 0.27385  0.42600  0.43714  Biso   1.000  C
  C13      1.0000 0.77385  0.07400  0.93714  Biso   1.000  C
  C14      1.0000 0.22615  0.07400  0.56286  Biso   1.000  C
  C15      1.0000 0.27385  0.57400  0.93714  Biso   1.000  C
  C16      1.0000 0.72615  0.57400  0.56286  Biso   1.000  C
  H9       1.0000 0.22130  0.06940  0.03480  Biso   1.000  H
  H10      1.0000 0.77870  0.06940  0.46520  Biso   1.000  H
  H11      1.0000 0.72130  0.56940  0.03480  Biso   1.000  H
  H12      1.0000 0.27870  0.56940  0.46520  Biso   1.000  H
  H13      1.0000 0.77870  0.93060  0.96520  Biso   1.000  H
  H14      1.0000 0.22130  0.93060  0.53480  Biso   1.000  H
  H15      1.0000 0.27870  0.43060  0.96520  Biso   1.000  H
  H16      1.0000 0.72130  0.43060  0.53480  Biso   1.000  H
  C17      1.0000 0.28055  0.80780  0.09360  Biso   1.000  C
  C18      1.0000 0.71945  0.80780  0.40640  Biso   1.000  C
  C19      1.0000 0.78055  0.30780  0.09360  Biso   1.000  C
  C20      1.0000 0.21945  0.30780  0.40640  Biso   1.000  C
  C21      1.0000 0.71945  0.19220  0.90640  Biso   1.000  C
  C22      1.0000 0.28055  0.19220  0.59360  Biso   1.000  C
  C23      1.0000 0.21945  0.69220  0.90640  Biso   1.000  C
  C24      1.0000 0.78055  0.69220  0.59360  Biso   1.000  C
  C25      1.0000 0.28838  0.60080  0.13549  Biso   1.000  C
  C26      1.0000 0.71162  0.60080  0.36451  Biso   1.000  C
  C27      1.0000 0.78838  0.10080  0.13549  Biso   1.000  C
  C28      1.0000 0.21162  0.10080  0.36451  Biso   1.000  C
  C29      1.0000 0.71162  0.39920  0.86451  Biso   1.000  C
  C30      1.0000 0.28838  0.39920  0.63549  Biso   1.000  C
  C31      1.0000 0.21162  0.89920  0.86451  Biso   1.000  C
  C32      1.0000 0.78838  0.89920  0.63549  Biso   1.000  C
  H17      1.0000 0.32520  0.51770  0.15620  Biso   1.000  H
  H18      1.0000 0.67480  0.51770  0.34380  Biso   1.000  H
  H19      1.0000 0.82520  0.01770  0.15620  Biso   1.000  H
  H20      1.0000 0.17480  0.01770  0.34380  Biso   1.000  H
  H21      1.0000 0.67480  0.48230  0.84380  Biso   1.000  H
  H22      1.0000 0.32520  0.48230  0.65620  Biso   1.000  H
  H23      1.0000 0.17480  0.98230  0.84380  Biso   1.000  H
  H24      1.0000 0.82520  0.98230  0.65620  Biso   1.000  H
  C33      1.0000 0.24125  0.51830  0.14633  Biso   1.000  C
  C34      1.0000 0.75875  0.51830  0.35367  Biso   1.000  C
  C35      1.0000 0.74125  0.01830  0.14633  Biso   1.000  C
  C36      1.0000 0.25875  0.01830  0.35367  Biso   1.000  C
  C37      1.0000 0.75875  0.48170  0.85367  Biso   1.000  C
  C38      1.0000 0.24125  0.48170  0.64633  Biso   1.000  C
  C39      1.0000 0.25875  0.98170  0.85367  Biso   1.000  C
  C40      1.0000 0.74125  0.98170  0.64633  Biso   1.000  C
  C41      1.0000 0.18627  0.62880  0.11546  Biso   1.000  C
  C42      1.0000 0.81373  0.62880  0.38454  Biso   1.000  C
  C43      1.0000 0.68627  0.12880  0.11546  Biso   1.000  C
  C44      1.0000 0.31373  0.12880  0.38454  Biso   1.000  C
  C45      1.0000 0.81373  0.37120  0.88454  Biso   1.000  C
  C46      1.0000 0.18627  0.37120  0.61546  Biso   1.000  C
  C47      1.0000 0.31373  0.87120  0.88454  Biso   1.000  C
  C48      1.0000 0.68627  0.87120  0.61546  Biso   1.000  C
  H25      1.0000 0.15450  0.56510  0.12310  Biso   1.000  H
  H26      1.0000 0.84550  0.56510  0.37690  Biso   1.000  H
  H27      1.0000 0.65450  0.06510  0.12310  Biso   1.000  H
  H28      1.0000 0.34550  0.06510  0.37690  Biso   1.000  H
  H29      1.0000 0.84550  0.43490  0.87690  Biso   1.000  H
  H30      1.0000 0.15450  0.43490  0.62310  Biso   1.000  H
  H31      1.0000 0.34550  0.93490  0.87690  Biso   1.000  H
  H32      1.0000 0.65450  0.93490  0.62310  Biso   1.000  H
  C49      1.0000 0.11985  0.96410  0.03800  Biso   1.000  C
  C50      1.0000 0.88015  0.96410  0.46200  Biso   1.000  C
  C51      1.0000 0.61985  0.46410  0.03800  Biso   1.000  C
  C52      1.0000 0.38015  0.46410  0.46200  Biso   1.000  C
  C53      1.0000 0.88015  0.03590  0.96200  Biso   1.000  C
  C54      1.0000 0.11985  0.03590  0.53800  Biso   1.000  C
  C55      1.0000 0.38015  0.53590  0.96200  Biso   1.000  C
  C56      1.0000 0.61985  0.53590  0.53800  Biso   1.000  C
  C57      1.0000 0.33175  0.90150  0.08267  Biso   1.000  C
  C58      1.0000 0.66825  0.90150  0.41733  Biso   1.000  C
  C59      1.0000 0.83175  0.40150  0.08267  Biso   1.000  C
  C60      1.0000 0.16825  0.40150  0.41733  Biso   1.000  C
  C61      1.0000 0.66825  0.09850  0.91733  Biso   1.000  C
  C62      1.0000 0.33175  0.09850  0.58267  Biso   1.000  C
  C63      1.0000 0.16825  0.59850  0.91733  Biso   1.000  C
  C64      1.0000 0.83175  0.59850  0.58267  Biso   1.000  C
  C65      1.0000 0.06442  0.20910  0.14297  Biso   1.000  C
  C66      1.0000 0.93558  0.20910  0.35703  Biso   1.000  C
  C67      1.0000 0.56442  0.70910  0.14297  Biso   1.000  C
  C68      1.0000 0.43558  0.70910  0.35703  Biso   1.000  C
  C69      1.0000 0.93558  0.79090  0.85703  Biso   1.000  C
  C70      1.0000 0.06442  0.79090  0.64297  Biso   1.000  C
  C71      1.0000 0.43558  0.29090  0.85703  Biso   1.000  C
  C72      1.0000 0.56442  0.29090  0.64297  Biso   1.000  C
  H33      1.0000 0.08970  0.07090  0.14920  Biso   1.000  H
  H34      1.0000 0.91030  0.07090  0.35080  Biso   1.000  H
  H35      1.0000 0.58970  0.57090  0.14920  Biso   1.000  H
  H36      1.0000 0.41030  0.57090  0.35080  Biso   1.000  H
  H37      1.0000 0.91030  0.92910  0.85080  Biso   1.000  H
  H38      1.0000 0.08970  0.92910  0.64920  Biso   1.000  H
  H39      1.0000 0.41030  0.42910  0.85080  Biso   1.000  H
  H40      1.0000 0.58970  0.42910  0.64920  Biso   1.000  H
  C73      1.0000 0.07641  0.36410  0.19921  Biso   1.000  C
  C74      1.0000 0.92359  0.36410  0.30079  Biso   1.000  C
  C75      1.0000 0.57641  0.86410  0.19921  Biso   1.000  C
  C76      1.0000 0.42359  0.86410  0.30079  Biso   1.000  C
  C77      1.0000 0.92359  0.63590  0.80079  Biso   1.000  C
  C78      1.0000 0.07641  0.63590  0.69921  Biso   1.000  C
  C79      1.0000 0.42359  0.13590  0.80079  Biso   1.000  C
  C80      1.0000 0.57641  0.13590  0.69921  Biso   1.000  C
  H41      1.0000 0.10880  0.33050  0.24280  Biso   1.000  H
  H42      1.0000 0.89120  0.33050  0.25720  Biso   1.000  H
  H43      1.0000 0.60880  0.83050  0.24280  Biso   1.000  H
  H44      1.0000 0.39120  0.83050  0.25720  Biso   1.000  H
  H45      1.0000 0.89120  0.66950  0.75720  Biso   1.000  H
  H46      1.0000 0.10880  0.66950  0.74280  Biso   1.000  H
  H47      1.0000 0.39120  0.16950  0.75720  Biso   1.000  H
  H48      1.0000 0.60880  0.16950  0.74280  Biso   1.000  H
  C81      1.0000 0.04037  0.57190  0.19170  Biso   1.000  C
  C82      1.0000 0.95963  0.57190  0.30830  Biso   1.000  C
  C83      1.0000 0.54037  0.07190  0.19170  Biso   1.000  C
  C84      1.0000 0.45963  0.07190  0.30830  Biso   1.000  C
  C85      1.0000 0.95963  0.42810  0.80830  Biso   1.000  C
  C86      1.0000 0.04037  0.42810  0.69170  Biso   1.000  C
  C87      1.0000 0.45963  0.92810  0.80830  Biso   1.000  C
  C88      1.0000 0.54037  0.92810  0.69170  Biso   1.000  C
  C89      1.0000 0.99536  0.61500  0.12500  Biso   1.000  C
  C90      1.0000 0.00464  0.61500  0.37500  Biso   1.000  C
  C91      1.0000 0.49536  0.11500  0.12500  Biso   1.000  C
  C92      1.0000 0.50464  0.11500  0.37500  Biso   1.000  C
  C93      1.0000 0.00464  0.38500  0.87500  Biso   1.000  C
  C94      1.0000 0.99536  0.38500  0.62500  Biso   1.000  C
  C95      1.0000 0.50464  0.88500  0.87500  Biso   1.000  C
  C96      1.0000 0.49536  0.88500  0.62500  Biso   1.000  C
  H49      1.0000 0.97100  0.75790  0.11640  Biso   1.000  H
  H50      1.0000 0.02900  0.75790  0.38360  Biso   1.000  H
  H51      1.0000 0.47100  0.25790  0.11640  Biso   1.000  H
  H52      1.0000 0.52900  0.25790  0.38360  Biso   1.000  H
  H53      1.0000 0.02900  0.24210  0.88360  Biso   1.000  H
  H54      1.0000 0.97100  0.24210  0.61640  Biso   1.000  H
  H55      1.0000 0.52900  0.74210  0.88360  Biso   1.000  H
  H56      1.0000 0.47100  0.74210  0.61640  Biso   1.000  H
  C97      1.0000 0.98641  0.45040  0.07206  Biso   1.000  C
  C98      1.0000 0.01359  0.45040  0.42794  Biso   1.000  C
  C99      1.0000 0.48641  0.95040  0.07206  Biso   1.000  C
  C100     1.0000 0.51359  0.95040  0.42794  Biso   1.000  C
  C101     1.0000 0.01359  0.54960  0.92794  Biso   1.000  C
  C102     1.0000 0.98641  0.54960  0.57206  Biso   1.000  C
  C103     1.0000 0.51359  0.04960  0.92794  Biso   1.000  C
  C104     1.0000 0.48641  0.04960  0.57206  Biso   1.000  C
  H57      1.0000 0.95550  0.48440  0.02740  Biso   1.000  H
  H58      1.0000 0.04450  0.48440  0.47260  Biso   1.000  H
  H59      1.0000 0.45550  0.98440  0.02740  Biso   1.000  H
  H60      1.0000 0.54450  0.98440  0.47260  Biso   1.000  H
  H61      1.0000 0.04450  0.51560  0.97260  Biso   1.000  H
  H62      1.0000 0.95550  0.51560  0.52740  Biso   1.000  H
  H63      1.0000 0.54450  0.01560  0.97260  Biso   1.000  H
  H64      1.0000 0.45550  0.01560  0.52740  Biso   1.000  H
  C105     1.0000 0.05196  0.73910  0.25328  Biso   1.000  C
  C106     1.0000 0.94804  0.73910  0.24672  Biso   1.000  C
  C107     1.0000 0.55196  0.23910  0.25328  Biso   1.000  C
  C108     1.0000 0.44804  0.23910  0.24672  Biso   1.000  C
  C109     1.0000 0.94804  0.26090  0.74672  Biso   1.000  C
  C110     1.0000 0.05196  0.26090  0.75328  Biso   1.000  C
  C111     1.0000 0.44804  0.76090  0.74672  Biso   1.000  C
  C112     1.0000 0.55196  0.76090  0.75328  Biso   1.000  C
  H65      1.0000 0.08410  0.85490  0.25860  Biso   1.000  H
  H66      1.0000 0.91590  0.85490  0.24140  Biso   1.000  H
  H67      1.0000 0.58410  0.35490  0.25860  Biso   1.000  H
  H68      1.0000 0.41590  0.35490  0.24140  Biso   1.000  H
  H69      1.0000 0.91590  0.14510  0.74140  Biso   1.000  H
  H70      1.0000 0.08410  0.14510  0.75860  Biso   1.000  H
  H71      1.0000 0.41590  0.64510  0.74140  Biso   1.000  H
  H72      1.0000 0.58410  0.64510  0.75860  Biso   1.000  H
  H73      1.0000 0.06620  0.63440  0.29570  Biso   1.000  H
  H74      1.0000 0.93380  0.63440  0.20430  Biso   1.000  H
  H75      1.0000 0.56620  0.13440  0.29570  Biso   1.000  H
  H76      1.0000 0.43380  0.13440  0.20430  Biso   1.000  H
  H77      1.0000 0.93380  0.36560  0.70430  Biso   1.000  H
  H78      1.0000 0.06620  0.36560  0.79570  Biso   1.000  H
  H79      1.0000 0.43380  0.86560  0.70430  Biso   1.000  H
  H80      1.0000 0.56620  0.86560  0.79570  Biso   1.000  H
  C113     1.0000 0.00000  0.89340  0.25000  Biso   1.000  C
  C114     1.0000 0.50000  0.39340  0.25000  Biso   1.000  C
  C115     1.0000 0.00000  0.10660  0.75000  Biso   1.000  C
  C116     1.0000 0.50000  0.60660  0.75000  Biso   1.000  C
  H81      1.0000 0.98630  0.00230  0.20840  Biso   1.000  H
  H82      1.0000 0.01370  0.00230  0.29160  Biso   1.000  H
  H83      1.0000 0.48630  0.50230  0.20840  Biso   1.000  H
  H84      1.0000 0.51370  0.50230  0.29160  Biso   1.000  H
  H85      1.0000 0.01370  0.99770  0.79160  Biso   1.000  H
  H86      1.0000 0.98630  0.99770  0.70840  Biso   1.000  H
  H87      1.0000 0.51370  0.49770  0.79160  Biso   1.000  H
  H88      1.0000 0.48630  0.49770  0.70840  Biso   1.000  H
