data_image0
_cell_length_a       8.5179
_cell_length_b       15.1779
_cell_length_c       12.2602
_cell_angle_alpha    90
_cell_angle_beta     92.219
_cell_angle_gamma    90

_symmetry_space_group_name_H-M    "P 1"
_symmetry_int_tables_number       1

loop_
  _symmetry_equiv_pos_as_xyz
  'x, y, z'

loop_
  _atom_site_label
  _atom_site_occupancy
  _atom_site_fract_x
  _atom_site_fract_y
  _atom_site_fract_z
  _atom_site_thermal_displace_type
  _atom_site_B_iso_or_equiv
  _atom_site_type_symbol
  C1       1.0000 0.60320  0.48360  0.80130  Biso   1.000  C
  C2       1.0000 0.39680  0.98360  0.69870  Biso   1.000  C
  C3       1.0000 0.39680  0.51640  0.19870  Biso   1.000  C
  C4       1.0000 0.60320  0.01640  0.30130  Biso   1.000  C
  C5       1.0000 0.49950  0.55490  0.79880  Biso   1.000  C
  C6       1.0000 0.50050  0.05490  0.70120  Biso   1.000  C
  C7       1.0000 0.50050  0.44510  0.20120  Biso   1.000  C
  C8       1.0000 0.49950  0.94510  0.29880  Biso   1.000  C
  C9       1.0000 0.35850  0.54930  0.84990  Biso   1.000  C
  C10      1.0000 0.64150  0.04930  0.65010  Biso   1.000  C
  C11      1.0000 0.64150  0.45070  0.15010  Biso   1.000  C
  C12      1.0000 0.35850  0.95070  0.34990  Biso   1.000  C
  H1       1.0000 0.29020  0.59710  0.84890  Biso   1.000  H
  H2       1.0000 0.70980  0.09710  0.65110  Biso   1.000  H
  H3       1.0000 0.70980  0.40290  0.15110  Biso   1.000  H
  H4       1.0000 0.29020  0.90290  0.34890  Biso   1.000  H
  C13      1.0000 0.31930  0.47210  0.90270  Biso   1.000  C
  C14      1.0000 0.68070  0.97210  0.59730  Biso   1.000  C
  C15      1.0000 0.68070  0.52790  0.09730  Biso   1.000  C
  C16      1.0000 0.31930  0.02790  0.40270  Biso   1.000  C
  H5       1.0000 0.22320  0.46770  0.93590  Biso   1.000  H
  H6       1.0000 0.77680  0.96770  0.56410  Biso   1.000  H
  H7       1.0000 0.77680  0.53230  0.06410  Biso   1.000  H
  H8       1.0000 0.22320  0.03230  0.43590  Biso   1.000  H
  C17      1.0000 0.42110  0.40260  0.90630  Biso   1.000  C
  C18      1.0000 0.57890  0.90260  0.59370  Biso   1.000  C
  C19      1.0000 0.57890  0.59740  0.09370  Biso   1.000  C
  C20      1.0000 0.42110  0.09740  0.40630  Biso   1.000  C
  H9       1.0000 0.39420  0.35120  0.94240  Biso   1.000  H
  H10      1.0000 0.60580  0.85120  0.55760  Biso   1.000  H
  H11      1.0000 0.60580  0.64880  0.05760  Biso   1.000  H
  H12      1.0000 0.39420  0.14880  0.44240  Biso   1.000  H
  C21      1.0000 0.56400  0.40800  0.85670  Biso   1.000  C
  C22      1.0000 0.43600  0.90800  0.64330  Biso   1.000  C
  C23      1.0000 0.43600  0.59200  0.14330  Biso   1.000  C
  C24      1.0000 0.56400  0.09200  0.35670  Biso   1.000  C
  H13      1.0000 0.63350  0.36070  0.86060  Biso   1.000  H
  H14      1.0000 0.36650  0.86070  0.63940  Biso   1.000  H
  H15      1.0000 0.36650  0.63930  0.13940  Biso   1.000  H
  H16      1.0000 0.63350  0.13930  0.36060  Biso   1.000  H
  C25      1.0000 0.00220  0.76830  0.61630  Biso   1.000  C
  C26      1.0000 0.99780  0.26830  0.88370  Biso   1.000  C
  C27      1.0000 0.99780  0.23170  0.38370  Biso   1.000  C
  C28      1.0000 0.00220  0.73170  0.11630  Biso   1.000  C
  C29      1.0000 0.81900  0.42200  0.71490  Biso   1.000  C
  C30      1.0000 0.18100  0.92200  0.78510  Biso   1.000  C
  C31      1.0000 0.18100  0.57800  0.28510  Biso   1.000  C
  C32      1.0000 0.81900  0.07800  0.21490  Biso   1.000  C
  H17      1.0000 0.77310  0.36680  0.72140  Biso   1.000  H
  H18      1.0000 0.22690  0.86680  0.77860  Biso   1.000  H
  H19      1.0000 0.22690  0.63320  0.27860  Biso   1.000  H
  H20      1.0000 0.77310  0.13320  0.22140  Biso   1.000  H
  C33      1.0000 0.97210  0.43190  0.66660  Biso   1.000  C
  C34      1.0000 0.02790  0.93190  0.83340  Biso   1.000  C
  C35      1.0000 0.02790  0.56810  0.33340  Biso   1.000  C
  C36      1.0000 0.97210  0.06810  0.16660  Biso   1.000  C
  C37      1.0000 0.06000  0.36170  0.63200  Biso   1.000  C
  C38      1.0000 0.94000  0.86170  0.86800  Biso   1.000  C
  C39      1.0000 0.94000  0.63830  0.36800  Biso   1.000  C
  C40      1.0000 0.06000  0.13830  0.13200  Biso   1.000  C
  H21      1.0000 0.02350  0.30430  0.63890  Biso   1.000  H
  H22      1.0000 0.97650  0.80430  0.86110  Biso   1.000  H
  H23      1.0000 0.97650  0.69570  0.36110  Biso   1.000  H
  H24      1.0000 0.02350  0.19570  0.13890  Biso   1.000  H
  C41      1.0000 0.20340  0.37820  0.58700  Biso   1.000  C
  C42      1.0000 0.79660  0.87820  0.91300  Biso   1.000  C
  C43      1.0000 0.79660  0.62180  0.41300  Biso   1.000  C
  C44      1.0000 0.20340  0.12180  0.08700  Biso   1.000  C
  H25      1.0000 0.26580  0.33190  0.56410  Biso   1.000  H
  H26      1.0000 0.73420  0.83190  0.93590  Biso   1.000  H
  H27      1.0000 0.73420  0.66810  0.43590  Biso   1.000  H
  H28      1.0000 0.26580  0.16810  0.06410  Biso   1.000  H
  C45      1.0000 0.25220  0.46400  0.57670  Biso   1.000  C
  C46      1.0000 0.74780  0.96400  0.92330  Biso   1.000  C
  C47      1.0000 0.74780  0.53600  0.42330  Biso   1.000  C
  C48      1.0000 0.25220  0.03600  0.07670  Biso   1.000  C
  H29      1.0000 0.34740  0.47670  0.54550  Biso   1.000  H
  H30      1.0000 0.65260  0.97670  0.95450  Biso   1.000  H
  H31      1.0000 0.65260  0.52330  0.45450  Biso   1.000  H
  H32      1.0000 0.34740  0.02330  0.04550  Biso   1.000  H
  C49      1.0000 0.15850  0.53100  0.61300  Biso   1.000  C
  C50      1.0000 0.84150  0.03100  0.88700  Biso   1.000  C
  C51      1.0000 0.84150  0.46900  0.38700  Biso   1.000  C
  C52      1.0000 0.15850  0.96900  0.11300  Biso   1.000  C
  H33      1.0000 0.19210  0.58890  0.60570  Biso   1.000  H
  H34      1.0000 0.80790  0.08890  0.89430  Biso   1.000  H
  H35      1.0000 0.80790  0.41110  0.39430  Biso   1.000  H
  H36      1.0000 0.19210  0.91110  0.10570  Biso   1.000  H
  C53      1.0000 0.00750  0.86510  0.47690  Biso   1.000  C
  C54      1.0000 0.99250  0.36510  0.02310  Biso   1.000  C
  C55      1.0000 0.99250  0.13490  0.52310  Biso   1.000  C
  C56      1.0000 0.00750  0.63490  0.97690  Biso   1.000  C
  N1       1.0000 0.74970  0.49107  0.74810  Biso   1.000  N
  N2       1.0000 0.25030  0.99107  0.75190  Biso   1.000  N
  N3       1.0000 0.25030  0.50893  0.25190  Biso   1.000  N
  N4       1.0000 0.74970  0.00893  0.24810  Biso   1.000  N
  N5       1.0000 0.02150  0.51563  0.65830  Biso   1.000  N
  N6       1.0000 0.97850  0.01563  0.84170  Biso   1.000  N
  N7       1.0000 0.97850  0.48437  0.34170  Biso   1.000  N
  N8       1.0000 0.02150  0.98437  0.15830  Biso   1.000  N
  N9       1.0000 0.97860  0.70330  0.66020  Biso   1.000  N
  N10      1.0000 0.02140  0.20330  0.83980  Biso   1.000  N
  N11      1.0000 0.02140  0.29670  0.33980  Biso   1.000  N
  N12      1.0000 0.97860  0.79670  0.16020  Biso   1.000  N
  N13      1.0000 0.03530  0.84510  0.57900  Biso   1.000  N
  N14      1.0000 0.96470  0.34510  0.92100  Biso   1.000  N
  N15      1.0000 0.96470  0.15490  0.42100  Biso   1.000  N
  N16      1.0000 0.03530  0.65490  0.07900  Biso   1.000  N
  N17      1.0000 0.98560  0.89030  0.39020  Biso   1.000  N
  N18      1.0000 0.01440  0.39030  0.10980  Biso   1.000  N
  N19      1.0000 0.01440  0.10970  0.60980  Biso   1.000  N
  N20      1.0000 0.98560  0.60970  0.89020  Biso   1.000  N
  O1       1.0000 0.70270  0.67793  0.77300  Biso   1.000  O
  O2       1.0000 0.29730  0.17793  0.72700  Biso   1.000  O
  O3       1.0000 0.29730  0.32207  0.22700  Biso   1.000  O
  O4       1.0000 0.70270  0.82207  0.27300  Biso   1.000  O
  O5       1.0000 0.54150  0.63420  0.61670  Biso   1.000  O
  O6       1.0000 0.45850  0.13420  0.88330  Biso   1.000  O
  O7       1.0000 0.45850  0.36580  0.38330  Biso   1.000  O
  O8       1.0000 0.54150  0.86580  0.11670  Biso   1.000  O
  O9       1.0000 0.42960  0.71795  0.76290  Biso   1.000  O
  O10      1.0000 0.57040  0.21795  0.73710  Biso   1.000  O
  O11      1.0000 0.57040  0.28205  0.23710  Biso   1.000  O
  O12      1.0000 0.42960  0.78205  0.26290  Biso   1.000  O
  S1       1.0000 0.54349  0.65445  0.73138  Biso   1.000  S
  S2       1.0000 0.45651  0.15445  0.76862  Biso   1.000  S
  S3       1.0000 0.45651  0.34555  0.26862  Biso   1.000  S
  S4       1.0000 0.54349  0.84555  0.23138  Biso   1.000  S
  Cu1      1.0000 0.87830  0.60209  0.72753  Biso   1.000  Cu
  Cu2      1.0000 0.12170  0.10209  0.77247  Biso   1.000  Cu
  Cu3      1.0000 0.12170  0.39791  0.27247  Biso   1.000  Cu
  Cu4      1.0000 0.87830  0.89791  0.22753  Biso   1.000  Cu
  O13      1.0000 0.31340  0.70920  0.46230  Biso   1.000  O
  O14      1.0000 0.68660  0.20920  0.03770  Biso   1.000  O
  O15      1.0000 0.68660  0.29080  0.53770  Biso   1.000  O
  O16      1.0000 0.31340  0.79080  0.96230  Biso   1.000  O
  H37      1.0000 0.37100  0.73700  0.41300  Biso   1.000  H
  H38      1.0000 0.62900  0.23700  0.08700  Biso   1.000  H
  H39      1.0000 0.62900  0.26300  0.58700  Biso   1.000  H
  H40      1.0000 0.37100  0.76300  0.91300  Biso   1.000  H
  H41      1.0000 0.38300  0.69100  0.51600  Biso   1.000  H
  H42      1.0000 0.61700  0.19100  0.98400  Biso   1.000  H
  H43      1.0000 0.61700  0.30900  0.48400  Biso   1.000  H
  H44      1.0000 0.38300  0.80900  0.01600  Biso   1.000  H
