data_image0
_cell_length_a       12.103
_cell_length_b       9.381
_cell_length_c       13.035
_cell_angle_alpha    90
_cell_angle_beta     106.808
_cell_angle_gamma    90

_symmetry_space_group_name_H-M    "P 1"
_symmetry_int_tables_number       1

loop_
  _symmetry_equiv_pos_as_xyz
  'x, y, z'

loop_
  _atom_site_label
  _atom_site_occupancy
  _atom_site_fract_x
  _atom_site_fract_y
  _atom_site_fract_z
  _atom_site_thermal_displace_type
  _atom_site_B_iso_or_equiv
  _atom_site_type_symbol
  Br1      1.0000 0.19418  0.04589  0.69474  Biso   1.000  Br
  Br2      1.0000 0.80582  0.54589  0.80526  Biso   1.000  Br
  Br3      1.0000 0.80582  0.95411  0.30526  Biso   1.000  Br
  Br4      1.0000 0.19418  0.45411  0.19474  Biso   1.000  Br
  Cu1      1.0000 0.06474  0.07300  0.82216  Biso   1.000  Cu
  Cu2      1.0000 0.93526  0.57300  0.67784  Biso   1.000  Cu
  Cu3      1.0000 0.93526  0.92700  0.17784  Biso   1.000  Cu
  Cu4      1.0000 0.06474  0.42700  0.32216  Biso   1.000  Cu
  O1       1.0000 0.01030  0.27420  0.77290  Biso   1.000  O
  O2       1.0000 0.98970  0.77420  0.72710  Biso   1.000  O
  O3       1.0000 0.98970  0.72580  0.22710  Biso   1.000  O
  O4       1.0000 0.01030  0.22580  0.27290  Biso   1.000  O
  O5       1.0000 0.07040  0.49920  0.78240  Biso   1.000  O
  O6       1.0000 0.92960  0.99920  0.71760  Biso   1.000  O
  O7       1.0000 0.92960  0.50080  0.21760  Biso   1.000  O
  O8       1.0000 0.07040  0.00080  0.28240  Biso   1.000  O
  N1       1.0000 0.10650  0.92490  0.93930  Biso   1.000  N
  N2       1.0000 0.89350  0.42490  0.56070  Biso   1.000  N
  N3       1.0000 0.89350  0.07510  0.06070  Biso   1.000  N
  N4       1.0000 0.10650  0.57510  0.43930  Biso   1.000  N
  N5       1.0000 0.14670  0.76260  0.06730  Biso   1.000  N
  N6       1.0000 0.85330  0.26260  0.43270  Biso   1.000  N
  N7       1.0000 0.85330  0.23740  0.93270  Biso   1.000  N
  N8       1.0000 0.14670  0.73740  0.56730  Biso   1.000  N
  N9       1.0000 0.16720  0.18800  0.93570  Biso   1.000  N
  N10      1.0000 0.83280  0.68800  0.56430  Biso   1.000  N
  N11      1.0000 0.83280  0.81200  0.06430  Biso   1.000  N
  N12      1.0000 0.16720  0.31200  0.43570  Biso   1.000  N
  C1       1.0000 0.09400  0.78950  0.96270  Biso   1.000  C
  C2       1.0000 0.90600  0.28950  0.53730  Biso   1.000  C
  C3       1.0000 0.90600  0.21050  0.03730  Biso   1.000  C
  C4       1.0000 0.09400  0.71050  0.46270  Biso   1.000  C
  C5       1.0000 0.19670  0.88490  0.11440  Biso   1.000  C
  C6       1.0000 0.80330  0.38490  0.38560  Biso   1.000  C
  C7       1.0000 0.80330  0.11510  0.88560  Biso   1.000  C
  C8       1.0000 0.19670  0.61510  0.61440  Biso   1.000  C
  C9       1.0000 0.17430  0.98390  0.03520  Biso   1.000  C
  C10      1.0000 0.82570  0.48390  0.46480  Biso   1.000  C
  C11      1.0000 0.82570  0.01610  0.96480  Biso   1.000  C
  C12      1.0000 0.17430  0.51610  0.53520  Biso   1.000  C
  C13      1.0000 0.20250  0.13220  0.02880  Biso   1.000  C
  C14      1.0000 0.79750  0.63220  0.47120  Biso   1.000  C
  C15      1.0000 0.79750  0.86780  0.97120  Biso   1.000  C
  C16      1.0000 0.20250  0.36780  0.52880  Biso   1.000  C
  C17      1.0000 0.18060  0.33860  0.90960  Biso   1.000  C
  C18      1.0000 0.81940  0.83860  0.59040  Biso   1.000  C
  C19      1.0000 0.81940  0.66140  0.09040  Biso   1.000  C
  C20      1.0000 0.18060  0.16140  0.40960  Biso   1.000  C
  C21      1.0000 0.07790  0.37130  0.81360  Biso   1.000  C
  C22      1.0000 0.92210  0.87130  0.68640  Biso   1.000  C
  C23      1.0000 0.92210  0.62870  0.18640  Biso   1.000  C
  C24      1.0000 0.07790  0.12870  0.31360  Biso   1.000  C
  C25      1.0000 0.29510  0.36670  0.88540  Biso   1.000  C
  C26      1.0000 0.70490  0.86670  0.61460  Biso   1.000  C
  C27      1.0000 0.70490  0.63330  0.11460  Biso   1.000  C
  C28      1.0000 0.29510  0.13330  0.38540  Biso   1.000  C
  C29      1.0000 0.39900  0.32420  0.97580  Biso   1.000  C
  C30      1.0000 0.60100  0.82420  0.52420  Biso   1.000  C
  C31      1.0000 0.60100  0.67580  0.02420  Biso   1.000  C
  C32      1.0000 0.39900  0.17580  0.47580  Biso   1.000  C
  C33      1.0000 0.46910  0.21190  0.96380  Biso   1.000  C
  C34      1.0000 0.53090  0.71190  0.53620  Biso   1.000  C
  C35      1.0000 0.53090  0.78810  0.03620  Biso   1.000  C
  C36      1.0000 0.46910  0.28810  0.46380  Biso   1.000  C
  C37      1.0000 0.56240  0.17130  0.05150  Biso   1.000  C
  C38      1.0000 0.43760  0.67130  0.44850  Biso   1.000  C
  C39      1.0000 0.43760  0.82870  0.94850  Biso   1.000  C
  C40      1.0000 0.56240  0.32870  0.55150  Biso   1.000  C
  C41      1.0000 0.58520  0.23690  0.14900  Biso   1.000  C
  C42      1.0000 0.41480  0.73690  0.35100  Biso   1.000  C
  C43      1.0000 0.41480  0.76310  0.85100  Biso   1.000  C
  C44      1.0000 0.58520  0.26310  0.64900  Biso   1.000  C
  C45      1.0000 0.51820  0.34850  0.16000  Biso   1.000  C
  C46      1.0000 0.48180  0.84850  0.34000  Biso   1.000  C
  C47      1.0000 0.48180  0.65150  0.84000  Biso   1.000  C
  C48      1.0000 0.51820  0.15150  0.66000  Biso   1.000  C
  C49      1.0000 0.42660  0.39230  0.07480  Biso   1.000  C
  C50      1.0000 0.57340  0.89230  0.42520  Biso   1.000  C
  C51      1.0000 0.57340  0.60770  0.92520  Biso   1.000  C
  C52      1.0000 0.42660  0.10770  0.57480  Biso   1.000  C
  H1       1.0000 0.05290  0.72110  0.91220  Biso   1.000  H
  H2       1.0000 0.94710  0.22110  0.58780  Biso   1.000  H
  H3       1.0000 0.94710  0.27890  0.08780  Biso   1.000  H
  H4       1.0000 0.05290  0.77890  0.41220  Biso   1.000  H
  H5       1.0000 0.23850  0.89790  0.18760  Biso   1.000  H
  H6       1.0000 0.76150  0.39790  0.31240  Biso   1.000  H
  H7       1.0000 0.76150  0.10210  0.81240  Biso   1.000  H
  H8       1.0000 0.23850  0.60210  0.68760  Biso   1.000  H
  H9       1.0000 0.45280  0.16350  0.89700  Biso   1.000  H
  H10      1.0000 0.54720  0.66350  0.60300  Biso   1.000  H
  H11      1.0000 0.54720  0.83650  0.10300  Biso   1.000  H
  H12      1.0000 0.45280  0.33650  0.39700  Biso   1.000  H
  H13      1.0000 0.60990  0.09490  0.04180  Biso   1.000  H
  H14      1.0000 0.39010  0.59490  0.45820  Biso   1.000  H
  H15      1.0000 0.39010  0.90510  0.95820  Biso   1.000  H
  H16      1.0000 0.60990  0.40510  0.54180  Biso   1.000  H
  H17      1.0000 0.64890  0.20700  0.20660  Biso   1.000  H
  H18      1.0000 0.35110  0.70700  0.29340  Biso   1.000  H
  H19      1.0000 0.35110  0.79300  0.79340  Biso   1.000  H
  H20      1.0000 0.64890  0.29300  0.70660  Biso   1.000  H
  H21      1.0000 0.53350  0.39390  0.22780  Biso   1.000  H
  H22      1.0000 0.46650  0.89390  0.27220  Biso   1.000  H
  H23      1.0000 0.46650  0.60610  0.77220  Biso   1.000  H
  H24      1.0000 0.53350  0.10610  0.72780  Biso   1.000  H
  H25      1.0000 0.38170  0.47180  0.08390  Biso   1.000  H
  H26      1.0000 0.61830  0.97180  0.41610  Biso   1.000  H
  H27      1.0000 0.61830  0.52820  0.91610  Biso   1.000  H
  H28      1.0000 0.38170  0.02820  0.58390  Biso   1.000  H
  H29      1.0000 0.24450  0.18500  0.08980  Biso   1.000  H
  H30      1.0000 0.75550  0.68500  0.41020  Biso   1.000  H
  H31      1.0000 0.75550  0.81500  0.91020  Biso   1.000  H
  H32      1.0000 0.24450  0.31500  0.58980  Biso   1.000  H
  H33      1.0000 0.17660  0.39610  0.96840  Biso   1.000  H
  H34      1.0000 0.82340  0.89610  0.53160  Biso   1.000  H
  H35      1.0000 0.82340  0.60390  0.03160  Biso   1.000  H
  H36      1.0000 0.17660  0.10390  0.46840  Biso   1.000  H
  H37      1.0000 0.29520  0.31470  0.82290  Biso   1.000  H
  H38      1.0000 0.70480  0.81470  0.67710  Biso   1.000  H
  H39      1.0000 0.70480  0.68530  0.17710  Biso   1.000  H
  H40      1.0000 0.29520  0.18530  0.32290  Biso   1.000  H
  H41      1.0000 0.30010  0.46580  0.87240  Biso   1.000  H
  H42      1.0000 0.69990  0.96580  0.62760  Biso   1.000  H
  H43      1.0000 0.69990  0.53420  0.12760  Biso   1.000  H
  H44      1.0000 0.30010  0.03420  0.37240  Biso   1.000  H
  H45      1.0000 0.14870  0.67310  0.10190  Biso   1.000  H
  H46      1.0000 0.85130  0.17310  0.39810  Biso   1.000  H
  H47      1.0000 0.85130  0.32690  0.89810  Biso   1.000  H
  H48      1.0000 0.14870  0.82690  0.60190  Biso   1.000  H
