data_image0
_cell_length_a       27.028
_cell_length_b       12.618
_cell_length_c       6.7904
_cell_angle_alpha    90
_cell_angle_beta     94.96
_cell_angle_gamma    90

_symmetry_space_group_name_H-M    "P 1"
_symmetry_int_tables_number       1

loop_
  _symmetry_equiv_pos_as_xyz
  'x, y, z'

loop_
  _atom_site_label
  _atom_site_occupancy
  _atom_site_fract_x
  _atom_site_fract_y
  _atom_site_fract_z
  _atom_site_thermal_displace_type
  _atom_site_B_iso_or_equiv
  _atom_site_type_symbol
  Cu1      1.0000 0.75000  0.25000  0.00000  Biso   1.000  Cu
  Cu2      1.0000 0.25000  0.25000  0.50000  Biso   1.000  Cu
  Cu3      1.0000 0.25000  0.75000  0.00000  Biso   1.000  Cu
  Cu4      1.0000 0.75000  0.75000  0.50000  Biso   1.000  Cu
  Cl1      1.0000 0.74644  0.38364  0.67230  Biso   1.000  Cl
  Cl2      1.0000 0.25356  0.38364  0.82770  Biso   1.000  Cl
  Cl3      1.0000 0.24644  0.88364  0.67230  Biso   1.000  Cl
  Cl4      1.0000 0.75356  0.88364  0.82770  Biso   1.000  Cl
  Cl5      1.0000 0.25356  0.61636  0.32770  Biso   1.000  Cl
  Cl6      1.0000 0.74644  0.61636  0.17230  Biso   1.000  Cl
  Cl7      1.0000 0.75356  0.11636  0.32770  Biso   1.000  Cl
  Cl8      1.0000 0.24644  0.11636  0.17230  Biso   1.000  Cl
  O1       1.0000 0.50000  0.13053  0.75000  Biso   1.000  O
  O2       1.0000 0.00000  0.63053  0.75000  Biso   1.000  O
  O3       1.0000 0.50000  0.86947  0.25000  Biso   1.000  O
  O4       1.0000 0.00000  0.36947  0.25000  Biso   1.000  O
  N1       1.0000 0.78545  0.14463  0.81920  Biso   1.000  N
  N2       1.0000 0.21455  0.14463  0.68080  Biso   1.000  N
  N3       1.0000 0.28545  0.64463  0.81920  Biso   1.000  N
  N4       1.0000 0.71455  0.64463  0.68080  Biso   1.000  N
  N5       1.0000 0.21455  0.85537  0.18080  Biso   1.000  N
  N6       1.0000 0.78545  0.85537  0.31920  Biso   1.000  N
  N7       1.0000 0.71455  0.35537  0.18080  Biso   1.000  N
  N8       1.0000 0.28545  0.35537  0.31920  Biso   1.000  N
  H1       1.0000 0.77400  0.07930  0.84250  Biso   1.000  H
  H2       1.0000 0.22600  0.07930  0.65750  Biso   1.000  H
  H3       1.0000 0.27400  0.57930  0.84250  Biso   1.000  H
  H4       1.0000 0.72600  0.57930  0.65750  Biso   1.000  H
  H5       1.0000 0.22600  0.92070  0.15750  Biso   1.000  H
  H6       1.0000 0.77400  0.92070  0.34250  Biso   1.000  H
  H7       1.0000 0.72600  0.42070  0.15750  Biso   1.000  H
  H8       1.0000 0.27400  0.42070  0.34250  Biso   1.000  H
  H9       1.0000 0.77520  0.16060  0.69310  Biso   1.000  H
  H10      1.0000 0.22480  0.16060  0.80690  Biso   1.000  H
  H11      1.0000 0.27520  0.66060  0.69310  Biso   1.000  H
  H12      1.0000 0.72480  0.66060  0.80690  Biso   1.000  H
  H13      1.0000 0.22480  0.83940  0.30690  Biso   1.000  H
  H14      1.0000 0.77520  0.83940  0.19310  Biso   1.000  H
  H15      1.0000 0.72480  0.33940  0.30690  Biso   1.000  H
  H16      1.0000 0.27520  0.33940  0.19310  Biso   1.000  H
  N9       1.0000 0.52588  0.96547  0.76860  Biso   1.000  N
  N10      1.0000 0.47412  0.96547  0.73140  Biso   1.000  N
  N11      1.0000 0.02588  0.46547  0.76860  Biso   1.000  N
  N12      1.0000 0.97412  0.46547  0.73140  Biso   1.000  N
  N13      1.0000 0.47412  0.03453  0.23140  Biso   1.000  N
  N14      1.0000 0.52588  0.03453  0.26860  Biso   1.000  N
  N15      1.0000 0.97412  0.53453  0.23140  Biso   1.000  N
  N16      1.0000 0.02588  0.53453  0.26860  Biso   1.000  N
  N17      1.0000 0.68463  0.18313  0.88840  Biso   1.000  N
  N18      1.0000 0.31537  0.18313  0.61160  Biso   1.000  N
  N19      1.0000 0.18463  0.68313  0.88840  Biso   1.000  N
  N20      1.0000 0.81537  0.68313  0.61160  Biso   1.000  N
  N21      1.0000 0.31537  0.81687  0.11160  Biso   1.000  N
  N22      1.0000 0.68463  0.81687  0.38840  Biso   1.000  N
  N23      1.0000 0.81537  0.31687  0.11160  Biso   1.000  N
  N24      1.0000 0.18463  0.31687  0.38840  Biso   1.000  N
  C1       1.0000 0.83864  0.13839  0.83260  Biso   1.000  C
  C2       1.0000 0.16136  0.13839  0.66740  Biso   1.000  C
  C3       1.0000 0.33864  0.63839  0.83260  Biso   1.000  C
  C4       1.0000 0.66136  0.63839  0.66740  Biso   1.000  C
  C5       1.0000 0.16136  0.86161  0.16740  Biso   1.000  C
  C6       1.0000 0.83864  0.86161  0.33260  Biso   1.000  C
  C7       1.0000 0.66136  0.36161  0.16740  Biso   1.000  C
  C8       1.0000 0.33864  0.36161  0.33260  Biso   1.000  C
  C9       1.0000 0.64945  0.24122  0.78790  Biso   1.000  C
  C10      1.0000 0.35055  0.24122  0.71210  Biso   1.000  C
  C11      1.0000 0.14945  0.74122  0.78790  Biso   1.000  C
  C12      1.0000 0.85055  0.74122  0.71210  Biso   1.000  C
  C13      1.0000 0.35055  0.75878  0.21210  Biso   1.000  C
  C14      1.0000 0.64945  0.75878  0.28790  Biso   1.000  C
  C15      1.0000 0.85055  0.25878  0.21210  Biso   1.000  C
  C16      1.0000 0.14945  0.25878  0.28790  Biso   1.000  C
  H17      1.0000 0.65790  0.30770  0.74220  Biso   1.000  H
  H18      1.0000 0.34210  0.30770  0.75780  Biso   1.000  H
  H19      1.0000 0.15790  0.80770  0.74220  Biso   1.000  H
  H20      1.0000 0.84210  0.80770  0.75780  Biso   1.000  H
  H21      1.0000 0.34210  0.69230  0.25780  Biso   1.000  H
  H22      1.0000 0.65790  0.69230  0.24220  Biso   1.000  H
  H23      1.0000 0.84210  0.19230  0.25780  Biso   1.000  H
  H24      1.0000 0.15790  0.19230  0.24220  Biso   1.000  H
  C17      1.0000 0.86577  0.21652  0.74760  Biso   1.000  C
  C18      1.0000 0.13423  0.21652  0.75240  Biso   1.000  C
  C19      1.0000 0.36577  0.71652  0.74760  Biso   1.000  C
  C20      1.0000 0.63423  0.71652  0.75240  Biso   1.000  C
  C21      1.0000 0.13423  0.78348  0.25240  Biso   1.000  C
  C22      1.0000 0.86577  0.78348  0.24760  Biso   1.000  C
  C23      1.0000 0.63423  0.28348  0.25240  Biso   1.000  C
  C24      1.0000 0.36577  0.28348  0.24760  Biso   1.000  C
  H25      1.0000 0.84960  0.26980  0.67230  Biso   1.000  H
  H26      1.0000 0.15040  0.26980  0.82770  Biso   1.000  H
  H27      1.0000 0.34960  0.76980  0.67230  Biso   1.000  H
  H28      1.0000 0.65040  0.76980  0.82770  Biso   1.000  H
  H29      1.0000 0.15040  0.73020  0.32770  Biso   1.000  H
  H30      1.0000 0.84960  0.73020  0.17230  Biso   1.000  H
  H31      1.0000 0.65040  0.23020  0.32770  Biso   1.000  H
  H32      1.0000 0.34960  0.23020  0.17230  Biso   1.000  H
  C25      1.0000 0.62646  0.04244  0.90110  Biso   1.000  C
  C26      1.0000 0.37354  0.04244  0.59890  Biso   1.000  C
  C27      1.0000 0.12646  0.54244  0.90110  Biso   1.000  C
  C28      1.0000 0.87354  0.54244  0.59890  Biso   1.000  C
  C29      1.0000 0.37354  0.95756  0.09890  Biso   1.000  C
  C30      1.0000 0.62646  0.95756  0.40110  Biso   1.000  C
  C31      1.0000 0.87354  0.45756  0.09890  Biso   1.000  C
  C32      1.0000 0.12646  0.45756  0.40110  Biso   1.000  C
  H33      1.0000 0.61990  0.97270  0.93500  Biso   1.000  H
  H34      1.0000 0.38010  0.97270  0.56500  Biso   1.000  H
  H35      1.0000 0.11990  0.47270  0.93500  Biso   1.000  H
  H36      1.0000 0.88010  0.47270  0.56500  Biso   1.000  H
  H37      1.0000 0.38010  0.02730  0.06500  Biso   1.000  H
  H38      1.0000 0.61990  0.02730  0.43500  Biso   1.000  H
  H39      1.0000 0.88010  0.52730  0.06500  Biso   1.000  H
  H40      1.0000 0.11990  0.52730  0.43500  Biso   1.000  H
  C33      1.0000 0.58943  0.10551  0.81000  Biso   1.000  C
  C34      1.0000 0.41057  0.10551  0.69000  Biso   1.000  C
  C35      1.0000 0.08943  0.60551  0.81000  Biso   1.000  C
  C36      1.0000 0.91057  0.60551  0.69000  Biso   1.000  C
  C37      1.0000 0.41057  0.89449  0.19000  Biso   1.000  C
  C38      1.0000 0.58943  0.89449  0.31000  Biso   1.000  C
  C39      1.0000 0.91057  0.39449  0.19000  Biso   1.000  C
  C40      1.0000 0.08943  0.39449  0.31000  Biso   1.000  C
  C41      1.0000 0.86272  0.05767  0.93810  Biso   1.000  C
  C42      1.0000 0.13728  0.05767  0.56190  Biso   1.000  C
  C43      1.0000 0.36272  0.55767  0.93810  Biso   1.000  C
  C44      1.0000 0.63728  0.55767  0.56190  Biso   1.000  C
  C45      1.0000 0.13728  0.94233  0.06190  Biso   1.000  C
  C46      1.0000 0.86272  0.94233  0.43810  Biso   1.000  C
  C47      1.0000 0.63728  0.44233  0.06190  Biso   1.000  C
  C48      1.0000 0.36272  0.44233  0.43810  Biso   1.000  C
  H41      1.0000 0.84460  0.00390  0.99190  Biso   1.000  H
  H42      1.0000 0.15540  0.00390  0.50810  Biso   1.000  H
  H43      1.0000 0.34460  0.50390  0.99190  Biso   1.000  H
  H44      1.0000 0.65540  0.50390  0.50810  Biso   1.000  H
  H45      1.0000 0.15540  0.99610  0.00810  Biso   1.000  H
  H46      1.0000 0.84460  0.99610  0.49190  Biso   1.000  H
  H47      1.0000 0.65540  0.49610  0.00810  Biso   1.000  H
  H48      1.0000 0.34460  0.49610  0.49190  Biso   1.000  H
  C49      1.0000 0.53903  0.06337  0.77740  Biso   1.000  C
  C50      1.0000 0.46097  0.06337  0.72260  Biso   1.000  C
  C51      1.0000 0.03903  0.56337  0.77740  Biso   1.000  C
  C52      1.0000 0.96097  0.56337  0.72260  Biso   1.000  C
  C53      1.0000 0.46097  0.93663  0.22260  Biso   1.000  C
  C54      1.0000 0.53903  0.93663  0.27740  Biso   1.000  C
  C55      1.0000 0.96097  0.43663  0.22260  Biso   1.000  C
  C56      1.0000 0.03903  0.43663  0.27740  Biso   1.000  C
  C57      1.0000 0.91408  0.05680  0.96390  Biso   1.000  C
  C58      1.0000 0.08592  0.05680  0.53610  Biso   1.000  C
  C59      1.0000 0.41408  0.55680  0.96390  Biso   1.000  C
  C60      1.0000 0.58592  0.55680  0.53610  Biso   1.000  C
  C61      1.0000 0.08592  0.94320  0.03610  Biso   1.000  C
  C62      1.0000 0.91408  0.94320  0.46390  Biso   1.000  C
  C63      1.0000 0.58592  0.44320  0.03610  Biso   1.000  C
  C64      1.0000 0.41408  0.44320  0.46390  Biso   1.000  C
  H49      1.0000 0.93040  0.00230  0.03550  Biso   1.000  H
  H50      1.0000 0.06960  0.00230  0.46450  Biso   1.000  H
  H51      1.0000 0.43040  0.50230  0.03550  Biso   1.000  H
  H52      1.0000 0.56960  0.50230  0.46450  Biso   1.000  H
  H53      1.0000 0.06960  0.99770  0.96450  Biso   1.000  H
  H54      1.0000 0.93040  0.99770  0.53550  Biso   1.000  H
  H55      1.0000 0.56960  0.49770  0.96450  Biso   1.000  H
  H56      1.0000 0.43040  0.49770  0.53550  Biso   1.000  H
  C65      1.0000 0.67321  0.08464  0.94080  Biso   1.000  C
  C66      1.0000 0.32679  0.08464  0.55920  Biso   1.000  C
  C67      1.0000 0.17321  0.58464  0.94080  Biso   1.000  C
  C68      1.0000 0.82679  0.58464  0.55920  Biso   1.000  C
  C69      1.0000 0.32679  0.91536  0.05920  Biso   1.000  C
  C70      1.0000 0.67321  0.91536  0.44080  Biso   1.000  C
  C71      1.0000 0.82679  0.41536  0.05920  Biso   1.000  C
  C72      1.0000 0.17321  0.41536  0.44080  Biso   1.000  C
  H57      1.0000 0.69780  0.04300  0.00650  Biso   1.000  H
  H58      1.0000 0.30220  0.04300  0.49350  Biso   1.000  H
  H59      1.0000 0.19780  0.54300  0.00650  Biso   1.000  H
  H60      1.0000 0.80220  0.54300  0.49350  Biso   1.000  H
  H61      1.0000 0.30220  0.95700  0.99350  Biso   1.000  H
  H62      1.0000 0.69780  0.95700  0.50650  Biso   1.000  H
  H63      1.0000 0.80220  0.45700  0.99350  Biso   1.000  H
  H64      1.0000 0.19780  0.45700  0.50650  Biso   1.000  H
  C73      1.0000 0.60127  0.20621  0.74970  Biso   1.000  C
  C74      1.0000 0.39873  0.20621  0.75030  Biso   1.000  C
  C75      1.0000 0.10127  0.70621  0.74970  Biso   1.000  C
  C76      1.0000 0.89873  0.70621  0.75030  Biso   1.000  C
  C77      1.0000 0.39873  0.79379  0.25030  Biso   1.000  C
  C78      1.0000 0.60127  0.79379  0.24970  Biso   1.000  C
  C79      1.0000 0.89873  0.29379  0.25030  Biso   1.000  C
  C80      1.0000 0.10127  0.29379  0.24970  Biso   1.000  C
  H65      1.0000 0.57730  0.24950  0.68470  Biso   1.000  H
  H66      1.0000 0.42270  0.24950  0.81530  Biso   1.000  H
  H67      1.0000 0.07730  0.74950  0.68470  Biso   1.000  H
  H68      1.0000 0.92270  0.74950  0.81530  Biso   1.000  H
  H69      1.0000 0.42270  0.75050  0.31530  Biso   1.000  H
  H70      1.0000 0.57730  0.75050  0.18470  Biso   1.000  H
  H71      1.0000 0.92270  0.25050  0.31530  Biso   1.000  H
  H72      1.0000 0.07730  0.25050  0.18470  Biso   1.000  H
  C81      1.0000 0.94114  0.13590  0.88430  Biso   1.000  C
  C82      1.0000 0.05886  0.13590  0.61570  Biso   1.000  C
  C83      1.0000 0.44114  0.63590  0.88430  Biso   1.000  C
  C84      1.0000 0.55886  0.63590  0.61570  Biso   1.000  C
  C85      1.0000 0.05886  0.86410  0.11570  Biso   1.000  C
  C86      1.0000 0.94114  0.86410  0.38430  Biso   1.000  C
  C87      1.0000 0.55886  0.36410  0.11570  Biso   1.000  C
  C88      1.0000 0.44114  0.36410  0.38430  Biso   1.000  C
  H73      1.0000 0.97560  0.13570  0.90420  Biso   1.000  H
  H74      1.0000 0.02440  0.13570  0.59580  Biso   1.000  H
  H75      1.0000 0.47560  0.63570  0.90420  Biso   1.000  H
  H76      1.0000 0.52440  0.63570  0.59580  Biso   1.000  H
  H77      1.0000 0.02440  0.86430  0.09580  Biso   1.000  H
  H78      1.0000 0.97560  0.86430  0.40420  Biso   1.000  H
  H79      1.0000 0.52440  0.36430  0.09580  Biso   1.000  H
  H80      1.0000 0.47560  0.36430  0.40420  Biso   1.000  H
  C89      1.0000 0.91710  0.21500  0.77530  Biso   1.000  C
  C90      1.0000 0.08290  0.21500  0.72470  Biso   1.000  C
  C91      1.0000 0.41710  0.71500  0.77530  Biso   1.000  C
  C92      1.0000 0.58290  0.71500  0.72470  Biso   1.000  C
  C93      1.0000 0.08290  0.78500  0.22470  Biso   1.000  C
  C94      1.0000 0.91710  0.78500  0.27530  Biso   1.000  C
  C95      1.0000 0.58290  0.28500  0.22470  Biso   1.000  C
  C96      1.0000 0.41710  0.28500  0.27530  Biso   1.000  C
  H81      1.0000 0.93540  0.26780  0.71960  Biso   1.000  H
  H82      1.0000 0.06460  0.26780  0.78040  Biso   1.000  H
  H83      1.0000 0.43540  0.76780  0.71960  Biso   1.000  H
  H84      1.0000 0.56460  0.76780  0.78040  Biso   1.000  H
  H85      1.0000 0.06460  0.73220  0.28040  Biso   1.000  H
  H86      1.0000 0.93540  0.73220  0.21960  Biso   1.000  H
  H87      1.0000 0.56460  0.23220  0.28040  Biso   1.000  H
  H88      1.0000 0.43540  0.23220  0.21960  Biso   1.000  H
