data_image0
_cell_length_a       5.7372
_cell_length_b       9.897
_cell_length_c       10.394
_cell_angle_alpha    108.33
_cell_angle_beta     105.27
_cell_angle_gamma    90.5

_symmetry_space_group_name_H-M    "P 1"
_symmetry_int_tables_number       1

loop_
  _symmetry_equiv_pos_as_xyz
  'x, y, z'

loop_
  _atom_site_label
  _atom_site_occupancy
  _atom_site_fract_x
  _atom_site_fract_y
  _atom_site_fract_z
  _atom_site_thermal_displace_type
  _atom_site_B_iso_or_equiv
  _atom_site_type_symbol
  Cu1      1.0000 0.21610  0.02626  0.94254  Biso   1.000  Cu
  Cu2      1.0000 0.78390  0.97374  0.05746  Biso   1.000  Cu
  N1       1.0000 0.44390  0.90040  0.86460  Biso   1.000  N
  N2       1.0000 0.55610  0.09960  0.13540  Biso   1.000  N
  N3       1.0000 0.43090  0.85800  0.74150  Biso   1.000  N
  N4       1.0000 0.56910  0.14200  0.25850  Biso   1.000  N
  N5       1.0000 0.42670  0.81560  0.62490  Biso   1.000  N
  N6       1.0000 0.57330  0.18440  0.37510  Biso   1.000  N
  N7       1.0000 0.00640  0.86670  0.95370  Biso   1.000  N
  N8       1.0000 0.99360  0.13330  0.04630  Biso   1.000  N
  N9       1.0000 0.98770  0.74010  0.89900  Biso   1.000  N
  N10      1.0000 0.01230  0.25990  0.10100  Biso   1.000  N
  N11      1.0000 0.97460  0.61980  0.85120  Biso   1.000  N
  N12      1.0000 0.02540  0.38020  0.14880  Biso   1.000  N
  N13      1.0000 0.24830  0.16830  0.84510  Biso   1.000  N
  N14      1.0000 0.75170  0.83170  0.15490  Biso   1.000  N
  C1       1.0000 0.08240  0.16710  0.72630  Biso   1.000  C
  C2       1.0000 0.91760  0.83290  0.27370  Biso   1.000  C
  C3       1.0000 0.11540  0.26170  0.65840  Biso   1.000  C
  C4       1.0000 0.88460  0.73830  0.34160  Biso   1.000  C
  H1       1.0000 0.99730  0.26000  0.57700  Biso   1.000  H
  H2       1.0000 0.00270  0.74000  0.42300  Biso   1.000  H
  C5       1.0000 0.31630  0.35810  0.70710  Biso   1.000  C
  C6       1.0000 0.68370  0.64190  0.29290  Biso   1.000  C
  C7       1.0000 0.48300  0.35900  0.82950  Biso   1.000  C
  C8       1.0000 0.51700  0.64100  0.17050  Biso   1.000  C
  H3       1.0000 0.62250  0.42300  0.86740  Biso   1.000  H
  H4       1.0000 0.37750  0.57700  0.13260  Biso   1.000  H
  C9       1.0000 0.44200  0.26500  0.89530  Biso   1.000  C
  C10      1.0000 0.55800  0.73500  0.10470  Biso   1.000  C
  H5       1.0000 0.55480  0.26850  0.97930  Biso   1.000  H
  H6       1.0000 0.44520  0.73150  0.02070  Biso   1.000  H
  C11      1.0000 0.86520  0.05940  0.67320  Biso   1.000  C
  C12      1.0000 0.13480  0.94060  0.32680  Biso   1.000  C
  H7       1.0000 0.74930  0.07760  0.59670  Biso   1.000  H
  H8       1.0000 0.25070  0.92240  0.40330  Biso   1.000  H
  H9       1.0000 0.79280  0.06640  0.74820  Biso   1.000  H
  H10      1.0000 0.20720  0.93360  0.25180  Biso   1.000  H
  H11      1.0000 0.91420  0.96500  0.64070  Biso   1.000  H
  H12      1.0000 0.08580  0.03500  0.35930  Biso   1.000  H
  C13      1.0000 0.35380  0.46180  0.63270  Biso   1.000  C
  C14      1.0000 0.64620  0.53820  0.36730  Biso   1.000  C
  H13      1.0000 0.33730  0.55700  0.68880  Biso   1.000  H
  H14      1.0000 0.66270  0.44300  0.31120  Biso   1.000  H
  H15      1.0000 0.23450  0.43650  0.54240  Biso   1.000  H
  H16      1.0000 0.76550  0.56350  0.45760  Biso   1.000  H
  H17      1.0000 0.51340  0.45780  0.61950  Biso   1.000  H
  H18      1.0000 0.48660  0.54220  0.38050  Biso   1.000  H
