data_image0
_cell_length_a       5.5714
_cell_length_b       6.978
_cell_length_c       10.303
_cell_angle_alpha    103.643
_cell_angle_beta     101.225
_cell_angle_gamma    101.936

_symmetry_space_group_name_H-M    "P 1"
_symmetry_int_tables_number       1

loop_
  _symmetry_equiv_pos_as_xyz
  'x, y, z'

loop_
  _atom_site_label
  _atom_site_occupancy
  _atom_site_fract_x
  _atom_site_fract_y
  _atom_site_fract_z
  _atom_site_thermal_displace_type
  _atom_site_B_iso_or_equiv
  _atom_site_type_symbol
  Cu1      1.0000 0.50000  0.50000  0.50000  Biso   1.000  Cu
  Br1      1.0000 0.74450  0.50855  0.72381  Biso   1.000  Br
  Br2      1.0000 0.25550  0.49145  0.27619  Biso   1.000  Br
  O1       1.0000 0.11320  0.20150  0.49767  Biso   1.000  O
  O2       1.0000 0.88680  0.79850  0.50233  Biso   1.000  O
  O3       1.0000 0.33680  0.69370  0.58901  Biso   1.000  O
  O4       1.0000 0.66320  0.30630  0.41099  Biso   1.000  O
  C1       1.0000 0.08790  0.02380  0.38520  Biso   1.000  C
  C2       1.0000 0.91210  0.97620  0.61480  Biso   1.000  C
  C3       1.0000 0.13710  0.14570  0.62430  Biso   1.000  C
  C4       1.0000 0.86290  0.85430  0.37570  Biso   1.000  C
  H1       1.0000 0.24700  0.97000  0.40100  Biso   1.000  H
  H2       1.0000 0.75300  0.03000  0.59900  Biso   1.000  H
  H3       1.0000 0.06000  0.06400  0.30700  Biso   1.000  H
  H4       1.0000 0.94000  0.93600  0.69300  Biso   1.000  H
  H5       1.0000 0.14300  0.26200  0.69200  Biso   1.000  H
  H6       1.0000 0.85700  0.73800  0.30800  Biso   1.000  H
  H7       1.0000 0.28600  0.10600  0.64100  Biso   1.000  H
  H8       1.0000 0.71400  0.89400  0.35900  Biso   1.000  H
  H9       1.0000 0.20700  0.69100  0.55900  Biso   1.000  H
  H10      1.0000 0.79300  0.30900  0.44100  Biso   1.000  H
  H11      1.0000 0.36700  0.72900  0.66900  Biso   1.000  H
  H12      1.0000 0.63300  0.27100  0.33100  Biso   1.000  H
  O5       1.0000 0.42080  0.89410  0.85809  Biso   1.000  O
  O6       1.0000 0.57920  0.10590  0.14191  Biso   1.000  O
  C5       1.0000 0.39630  0.78920  0.96100  Biso   1.000  C
  C6       1.0000 0.60370  0.21080  0.03900  Biso   1.000  C
  C7       1.0000 0.63540  0.06990  0.91300  Biso   1.000  C
  C8       1.0000 0.36460  0.93010  0.08700  Biso   1.000  C
  H13      1.0000 0.25000  0.67300  0.92100  Biso   1.000  H
  H14      1.0000 0.75000  0.32700  0.07900  Biso   1.000  H
  H15      1.0000 0.54900  0.74000  0.98400  Biso   1.000  H
  H16      1.0000 0.45100  0.26000  0.01600  Biso   1.000  H
  H17      1.0000 0.79700  0.02800  0.93300  Biso   1.000  H
  H18      1.0000 0.20300  0.97200  0.06700  Biso   1.000  H
  H19      1.0000 0.64100  0.14000  0.84200  Biso   1.000  H
  H20      1.0000 0.35900  0.86000  0.15800  Biso   1.000  H
