data_image0
_cell_length_a       7.0774
_cell_length_b       9.6587
_cell_length_c       10.4432
_cell_angle_alpha    93.624
_cell_angle_beta     109.603
_cell_angle_gamma    91.358

_symmetry_space_group_name_H-M    "P 1"
_symmetry_int_tables_number       1

loop_
  _symmetry_equiv_pos_as_xyz
  'x, y, z'

loop_
  _atom_site_label
  _atom_site_occupancy
  _atom_site_fract_x
  _atom_site_fract_y
  _atom_site_fract_z
  _atom_site_thermal_displace_type
  _atom_site_B_iso_or_equiv
  _atom_site_type_symbol
  Cu1      1.0000 0.28020  0.51253  0.38668  Biso   1.000  Cu
  Cu2      1.0000 0.71980  0.48747  0.61332  Biso   1.000  Cu
  O1       1.0000 0.19750  0.61530  0.52290  Biso   1.000  O
  O2       1.0000 0.80250  0.38470  0.47710  Biso   1.000  O
  O3       1.0000 0.12980  0.58070  0.71110  Biso   1.000  O
  O4       1.0000 0.87020  0.41930  0.28890  Biso   1.000  O
  O5       1.0000 0.36290  0.37690  0.51930  Biso   1.000  O
  O6       1.0000 0.63710  0.62310  0.48070  Biso   1.000  O
  O7       1.0000 0.28990  0.31880  0.70290  Biso   1.000  O
  O8       1.0000 0.71010  0.68120  0.29710  Biso   1.000  O
  N1       1.0000 0.21020  0.65270  0.24950  Biso   1.000  N
  N2       1.0000 0.78980  0.34730  0.75050  Biso   1.000  N
  N3       1.0000 0.32270  0.40020  0.23280  Biso   1.000  N
  N4       1.0000 0.67730  0.59980  0.76720  Biso   1.000  N
  C1       1.0000 0.19600  0.54310  0.62090  Biso   1.000  C
  C2       1.0000 0.80400  0.45690  0.37910  Biso   1.000  C
  C3       1.0000 0.28240  0.39790  0.61790  Biso   1.000  C
  C4       1.0000 0.71760  0.60210  0.38210  Biso   1.000  C
  H1       1.0000 0.38340  0.38570  0.70680  Biso   1.000  H
  H2       1.0000 0.61660  0.61430  0.29320  Biso   1.000  H
  H3       1.0000 0.18230  0.30500  0.59890  Biso   1.000  H
  H4       1.0000 0.81770  0.69500  0.40110  Biso   1.000  H
  C5       1.0000 0.16540  0.78410  0.27240  Biso   1.000  C
  C6       1.0000 0.83460  0.21590  0.72760  Biso   1.000  C
  H5       1.0000 0.14810  0.80310  0.35350  Biso   1.000  H
  H6       1.0000 0.85190  0.19690  0.64650  Biso   1.000  H
  C7       1.0000 0.13710  0.87870  0.17550  Biso   1.000  C
  C8       1.0000 0.86290  0.12130  0.82450  Biso   1.000  C
  H7       1.0000 0.10220  0.97260  0.19790  Biso   1.000  H
  H8       1.0000 0.89780  0.02740  0.80210  Biso   1.000  H
  C9       1.0000 0.15110  0.83600  0.05040  Biso   1.000  C
  C10      1.0000 0.84890  0.16400  0.94960  Biso   1.000  C
  H9       1.0000 0.12900  0.89970  0.98580  Biso   1.000  H
  H10      1.0000 0.87100  0.10030  0.01420  Biso   1.000  H
  C11      1.0000 0.19230  0.70010  0.02520  Biso   1.000  C
  C12      1.0000 0.80770  0.29990  0.97480  Biso   1.000  C
  H11      1.0000 0.19790  0.67420  0.93360  Biso   1.000  H
  H12      1.0000 0.80210  0.32580  0.06640  Biso   1.000  H
  C13      1.0000 0.22400  0.61050  0.12820  Biso   1.000  C
  C14      1.0000 0.77600  0.38950  0.87180  Biso   1.000  C
  C15      1.0000 0.28020  0.46540  0.11660  Biso   1.000  C
  C16      1.0000 0.71980  0.53460  0.88340  Biso   1.000  C
  C17      1.0000 0.29060  0.39930  0.99780  Biso   1.000  C
  C18      1.0000 0.70940  0.60070  0.00220  Biso   1.000  C
  H13      1.0000 0.26030  0.44930  0.90910  Biso   1.000  H
  H14      1.0000 0.73970  0.55070  0.09090  Biso   1.000  H
  C19      1.0000 0.35150  0.26390  0.00050  Biso   1.000  C
  C20      1.0000 0.64850  0.73610  0.99950  Biso   1.000  C
  H15      1.0000 0.35500  0.20690  0.91390  Biso   1.000  H
  H16      1.0000 0.64500  0.79310  0.08610  Biso   1.000  H
  C21      1.0000 0.39830  0.19920  0.11990  Biso   1.000  C
  C22      1.0000 0.60170  0.80080  0.88010  Biso   1.000  C
  H17      1.0000 0.43990  0.11650  0.12910  Biso   1.000  H
  H18      1.0000 0.56010  0.88350  0.87090  Biso   1.000  H
  C23      1.0000 0.38210  0.26960  0.23450  Biso   1.000  C
  C24      1.0000 0.61790  0.73040  0.76550  Biso   1.000  C
  H19      1.0000 0.39800  0.22200  0.30900  Biso   1.000  H
  H20      1.0000 0.60200  0.77800  0.69100  Biso   1.000  H
  O9       1.0000 0.97380  0.13540  0.32030  Biso   1.000  O
  O10      1.0000 0.02620  0.86460  0.67970  Biso   1.000  O
  H21      1.0000 0.04960  0.10460  0.38710  Biso   1.000  H
  H22      1.0000 0.95040  0.89540  0.61290  Biso   1.000  H
  H23      1.0000 0.96570  0.23380  0.34940  Biso   1.000  H
  H24      1.0000 0.03430  0.76620  0.65060  Biso   1.000  H
  O11      1.0000 0.31970  0.04940  0.74360  Biso   1.000  O
  O12      1.0000 0.68030  0.95060  0.25640  Biso   1.000  O
  H25      1.0000 0.20940  0.97580  0.72360  Biso   1.000  H
  H26      1.0000 0.79060  0.02420  0.27640  Biso   1.000  H
  H27      1.0000 0.38710  0.04970  0.66720  Biso   1.000  H
  H28      1.0000 0.61290  0.95030  0.33280  Biso   1.000  H
  O13      1.0000 0.36630  0.09550  0.49330  Biso   1.000  O
  O14      1.0000 0.63370  0.90450  0.50670  Biso   1.000  O
  O15      1.0000 0.30400  0.03840  0.56880  Biso   1.000  O
  O16      1.0000 0.69600  0.96160  0.43120  Biso   1.000  O
  H29      1.0000 0.43890  0.09650  0.56740  Biso   1.000  H
  H30      1.0000 0.56110  0.90350  0.43260  Biso   1.000  H
  H31      1.0000 0.31550  0.11330  0.61440  Biso   1.000  H
  H32      1.0000 0.68450  0.88670  0.38560  Biso   1.000  H
