data_image0
_cell_length_a       7.1206
_cell_length_b       9.6672
_cell_length_c       10.4706
_cell_angle_alpha    93.885
_cell_angle_beta     109.525
_cell_angle_gamma    91.447

_symmetry_space_group_name_H-M    "P 1"
_symmetry_int_tables_number       1

loop_
  _symmetry_equiv_pos_as_xyz
  'x, y, z'

loop_
  _atom_site_label
  _atom_site_occupancy
  _atom_site_fract_x
  _atom_site_fract_y
  _atom_site_fract_z
  _atom_site_thermal_displace_type
  _atom_site_B_iso_or_equiv
  _atom_site_type_symbol
  Cu1      1.0000 0.72590  0.48838  0.11325  Biso   1.000  Cu
  Cu2      1.0000 0.27410  0.51162  0.88675  Biso   1.000  Cu
  O1       1.0000 0.80580  0.38490  0.97710  Biso   1.000  O
  O2       1.0000 0.19420  0.61510  0.02290  Biso   1.000  O
  O3       1.0000 0.86940  0.41870  0.78780  Biso   1.000  O
  O4       1.0000 0.13060  0.58130  0.21220  Biso   1.000  O
  O5       1.0000 0.64330  0.62180  0.97990  Biso   1.000  O
  O6       1.0000 0.35670  0.37820  0.02010  Biso   1.000  O
  O7       1.0000 0.70630  0.67540  0.79380  Biso   1.000  O
  O8       1.0000 0.29370  0.32460  0.20620  Biso   1.000  O
  N1       1.0000 0.68050  0.60090  0.26520  Biso   1.000  N
  N2       1.0000 0.31950  0.39910  0.73480  Biso   1.000  N
  N3       1.0000 0.79180  0.34970  0.24940  Biso   1.000  N
  N4       1.0000 0.20820  0.65030  0.75060  Biso   1.000  N
  C1       1.0000 0.80530  0.45610  0.87940  Biso   1.000  C
  C2       1.0000 0.19470  0.54390  0.12060  Biso   1.000  C
  C3       1.0000 0.71690  0.59980  0.88100  Biso   1.000  C
  C4       1.0000 0.28310  0.40020  0.11900  Biso   1.000  C
  H1       1.0000 0.82050  0.67220  0.88950  Biso   1.000  H
  H2       1.0000 0.17950  0.32780  0.11050  Biso   1.000  H
  H3       1.0000 0.61250  0.60810  0.79390  Biso   1.000  H
  H4       1.0000 0.38750  0.39190  0.20610  Biso   1.000  H
  C5       1.0000 0.62160  0.73250  0.26140  Biso   1.000  C
  C6       1.0000 0.37840  0.26750  0.73860  Biso   1.000  C
  H5       1.0000 0.60030  0.77820  0.17540  Biso   1.000  H
  H6       1.0000 0.39970  0.22180  0.82460  Biso   1.000  H
  C7       1.0000 0.60020  0.80170  0.37370  Biso   1.000  C
  C8       1.0000 0.39980  0.19830  0.62630  Biso   1.000  C
  H7       1.0000 0.56520  0.88580  0.36200  Biso   1.000  H
  H8       1.0000 0.43480  0.11420  0.63800  Biso   1.000  H
  C9       1.0000 0.64440  0.73810  0.49310  Biso   1.000  C
  C10      1.0000 0.35560  0.26190  0.50690  Biso   1.000  C
  H9       1.0000 0.61430  0.78380  0.56270  Biso   1.000  H
  H10      1.0000 0.38570  0.21620  0.43730  Biso   1.000  H
  C11      1.0000 0.70490  0.60310  0.49810  Biso   1.000  C
  C12      1.0000 0.29510  0.39690  0.50190  Biso   1.000  C
  H11      1.0000 0.72870  0.54800  0.59160  Biso   1.000  H
  H12      1.0000 0.27130  0.45200  0.40840  Biso   1.000  H
  C13      1.0000 0.72010  0.53620  0.38030  Biso   1.000  C
  C14      1.0000 0.27990  0.46380  0.61970  Biso   1.000  C
  C15      1.0000 0.77640  0.39220  0.37060  Biso   1.000  C
  C16      1.0000 0.22360  0.60780  0.62940  Biso   1.000  C
  C17      1.0000 0.80740  0.30370  0.47390  Biso   1.000  C
  C18      1.0000 0.19260  0.69630  0.52610  Biso   1.000  C
  H13      1.0000 0.78400  0.33760  0.56490  Biso   1.000  H
  H14      1.0000 0.21600  0.66240  0.43510  Biso   1.000  H
  C19      1.0000 0.85200  0.16830  0.45040  Biso   1.000  C
  C20      1.0000 0.14800  0.83170  0.54960  Biso   1.000  C
  H15      1.0000 0.86240  0.10400  0.51560  Biso   1.000  H
  H16      1.0000 0.13760  0.89600  0.48440  Biso   1.000  H
  C21      1.0000 0.86750  0.12570  0.32620  Biso   1.000  C
  C22      1.0000 0.13250  0.87430  0.67380  Biso   1.000  C
  H17      1.0000 0.90280  0.03620  0.30140  Biso   1.000  H
  H18      1.0000 0.09720  0.96380  0.69860  Biso   1.000  H
  C23      1.0000 0.83690  0.21820  0.22810  Biso   1.000  C
  C24      1.0000 0.16310  0.78180  0.77190  Biso   1.000  C
  H19      1.0000 0.87520  0.19710  0.14500  Biso   1.000  H
  H20      1.0000 0.12480  0.80290  0.85500  Biso   1.000  H
  O9       1.0000 0.03030  0.87010  0.17890  Biso   1.000  O
  O10      1.0000 0.96970  0.12990  0.82110  Biso   1.000  O
  H21      1.0000 0.07900  0.77880  0.17280  Biso   1.000  H
  H22      1.0000 0.92100  0.22120  0.82720  Biso   1.000  H
  H23      1.0000 0.91990  0.88040  0.08420  Biso   1.000  H
  H24      1.0000 0.08010  0.11960  0.91580  Biso   1.000  H
  O11      1.0000 0.32650  0.05320  0.24060  Biso   1.000  O
  O12      1.0000 0.67350  0.94680  0.75940  Biso   1.000  O
  H25      1.0000 0.19620  0.08010  0.20130  Biso   1.000  H
  H26      1.0000 0.80380  0.91990  0.79870  Biso   1.000  H
  H27      1.0000 0.31460  0.95370  0.29500  Biso   1.000  H
  H28      1.0000 0.68540  0.04630  0.70500  Biso   1.000  H
  O13      1.0000 0.37740  0.08790  0.99480  Biso   1.000  O
  O14      1.0000 0.62260  0.91210  0.00520  Biso   1.000  O
  H29      1.0000 0.37790  0.01650  0.93820  Biso   1.000  H
  H30      1.0000 0.62210  0.98350  0.06180  Biso   1.000  H
  H31      1.0000 0.46580  0.06840  0.06530  Biso   1.000  H
  H32      1.0000 0.53420  0.93160  0.93470  Biso   1.000  H
  O15      1.0000 0.30220  0.04260  0.07700  Biso   1.000  O
  O16      1.0000 0.69780  0.95740  0.92300  Biso   1.000  O
  H33      1.0000 0.32300  0.11190  0.14480  Biso   1.000  H
  H34      1.0000 0.67700  0.88810  0.85520  Biso   1.000  H
