data_image0
_cell_length_a       13.9835
_cell_length_b       13.2844
_cell_length_c       7.4968
_cell_angle_alpha    90
_cell_angle_beta     114.503
_cell_angle_gamma    90

_symmetry_space_group_name_H-M    "P 1"
_symmetry_int_tables_number       1

loop_
  _symmetry_equiv_pos_as_xyz
  'x, y, z'

loop_
  _atom_site_label
  _atom_site_occupancy
  _atom_site_fract_x
  _atom_site_fract_y
  _atom_site_fract_z
  _atom_site_thermal_displace_type
  _atom_site_B_iso_or_equiv
  _atom_site_type_symbol
  Cu1      1.0000 0.07029  0.26609  0.03044  Biso   1.000  Cu
  Cu2      1.0000 0.07029  0.73391  0.53044  Biso   1.000  Cu
  Cu3      1.0000 0.57029  0.76609  0.03044  Biso   1.000  Cu
  Cu4      1.0000 0.57029  0.23391  0.53044  Biso   1.000  Cu
  S1       1.0000 0.91055  0.35684  0.54591  Biso   1.000  S
  S2       1.0000 0.91055  0.64316  0.04591  Biso   1.000  S
  S3       1.0000 0.41055  0.85684  0.54591  Biso   1.000  S
  S4       1.0000 0.41055  0.14316  0.04591  Biso   1.000  S
  O1       1.0000 0.11310  0.19750  0.83440  Biso   1.000  O
  O2       1.0000 0.11310  0.80250  0.33440  Biso   1.000  O
  O3       1.0000 0.61310  0.69750  0.83440  Biso   1.000  O
  O4       1.0000 0.61310  0.30250  0.33440  Biso   1.000  O
  O5       1.0000 0.99140  0.33870  0.16130  Biso   1.000  O
  O6       1.0000 0.99140  0.66130  0.66130  Biso   1.000  O
  O7       1.0000 0.49140  0.83870  0.16130  Biso   1.000  O
  O8       1.0000 0.49140  0.16130  0.66130  Biso   1.000  O
  O9       1.0000 0.21990  0.19940  0.28050  Biso   1.000  O
  O10      1.0000 0.21990  0.80060  0.78050  Biso   1.000  O
  O11      1.0000 0.71990  0.69940  0.28050  Biso   1.000  O
  O12      1.0000 0.71990  0.30060  0.78050  Biso   1.000  O
  O13      1.0000 0.81150  0.32920  0.37960  Biso   1.000  O
  O14      1.0000 0.81150  0.67080  0.87960  Biso   1.000  O
  O15      1.0000 0.31150  0.82920  0.37960  Biso   1.000  O
  O16      1.0000 0.31150  0.17080  0.87960  Biso   1.000  O
  O17      1.0000 0.99900  0.31000  0.51640  Biso   1.000  O
  O18      1.0000 0.99900  0.69000  0.01640  Biso   1.000  O
  O19      1.0000 0.49900  0.81000  0.51640  Biso   1.000  O
  O20      1.0000 0.49900  0.19000  0.01640  Biso   1.000  O
  O21      1.0000 0.91080  0.32060  0.73060  Biso   1.000  O
  O22      1.0000 0.91080  0.67940  0.23060  Biso   1.000  O
  O23      1.0000 0.41080  0.82060  0.73060  Biso   1.000  O
  O24      1.0000 0.41080  0.17940  0.23060  Biso   1.000  O
  O25      1.0000 0.92220  0.46650  0.54700  Biso   1.000  O
  O26      1.0000 0.92220  0.53350  0.04700  Biso   1.000  O
  O27      1.0000 0.42220  0.96650  0.54700  Biso   1.000  O
  O28      1.0000 0.42220  0.03350  0.04700  Biso   1.000  O
  O29      1.0000 0.72360  0.54420  0.54850  Biso   1.000  O
  O30      1.0000 0.72360  0.45580  0.04850  Biso   1.000  O
  O31      1.0000 0.22360  0.04420  0.54850  Biso   1.000  O
  O32      1.0000 0.22360  0.95580  0.04850  Biso   1.000  O
  N1       1.0000 0.99810  0.14180  0.04710  Biso   1.000  N
  N2       1.0000 0.99810  0.85820  0.54710  Biso   1.000  N
  N3       1.0000 0.49810  0.64180  0.04710  Biso   1.000  N
  N4       1.0000 0.49810  0.35820  0.54710  Biso   1.000  N
  N5       1.0000 0.03030  0.04750  0.03760  Biso   1.000  N
  N6       1.0000 0.03030  0.95250  0.53760  Biso   1.000  N
  N7       1.0000 0.53030  0.54750  0.03760  Biso   1.000  N
  N8       1.0000 0.53030  0.45250  0.53760  Biso   1.000  N
  H1       1.0000 0.08920  0.03780  0.03150  Biso   1.000  H
  H2       1.0000 0.08920  0.96220  0.53150  Biso   1.000  H
  H3       1.0000 0.58920  0.53780  0.03150  Biso   1.000  H
  H4       1.0000 0.58920  0.46220  0.53150  Biso   1.000  H
  N9       1.0000 0.64890  0.88890  0.02640  Biso   1.000  N
  N10      1.0000 0.64890  0.11110  0.52640  Biso   1.000  N
  N11      1.0000 0.14890  0.38890  0.02640  Biso   1.000  N
  N12      1.0000 0.14890  0.61110  0.52640  Biso   1.000  N
  N13      1.0000 0.61770  0.98500  0.02210  Biso   1.000  N
  N14      1.0000 0.61770  0.01500  0.52210  Biso   1.000  N
  N15      1.0000 0.11770  0.48500  0.02210  Biso   1.000  N
  N16      1.0000 0.11770  0.51500  0.52210  Biso   1.000  N
  H5       1.0000 0.55970  0.99640  0.01520  Biso   1.000  H
  H6       1.0000 0.55970  0.00360  0.51520  Biso   1.000  H
  H7       1.0000 0.05970  0.49640  0.01520  Biso   1.000  H
  H8       1.0000 0.05970  0.50360  0.51520  Biso   1.000  H
  C1       1.0000 0.90400  0.13280  0.04940  Biso   1.000  C
  C2       1.0000 0.90400  0.86720  0.54940  Biso   1.000  C
  C3       1.0000 0.40400  0.63280  0.04940  Biso   1.000  C
  C4       1.0000 0.40400  0.36720  0.54940  Biso   1.000  C
  H9       1.0000 0.86180  0.18820  0.05740  Biso   1.000  H
  H10      1.0000 0.86180  0.81180  0.55740  Biso   1.000  H
  H11      1.0000 0.36180  0.68820  0.05740  Biso   1.000  H
  H12      1.0000 0.36180  0.31180  0.55740  Biso   1.000  H
  C5       1.0000 0.87520  0.03080  0.03940  Biso   1.000  C
  C6       1.0000 0.87520  0.96920  0.53940  Biso   1.000  C
  C7       1.0000 0.37520  0.53080  0.03940  Biso   1.000  C
  C8       1.0000 0.37520  0.46920  0.53940  Biso   1.000  C
  C9       1.0000 0.95920  0.98010  0.03270  Biso   1.000  C
  C10      1.0000 0.95920  0.01990  0.53270  Biso   1.000  C
  C11      1.0000 0.45920  0.48010  0.03270  Biso   1.000  C
  C12      1.0000 0.45920  0.51990  0.53270  Biso   1.000  C
  H13      1.0000 0.96520  0.90840  0.02570  Biso   1.000  H
  H14      1.0000 0.96520  0.09160  0.52570  Biso   1.000  H
  H15      1.0000 0.46520  0.40840  0.02570  Biso   1.000  H
  H16      1.0000 0.46520  0.59160  0.52570  Biso   1.000  H
  C13      1.0000 0.74630  0.89320  0.03380  Biso   1.000  C
  C14      1.0000 0.74630  0.10680  0.53380  Biso   1.000  C
  C15      1.0000 0.24630  0.39320  0.03380  Biso   1.000  C
  C16      1.0000 0.24630  0.60680  0.53380  Biso   1.000  C
  H17      1.0000 0.78970  0.83600  0.04030  Biso   1.000  H
  H18      1.0000 0.78970  0.16400  0.54030  Biso   1.000  H
  H19      1.0000 0.28970  0.33600  0.04030  Biso   1.000  H
  H20      1.0000 0.28970  0.66400  0.54030  Biso   1.000  H
  C17      1.0000 0.77620  0.99370  0.03370  Biso   1.000  C
  C18      1.0000 0.77620  0.00630  0.53370  Biso   1.000  C
  C19      1.0000 0.27620  0.49370  0.03370  Biso   1.000  C
  C20      1.0000 0.27620  0.50630  0.53370  Biso   1.000  C
  C21      1.0000 0.69240  0.04910  0.02700  Biso   1.000  C
  C22      1.0000 0.69240  0.95090  0.52700  Biso   1.000  C
  C23      1.0000 0.19240  0.54910  0.02700  Biso   1.000  C
  C24      1.0000 0.19240  0.45090  0.52700  Biso   1.000  C
  H21      1.0000 0.68860  0.12120  0.02820  Biso   1.000  H
  H22      1.0000 0.68860  0.87880  0.52820  Biso   1.000  H
  H23      1.0000 0.18860  0.62120  0.02820  Biso   1.000  H
  H24      1.0000 0.18860  0.37880  0.52820  Biso   1.000  H
  H25      1.0000 0.99190  0.32420  0.29430  Biso   1.000  H
  H26      1.0000 0.99190  0.67580  0.79430  Biso   1.000  H
  H27      1.0000 0.49190  0.82420  0.29430  Biso   1.000  H
  H28      1.0000 0.49190  0.17580  0.79430  Biso   1.000  H
  H29      1.0000 0.21440  0.15690  0.36360  Biso   1.000  H
  H30      1.0000 0.21440  0.84310  0.86360  Biso   1.000  H
  H31      1.0000 0.71440  0.65690  0.36360  Biso   1.000  H
  H32      1.0000 0.71440  0.34310  0.86360  Biso   1.000  H
  H33      1.0000 0.08570  0.22600  0.74700  Biso   1.000  H
  H34      1.0000 0.08570  0.77400  0.24700  Biso   1.000  H
  H35      1.0000 0.58570  0.72600  0.74700  Biso   1.000  H
  H36      1.0000 0.58570  0.27400  0.24700  Biso   1.000  H
  H37      1.0000 0.27200  0.18780  0.28860  Biso   1.000  H
  H38      1.0000 0.27200  0.81220  0.78860  Biso   1.000  H
  H39      1.0000 0.77200  0.68780  0.28860  Biso   1.000  H
  H40      1.0000 0.77200  0.31220  0.78860  Biso   1.000  H
  H41      1.0000 0.18270  0.19290  0.87530  Biso   1.000  H
  H42      1.0000 0.18270  0.80710  0.37530  Biso   1.000  H
  H43      1.0000 0.68270  0.69290  0.87530  Biso   1.000  H
  H44      1.0000 0.68270  0.30710  0.37530  Biso   1.000  H
  H45      1.0000 0.76700  0.51200  0.53740  Biso   1.000  H
  H46      1.0000 0.76700  0.48800  0.03740  Biso   1.000  H
  H47      1.0000 0.26700  0.01200  0.53740  Biso   1.000  H
  H48      1.0000 0.26700  0.98800  0.03740  Biso   1.000  H
  H49      1.0000 0.96990  0.39160  0.11300  Biso   1.000  H
  H50      1.0000 0.96990  0.60840  0.61300  Biso   1.000  H
  H51      1.0000 0.46990  0.89160  0.11300  Biso   1.000  H
  H52      1.0000 0.46990  0.10840  0.61300  Biso   1.000  H
  H53      1.0000 0.74050  0.57760  0.64300  Biso   1.000  H
  H54      1.0000 0.74050  0.42240  0.14300  Biso   1.000  H
  H55      1.0000 0.24050  0.07760  0.64300  Biso   1.000  H
  H56      1.0000 0.24050  0.92240  0.14300  Biso   1.000  H
