data_image0
_cell_length_a       7.735
_cell_length_b       9.733
_cell_length_c       11.46
_cell_angle_alpha    71.32
_cell_angle_beta     81.38
_cell_angle_gamma    67.54

_symmetry_space_group_name_H-M    "P 1"
_symmetry_int_tables_number       1

loop_
  _symmetry_equiv_pos_as_xyz
  'x, y, z'

loop_
  _atom_site_label
  _atom_site_occupancy
  _atom_site_fract_x
  _atom_site_fract_y
  _atom_site_fract_z
  _atom_site_thermal_displace_type
  _atom_site_B_iso_or_equiv
  _atom_site_type_symbol
  Cu1      1.0000 0.02988  0.21389  0.27452  Biso   1.000  Cu
  Cu2      1.0000 0.97012  0.78611  0.72548  Biso   1.000  Cu
  O1       1.0000 0.27190  0.23970  0.14640  Biso   1.000  O
  O2       1.0000 0.72810  0.76030  0.85360  Biso   1.000  O
  O3       1.0000 0.18900  0.12590  0.42230  Biso   1.000  O
  O4       1.0000 0.81100  0.87410  0.57770  Biso   1.000  O
  N1       1.0000 0.97590  0.42080  0.29810  Biso   1.000  N
  N2       1.0000 0.02410  0.57920  0.70190  Biso   1.000  N
  N3       1.0000 0.83710  0.48560  0.37170  Biso   1.000  N
  N4       1.0000 0.16290  0.51440  0.62830  Biso   1.000  N
  H1       1.0000 0.74680  0.44760  0.40800  Biso   1.000  H
  H2       1.0000 0.25320  0.55240  0.59200  Biso   1.000  H
  N5       1.0000 0.08610  0.99520  0.27550  Biso   1.000  N
  N6       1.0000 0.91390  0.00480  0.72450  Biso   1.000  N
  N7       1.0000 0.26070  0.89290  0.26540  Biso   1.000  N
  N8       1.0000 0.73930  0.10710  0.73460  Biso   1.000  N
  H3       1.0000 0.36460  0.91740  0.25020  Biso   1.000  H
  H4       1.0000 0.63540  0.08260  0.74980  Biso   1.000  H
  N9       1.0000 0.84000  0.30000  0.14380  Biso   1.000  N
  N10      1.0000 0.16000  0.70000  0.85620  Biso   1.000  N
  N11      1.0000 0.81630  0.21490  0.08070  Biso   1.000  N
  N12      1.0000 0.18370  0.78510  0.91930  Biso   1.000  N
  H5       1.0000 0.89280  0.11700  0.08450  Biso   1.000  H
  H6       1.0000 0.10720  0.88300  0.91550  Biso   1.000  H
  C1       1.0000 0.85180  0.61300  0.38490  Biso   1.000  C
  C2       1.0000 0.14820  0.38700  0.61510  Biso   1.000  C
  H7       1.0000 0.76820  0.67800  0.43260  Biso   1.000  H
  H8       1.0000 0.23180  0.32200  0.56740  Biso   1.000  H
  C3       1.0000 0.00470  0.63380  0.31640  Biso   1.000  C
  C4       1.0000 0.99530  0.36620  0.68360  Biso   1.000  C
  C5       1.0000 0.07820  0.51170  0.26360  Biso   1.000  C
  C6       1.0000 0.92180  0.48830  0.73640  Biso   1.000  C
  H9       1.0000 0.18640  0.49570  0.20900  Biso   1.000  H
  H10      1.0000 0.81360  0.50430  0.79100  Biso   1.000  H
  C7       1.0000 0.97500  0.91200  0.29830  Biso   1.000  C
  C8       1.0000 0.02500  0.08800  0.70170  Biso   1.000  C
  H11      1.0000 0.84170  0.95360  0.31080  Biso   1.000  H
  H12      1.0000 0.15830  0.04640  0.68920  Biso   1.000  H
  C9       1.0000 0.07640  0.75890  0.30030  Biso   1.000  C
  C10      1.0000 0.92360  0.24110  0.69970  Biso   1.000  C
  C11      1.0000 0.25920  0.75130  0.28000  Biso   1.000  C
  C12      1.0000 0.74080  0.24870  0.72000  Biso   1.000  C
  H13      1.0000 0.36730  0.66100  0.27720  Biso   1.000  H
  H14      1.0000 0.63270  0.33900  0.72280  Biso   1.000  H
  C13      1.0000 0.66500  0.29210  0.01130  Biso   1.000  C
  C14      1.0000 0.33500  0.70790  0.98870  Biso   1.000  C
  H15      1.0000 0.62170  0.25340  0.95860  Biso   1.000  H
  H16      1.0000 0.37830  0.74660  0.04140  Biso   1.000  H
  C15      1.0000 0.58430  0.43780  0.02850  Biso   1.000  C
  C16      1.0000 0.41570  0.56220  0.97150  Biso   1.000  C
  C17      1.0000 0.69970  0.43590  0.11270  Biso   1.000  C
  C18      1.0000 0.30030  0.56410  0.88730  Biso   1.000  C
  H17      1.0000 0.68210  0.52180  0.14290  Biso   1.000  H
  H18      1.0000 0.31790  0.47820  0.85710  Biso   1.000  H
  N13      1.0000 0.31880  0.10360  0.89290  Biso   1.000  N
  N14      1.0000 0.68120  0.89640  0.10710  Biso   1.000  N
  O5       1.0000 0.36370  0.20740  0.90630  Biso   1.000  O
  O6       1.0000 0.63630  0.79260  0.09370  Biso   1.000  O
  O7       1.0000 0.19380  0.06450  0.95830  Biso   1.000  O
  O8       1.0000 0.80620  0.93550  0.04170  Biso   1.000  O
  O9       1.0000 0.40180  0.03940  0.81060  Biso   1.000  O
  O10      1.0000 0.59820  0.96060  0.18940  Biso   1.000  O
  N15      1.0000 0.59570  0.24380  0.41810  Biso   1.000  N
  N16      1.0000 0.40430  0.75620  0.58190  Biso   1.000  N
  O11      1.0000 0.51170  0.38120  0.40490  Biso   1.000  O
  O12      1.0000 0.48830  0.61880  0.59510  Biso   1.000  O
  O13      1.0000 0.52410  0.15580  0.40830  Biso   1.000  O
  O14      1.0000 0.47590  0.84420  0.59170  Biso   1.000  O
  O15      1.0000 0.76770  0.18560  0.43850  Biso   1.000  O
  O16      1.0000 0.23230  0.81440  0.56150  Biso   1.000  O
