data_image0
_cell_length_a       13.163
_cell_length_b       16.305
_cell_length_c       14.099
_cell_angle_alpha    90
_cell_angle_beta     90.419
_cell_angle_gamma    90

_symmetry_space_group_name_H-M    "P 1"
_symmetry_int_tables_number       1

loop_
  _symmetry_equiv_pos_as_xyz
  'x, y, z'

loop_
  _atom_site_label
  _atom_site_occupancy
  _atom_site_fract_x
  _atom_site_fract_y
  _atom_site_fract_z
  _atom_site_thermal_displace_type
  _atom_site_B_iso_or_equiv
  _atom_site_type_symbol
  Cu1      1.0000 0.94894  0.70049  0.88723  Biso   1.000  Cu
  Cu2      1.0000 0.44894  0.79951  0.38723  Biso   1.000  Cu
  Cu3      1.0000 0.05106  0.29951  0.11277  Biso   1.000  Cu
  Cu4      1.0000 0.55106  0.20049  0.61277  Biso   1.000  Cu
  F1       1.0000 0.85104  0.81975  0.48620  Biso   1.000  F
  F2       1.0000 0.35104  0.68025  0.98620  Biso   1.000  F
  F3       1.0000 0.14896  0.18025  0.51380  Biso   1.000  F
  F4       1.0000 0.64896  0.31975  0.01380  Biso   1.000  F
  F5       1.0000 0.95291  0.92156  0.49668  Biso   1.000  F
  F6       1.0000 0.45291  0.57844  0.99668  Biso   1.000  F
  F7       1.0000 0.04709  0.07844  0.50332  Biso   1.000  F
  F8       1.0000 0.54709  0.42156  0.00332  Biso   1.000  F
  F9       1.0000 0.89793  0.86300  0.62110  Biso   1.000  F
  F10      1.0000 0.39793  0.63700  0.12110  Biso   1.000  F
  F11      1.0000 0.10207  0.13700  0.37890  Biso   1.000  F
  F12      1.0000 0.60207  0.36300  0.87890  Biso   1.000  F
  F13      1.0000 0.91050  0.32020  0.58530  Biso   1.000  F
  F14      1.0000 0.41050  0.17980  0.08530  Biso   1.000  F
  F15      1.0000 0.08950  0.67980  0.41470  Biso   1.000  F
  F16      1.0000 0.58950  0.82020  0.91470  Biso   1.000  F
  F17      1.0000 0.04490  0.34650  0.51780  Biso   1.000  F
  F18      1.0000 0.54490  0.15350  0.01780  Biso   1.000  F
  F19      1.0000 0.95510  0.65350  0.48220  Biso   1.000  F
  F20      1.0000 0.45510  0.84650  0.98220  Biso   1.000  F
  F21      1.0000 0.91840  0.42400  0.49860  Biso   1.000  F
  F22      1.0000 0.41840  0.07600  0.99860  Biso   1.000  F
  F23      1.0000 0.08160  0.57600  0.50140  Biso   1.000  F
  F24      1.0000 0.58160  0.92400  0.00140  Biso   1.000  F
  F25      1.0000 0.03460  0.38440  0.49350  Biso   1.000  F
  F26      1.0000 0.53460  0.11560  0.99350  Biso   1.000  F
  F27      1.0000 0.96540  0.61560  0.50650  Biso   1.000  F
  F28      1.0000 0.46540  0.88440  0.00650  Biso   1.000  F
  F29      1.0000 0.88310  0.39700  0.52360  Biso   1.000  F
  F30      1.0000 0.38310  0.10300  0.02360  Biso   1.000  F
  F31      1.0000 0.11690  0.60300  0.47640  Biso   1.000  F
  F32      1.0000 0.61690  0.89700  0.97640  Biso   1.000  F
  F33      1.0000 0.96000  0.30270  0.58330  Biso   1.000  F
  F34      1.0000 0.46000  0.19730  0.08330  Biso   1.000  F
  F35      1.0000 0.04000  0.69730  0.41670  Biso   1.000  F
  F36      1.0000 0.54000  0.80270  0.91670  Biso   1.000  F
  O1       1.0000 0.94016  0.55733  0.91059  Biso   1.000  O
  O2       1.0000 0.44016  0.94267  0.41059  Biso   1.000  O
  O3       1.0000 0.05984  0.44267  0.08941  Biso   1.000  O
  O4       1.0000 0.55984  0.05733  0.58941  Biso   1.000  O
  O5       1.0000 0.94514  0.84889  0.87287  Biso   1.000  O
  O6       1.0000 0.44514  0.65111  0.37287  Biso   1.000  O
  O7       1.0000 0.05486  0.15111  0.12713  Biso   1.000  O
  O8       1.0000 0.55486  0.34889  0.62713  Biso   1.000  O
  O9       1.0000 0.09887  0.45553  0.86300  Biso   1.000  O
  O10      1.0000 0.59887  0.04447  0.36300  Biso   1.000  O
  O11      1.0000 0.90113  0.54447  0.13700  Biso   1.000  O
  O12      1.0000 0.40113  0.95553  0.63700  Biso   1.000  O
  O13      1.0000 0.78431  0.93868  0.80282  Biso   1.000  O
  O14      1.0000 0.28431  0.56132  0.30282  Biso   1.000  O
  O15      1.0000 0.21569  0.06132  0.19718  Biso   1.000  O
  O16      1.0000 0.71569  0.43868  0.69718  Biso   1.000  O
  O17      1.0000 0.72611  0.94520  0.46464  Biso   1.000  O
  O18      1.0000 0.22611  0.55480  0.96464  Biso   1.000  O
  O19      1.0000 0.27389  0.05480  0.53536  Biso   1.000  O
  O20      1.0000 0.77389  0.44520  0.03536  Biso   1.000  O
  O21      1.0000 0.77662  0.99465  0.60349  Biso   1.000  O
  O22      1.0000 0.27662  0.50535  0.10349  Biso   1.000  O
  O23      1.0000 0.22338  0.00535  0.39651  Biso   1.000  O
  O24      1.0000 0.72338  0.49465  0.89651  Biso   1.000  O
  O25      1.0000 0.08924  0.42847  0.67174  Biso   1.000  O
  O26      1.0000 0.58924  0.07153  0.17174  Biso   1.000  O
  O27      1.0000 0.91076  0.57153  0.32826  Biso   1.000  O
  O28      1.0000 0.41076  0.92847  0.82826  Biso   1.000  O
  O29      1.0000 0.92758  0.46569  0.68732  Biso   1.000  O
  O30      1.0000 0.42758  0.03431  0.18732  Biso   1.000  O
  O31      1.0000 0.07242  0.53431  0.31268  Biso   1.000  O
  O32      1.0000 0.57242  0.96569  0.81268  Biso   1.000  O
  O33      1.0000 0.24050  0.93408  0.93159  Biso   1.000  O
  O34      1.0000 0.74050  0.56592  0.43159  Biso   1.000  O
  O35      1.0000 0.75950  0.06592  0.06841  Biso   1.000  O
  O36      1.0000 0.25950  0.43408  0.56841  Biso   1.000  O
  N1       1.0000 0.04254  0.71174  0.99876  Biso   1.000  N
  N2       1.0000 0.54254  0.78826  0.49876  Biso   1.000  N
  N3       1.0000 0.95746  0.28826  0.00124  Biso   1.000  N
  N4       1.0000 0.45746  0.21174  0.50124  Biso   1.000  N
  N5       1.0000 0.03064  0.66420  0.07549  Biso   1.000  N
  N6       1.0000 0.53064  0.83580  0.57549  Biso   1.000  N
  N7       1.0000 0.96936  0.33580  0.92451  Biso   1.000  N
  N8       1.0000 0.46936  0.16420  0.42451  Biso   1.000  N
  H1       1.0000 0.98675  0.62532  0.07960  Biso   1.000  H
  H2       1.0000 0.48675  0.87468  0.57960  Biso   1.000  H
  H3       1.0000 0.01325  0.37468  0.92040  Biso   1.000  H
  H4       1.0000 0.51325  0.12532  0.42040  Biso   1.000  H
  N9       1.0000 0.35292  0.81369  0.27842  Biso   1.000  N
  N10      1.0000 0.85292  0.68631  0.77842  Biso   1.000  N
  N11      1.0000 0.64708  0.18631  0.72158  Biso   1.000  N
  N12      1.0000 0.14708  0.31369  0.22158  Biso   1.000  N
  N13      1.0000 0.35451  0.87469  0.21404  Biso   1.000  N
  N14      1.0000 0.85451  0.62531  0.71404  Biso   1.000  N
  N15      1.0000 0.64549  0.12531  0.78596  Biso   1.000  N
  N16      1.0000 0.14549  0.37469  0.28596  Biso   1.000  N
  H5       1.0000 0.39524  0.91589  0.21646  Biso   1.000  H
  H6       1.0000 0.89524  0.58411  0.71646  Biso   1.000  H
  H7       1.0000 0.60476  0.08411  0.78354  Biso   1.000  H
  H8       1.0000 0.10476  0.41589  0.28354  Biso   1.000  H
  N17      1.0000 0.82839  0.70932  0.97571  Biso   1.000  N
  N18      1.0000 0.32839  0.79068  0.47571  Biso   1.000  N
  N19      1.0000 0.17161  0.29068  0.02429  Biso   1.000  N
  N20      1.0000 0.67161  0.20932  0.52429  Biso   1.000  N
  N21      1.0000 0.74834  0.65811  0.97277  Biso   1.000  N
  N22      1.0000 0.24834  0.84189  0.47277  Biso   1.000  N
  N23      1.0000 0.25166  0.34189  0.02723  Biso   1.000  N
  N24      1.0000 0.75166  0.15811  0.52723  Biso   1.000  N
  H9       1.0000 0.73965  0.62067  0.93053  Biso   1.000  H
  H10      1.0000 0.23965  0.87933  0.43053  Biso   1.000  H
  H11      1.0000 0.26035  0.37933  0.06947  Biso   1.000  H
  H12      1.0000 0.76035  0.12067  0.56947  Biso   1.000  H
  N25      1.0000 0.56955  0.80321  0.29920  Biso   1.000  N
  N26      1.0000 0.06955  0.69679  0.79920  Biso   1.000  N
  N27      1.0000 0.43045  0.19679  0.70080  Biso   1.000  N
  N28      1.0000 0.93045  0.30321  0.20080  Biso   1.000  N
  N29      1.0000 0.66059  0.83757  0.31795  Biso   1.000  N
  N30      1.0000 0.16059  0.66243  0.81795  Biso   1.000  N
  N31      1.0000 0.33941  0.16243  0.68205  Biso   1.000  N
  N32      1.0000 0.83941  0.33757  0.18205  Biso   1.000  N
  H13      1.0000 0.67405  0.86619  0.36772  Biso   1.000  H
  H14      1.0000 0.17405  0.63381  0.86772  Biso   1.000  H
  H15      1.0000 0.32595  0.13381  0.63228  Biso   1.000  H
  H16      1.0000 0.82595  0.36619  0.13228  Biso   1.000  H
  C1       1.0000 0.09550  0.68485  0.14474  Biso   1.000  C
  C2       1.0000 0.59550  0.81515  0.64474  Biso   1.000  C
  C3       1.0000 0.90450  0.31515  0.85526  Biso   1.000  C
  C4       1.0000 0.40450  0.18485  0.35526  Biso   1.000  C
  H17      1.0000 0.10076  0.66001  0.20395  Biso   1.000  H
  H18      1.0000 0.60076  0.83999  0.70395  Biso   1.000  H
  H19      1.0000 0.89924  0.33999  0.79605  Biso   1.000  H
  H20      1.0000 0.39924  0.16001  0.29605  Biso   1.000  H
  C5       1.0000 0.15352  0.74982  0.11262  Biso   1.000  C
  C6       1.0000 0.65352  0.75018  0.61262  Biso   1.000  C
  C7       1.0000 0.84648  0.25018  0.88738  Biso   1.000  C
  C8       1.0000 0.34648  0.24982  0.38738  Biso   1.000  C
  C9       1.0000 0.11750  0.76385  0.02040  Biso   1.000  C
  C10      1.0000 0.61750  0.73615  0.52040  Biso   1.000  C
  C11      1.0000 0.88250  0.23615  0.97960  Biso   1.000  C
  C12      1.0000 0.38250  0.26385  0.47960  Biso   1.000  C
  H21      1.0000 0.14236  0.80393  0.97976  Biso   1.000  H
  H22      1.0000 0.64236  0.69607  0.47976  Biso   1.000  H
  H23      1.0000 0.85764  0.19607  0.02024  Biso   1.000  H
  H24      1.0000 0.35764  0.30393  0.52024  Biso   1.000  H
  C13      1.0000 0.28010  0.76286  0.24945  Biso   1.000  C
  C14      1.0000 0.78010  0.73714  0.74945  Biso   1.000  C
  C15      1.0000 0.71990  0.23714  0.75055  Biso   1.000  C
  C16      1.0000 0.21990  0.26286  0.25055  Biso   1.000  C
  H25      1.0000 0.26179  0.71494  0.28076  Biso   1.000  H
  H26      1.0000 0.76179  0.78506  0.78076  Biso   1.000  H
  H27      1.0000 0.73821  0.28506  0.71924  Biso   1.000  H
  H28      1.0000 0.23821  0.21494  0.21924  Biso   1.000  H
  C17      1.0000 0.23471  0.79110  0.16556  Biso   1.000  C
  C18      1.0000 0.73471  0.70890  0.66556  Biso   1.000  C
  C19      1.0000 0.76529  0.20890  0.83444  Biso   1.000  C
  C20      1.0000 0.26529  0.29110  0.33444  Biso   1.000  C
  C21      1.0000 0.28463  0.86317  0.14575  Biso   1.000  C
  C22      1.0000 0.78463  0.63683  0.64575  Biso   1.000  C
  C23      1.0000 0.71537  0.13683  0.85425  Biso   1.000  C
  C24      1.0000 0.21537  0.36317  0.35425  Biso   1.000  C
  H29      1.0000 0.27215  0.89759  0.09437  Biso   1.000  H
  H30      1.0000 0.77215  0.60241  0.59437  Biso   1.000  H
  H31      1.0000 0.72785  0.10241  0.90563  Biso   1.000  H
  H32      1.0000 0.22785  0.39759  0.40563  Biso   1.000  H
  C25      1.0000 0.68384  0.67282  0.04374  Biso   1.000  C
  C26      1.0000 0.18384  0.82718  0.54374  Biso   1.000  C
  C27      1.0000 0.31616  0.32718  0.95626  Biso   1.000  C
  C28      1.0000 0.81616  0.17282  0.45626  Biso   1.000  C
  H33      1.0000 0.62400  0.64443  0.05564  Biso   1.000  H
  H34      1.0000 0.12400  0.85557  0.55564  Biso   1.000  H
  H35      1.0000 0.37600  0.35557  0.94436  Biso   1.000  H
  H36      1.0000 0.87600  0.14443  0.44436  Biso   1.000  H
  C29      1.0000 0.72205  0.73759  0.09623  Biso   1.000  C
  C30      1.0000 0.22205  0.76241  0.59623  Biso   1.000  C
  C31      1.0000 0.27795  0.26241  0.90377  Biso   1.000  C
  C32      1.0000 0.77795  0.23759  0.40377  Biso   1.000  C
  C33      1.0000 0.81257  0.75816  0.04962  Biso   1.000  C
  C34      1.0000 0.31257  0.74184  0.54962  Biso   1.000  C
  C35      1.0000 0.18743  0.24184  0.95038  Biso   1.000  C
  C36      1.0000 0.68743  0.25816  0.45038  Biso   1.000  C
  H37      1.0000 0.85580  0.80044  0.06814  Biso   1.000  H
  H38      1.0000 0.35580  0.69956  0.56814  Biso   1.000  H
  H39      1.0000 0.14420  0.19956  0.93186  Biso   1.000  H
  H40      1.0000 0.64420  0.30044  0.43186  Biso   1.000  H
  C37      1.0000 0.58052  0.76489  0.21656  Biso   1.000  C
  C38      1.0000 0.08052  0.73511  0.71656  Biso   1.000  C
  C39      1.0000 0.41948  0.23511  0.78344  Biso   1.000  C
  C40      1.0000 0.91948  0.26489  0.28344  Biso   1.000  C
  H41      1.0000 0.52912  0.73575  0.18597  Biso   1.000  H
  H42      1.0000 0.02912  0.76425  0.68597  Biso   1.000  H
  H43      1.0000 0.47088  0.26425  0.81403  Biso   1.000  H
  H44      1.0000 0.97088  0.23575  0.31403  Biso   1.000  H
  C41      1.0000 0.67877  0.77397  0.18154  Biso   1.000  C
  C42      1.0000 0.17877  0.72603  0.68154  Biso   1.000  C
  C43      1.0000 0.32123  0.22603  0.81846  Biso   1.000  C
  C44      1.0000 0.82123  0.27397  0.31846  Biso   1.000  C
  C45      1.0000 0.72749  0.82147  0.24912  Biso   1.000  C
  C46      1.0000 0.22749  0.67853  0.74912  Biso   1.000  C
  C47      1.0000 0.27251  0.17853  0.75088  Biso   1.000  C
  C48      1.0000 0.77251  0.32147  0.25088  Biso   1.000  C
  H45      1.0000 0.79461  0.83916  0.24718  Biso   1.000  H
  H46      1.0000 0.29461  0.66084  0.74718  Biso   1.000  H
  H47      1.0000 0.20539  0.16084  0.75282  Biso   1.000  H
  H48      1.0000 0.70539  0.33916  0.25282  Biso   1.000  H
  C49      1.0000 0.78210  0.94792  0.53491  Biso   1.000  C
  C50      1.0000 0.28210  0.55208  0.03491  Biso   1.000  C
  C51      1.0000 0.21790  0.05208  0.46509  Biso   1.000  C
  C52      1.0000 0.71790  0.44792  0.96509  Biso   1.000  C
  C53      1.0000 0.87120  0.88698  0.53460  Biso   1.000  C
  C54      1.0000 0.37120  0.61302  0.03460  Biso   1.000  C
  C55      1.0000 0.12880  0.11302  0.46540  Biso   1.000  C
  C56      1.0000 0.62880  0.38698  0.96540  Biso   1.000  C
  C57      1.0000 0.99890  0.43078  0.64787  Biso   1.000  C
  C58      1.0000 0.49890  0.06922  0.14787  Biso   1.000  C
  C59      1.0000 0.00110  0.56922  0.35213  Biso   1.000  C
  C60      1.0000 0.50110  0.93078  0.85213  Biso   1.000  C
  C61      1.0000 0.96900  0.37990  0.56000  Biso   1.000  C
  C62      1.0000 0.46900  0.12010  0.06000  Biso   1.000  C
  C63      1.0000 0.03100  0.62010  0.44000  Biso   1.000  C
  C64      1.0000 0.53100  0.87990  0.94000  Biso   1.000  C
  C65      1.0000 0.17010  0.97130  0.87483  Biso   1.000  C
  C66      1.0000 0.67010  0.52870  0.37483  Biso   1.000  C
  C67      1.0000 0.82990  0.02870  0.12517  Biso   1.000  C
  C68      1.0000 0.32990  0.47130  0.62517  Biso   1.000  C
  C69      1.0000 0.16450  0.95634  0.77830  Biso   1.000  C
  C70      1.0000 0.66450  0.54366  0.27830  Biso   1.000  C
  C71      1.0000 0.83550  0.04366  0.22170  Biso   1.000  C
  C72      1.0000 0.33550  0.45634  0.72170  Biso   1.000  C
  H49      1.0000 0.21040  0.92081  0.75000  Biso   1.000  H
  H50      1.0000 0.71040  0.57919  0.25000  Biso   1.000  H
  H51      1.0000 0.78960  0.07919  0.25000  Biso   1.000  H
  H52      1.0000 0.28960  0.42081  0.75000  Biso   1.000  H
  C73      1.0000 0.09040  0.99430  0.72440  Biso   1.000  C
  C74      1.0000 0.59040  0.50570  0.22440  Biso   1.000  C
  C75      1.0000 0.90960  0.00570  0.27560  Biso   1.000  C
  C76      1.0000 0.40960  0.49430  0.77560  Biso   1.000  C
  H53      1.0000 0.08760  0.98490  0.65940  Biso   1.000  H
  H54      1.0000 0.58760  0.51510  0.15940  Biso   1.000  H
  H55      1.0000 0.91240  0.01510  0.34060  Biso   1.000  H
  H56      1.0000 0.41240  0.48490  0.84060  Biso   1.000  H
  C77      1.0000 0.02060  0.04570  0.76530  Biso   1.000  C
  C78      1.0000 0.52060  0.45430  0.26530  Biso   1.000  C
  C79      1.0000 0.97940  0.95430  0.23470  Biso   1.000  C
  C80      1.0000 0.47940  0.54570  0.73470  Biso   1.000  C
  H57      1.0000 0.97070  0.07090  0.72840  Biso   1.000  H
  H58      1.0000 0.47070  0.42910  0.22840  Biso   1.000  H
  H59      1.0000 0.02930  0.92910  0.27160  Biso   1.000  H
  H60      1.0000 0.52930  0.57090  0.77160  Biso   1.000  H
  C81      1.0000 0.02560  0.05950  0.86210  Biso   1.000  C
  C82      1.0000 0.52560  0.44050  0.36210  Biso   1.000  C
  C83      1.0000 0.97440  0.94050  0.13790  Biso   1.000  C
  C84      1.0000 0.47440  0.55950  0.63790  Biso   1.000  C
  H61      1.0000 0.97820  0.09360  0.89060  Biso   1.000  H
  H62      1.0000 0.47820  0.40640  0.39060  Biso   1.000  H
  H63      1.0000 0.02180  0.90640  0.10940  Biso   1.000  H
  H64      1.0000 0.52180  0.59360  0.60940  Biso   1.000  H
  C85      1.0000 0.10050  0.02310  0.91660  Biso   1.000  C
  C86      1.0000 0.60050  0.47690  0.41660  Biso   1.000  C
  C87      1.0000 0.89950  0.97690  0.08340  Biso   1.000  C
  C88      1.0000 0.39950  0.52310  0.58340  Biso   1.000  C
  H65      1.0000 0.10410  0.03340  0.98140  Biso   1.000  H
  H66      1.0000 0.60410  0.46660  0.48140  Biso   1.000  H
  H67      1.0000 0.89590  0.96660  0.01860  Biso   1.000  H
  H68      1.0000 0.39590  0.53340  0.51860  Biso   1.000  H
  H69      1.0000 0.90080  0.87730  0.85930  Biso   1.000  H
  H70      1.0000 0.40080  0.62270  0.35930  Biso   1.000  H
  H71      1.0000 0.09920  0.12270  0.14070  Biso   1.000  H
  H72      1.0000 0.59920  0.37730  0.64070  Biso   1.000  H
  H73      1.0000 0.98560  0.87390  0.86040  Biso   1.000  H
  H74      1.0000 0.48560  0.62610  0.36040  Biso   1.000  H
  H75      1.0000 0.01440  0.12610  0.13960  Biso   1.000  H
  H76      1.0000 0.51440  0.37390  0.63960  Biso   1.000  H
  H77      1.0000 0.89710  0.53320  0.91240  Biso   1.000  H
  H78      1.0000 0.39710  0.96680  0.41240  Biso   1.000  H
  H79      1.0000 0.10290  0.46680  0.08760  Biso   1.000  H
  H80      1.0000 0.60290  0.03320  0.58760  Biso   1.000  H
  H81      1.0000 0.78960  0.95370  0.75240  Biso   1.000  H
  H82      1.0000 0.28960  0.54630  0.25240  Biso   1.000  H
  H83      1.0000 0.21040  0.04630  0.24760  Biso   1.000  H
  H84      1.0000 0.71040  0.45370  0.74760  Biso   1.000  H
  H85      1.0000 0.98460  0.52590  0.89720  Biso   1.000  H
  H86      1.0000 0.48460  0.97410  0.39720  Biso   1.000  H
  H87      1.0000 0.01540  0.47410  0.10280  Biso   1.000  H
  H88      1.0000 0.51540  0.02590  0.60280  Biso   1.000  H
  H89      1.0000 0.72080  0.94660  0.81640  Biso   1.000  H
  H90      1.0000 0.22080  0.55340  0.31640  Biso   1.000  H
  H91      1.0000 0.27920  0.05340  0.18360  Biso   1.000  H
  H92      1.0000 0.77920  0.44660  0.68360  Biso   1.000  H
  H93      1.0000 0.29160  0.92270  0.90470  Biso   1.000  H
  H94      1.0000 0.79160  0.57730  0.40470  Biso   1.000  H
  H95      1.0000 0.70840  0.07730  0.09530  Biso   1.000  H
  H96      1.0000 0.20840  0.42270  0.59530  Biso   1.000  H
  H97      1.0000 0.10630  0.45490  0.80910  Biso   1.000  H
  H98      1.0000 0.60630  0.04510  0.30910  Biso   1.000  H
  H99      1.0000 0.89370  0.54510  0.19090  Biso   1.000  H
  H100     1.0000 0.39370  0.95490  0.69090  Biso   1.000  H
  H101     1.0000 0.14350  0.47810  0.88630  Biso   1.000  H
  H102     1.0000 0.64350  0.02190  0.38630  Biso   1.000  H
  H103     1.0000 0.85650  0.52190  0.11370  Biso   1.000  H
  H104     1.0000 0.35650  0.97810  0.61370  Biso   1.000  H
