data_image0
_cell_length_a       7.146
_cell_length_b       14.261
_cell_length_c       15.355
_cell_angle_alpha    109
_cell_angle_beta     93.65
_cell_angle_gamma    99.49

_symmetry_space_group_name_H-M    "P 1"
_symmetry_int_tables_number       1

loop_
  _symmetry_equiv_pos_as_xyz
  'x, y, z'

loop_
  _atom_site_label
  _atom_site_occupancy
  _atom_site_fract_x
  _atom_site_fract_y
  _atom_site_fract_z
  _atom_site_thermal_displace_type
  _atom_site_B_iso_or_equiv
  _atom_site_type_symbol
  Cu1      1.0000 0.15610  0.31851  0.32281  Biso   1.000  Cu
  Cu2      1.0000 0.84390  0.68149  0.67719  Biso   1.000  Cu
  Cu3      1.0000 0.03842  0.06641  0.24258  Biso   1.000  Cu
  Cu4      1.0000 0.96158  0.93359  0.75742  Biso   1.000  Cu
  Cu5      1.0000 0.28720  0.18462  0.45249  Biso   1.000  Cu
  Cu6      1.0000 0.71280  0.81538  0.54751  Biso   1.000  Cu
  S1       1.0000 0.71070  0.19120  0.35680  Biso   1.000  S
  S2       1.0000 0.28930  0.80880  0.64320  Biso   1.000  S
  O1       1.0000 0.22360  0.18810  0.32540  Biso   1.000  O
  O2       1.0000 0.77640  0.81190  0.67460  Biso   1.000  O
  H1       1.0000 0.34320  0.18480  0.29760  Biso   1.000  H
  H2       1.0000 0.65680  0.81520  0.70240  Biso   1.000  H
  N1       1.0000 0.25350  0.38100  0.45200  Biso   1.000  N
  N2       1.0000 0.74650  0.61900  0.54800  Biso   1.000  N
  N3       1.0000 0.30110  0.32980  0.50780  Biso   1.000  N
  N4       1.0000 0.69890  0.67020  0.49220  Biso   1.000  N
  N5       1.0000 0.31470  0.48960  0.59690  Biso   1.000  N
  N6       1.0000 0.68530  0.51040  0.40310  Biso   1.000  N
  N7       1.0000 0.10270  0.98650  0.31810  Biso   1.000  N
  N8       1.0000 0.89730  0.01350  0.68190  Biso   1.000  N
  N9       1.0000 0.19640  0.04100  0.40590  Biso   1.000  N
  N10      1.0000 0.80360  0.95900  0.59410  Biso   1.000  N
  N11      1.0000 0.11340  0.88090  0.39860  Biso   1.000  N
  N12      1.0000 0.88660  0.11910  0.60140  Biso   1.000  N
  N13      1.0000 0.98070  0.14600  0.16960  Biso   1.000  N
  N14      1.0000 0.01930  0.85400  0.83040  Biso   1.000  N
  N15      1.0000 0.02960  0.24920  0.19700  Biso   1.000  N
  N16      1.0000 0.97040  0.75080  0.80300  Biso   1.000  N
  N17      1.0000 0.84330  0.19620  0.06020  Biso   1.000  N
  N18      1.0000 0.15670  0.80380  0.93980  Biso   1.000  N
  N19      1.0000 0.22140  0.54960  0.47490  Biso   1.000  N
  N20      1.0000 0.77860  0.45040  0.52510  Biso   1.000  N
  H3       1.0000 0.23240  0.60890  0.51550  Biso   1.000  H
  H4       1.0000 0.76760  0.39110  0.48450  Biso   1.000  H
  N21      1.0000 0.27800  0.00330  0.54120  Biso   1.000  N
  N22      1.0000 0.72200  0.99670  0.45880  Biso   1.000  N
  H5       1.0000 0.28160  0.95560  0.56370  Biso   1.000  H
  H6       1.0000 0.71840  0.04440  0.43630  Biso   1.000  H
  N23      1.0000 0.78710  0.01860  0.03750  Biso   1.000  N
  N24      1.0000 0.21290  0.98140  0.96250  Biso   1.000  N
  H7       1.0000 0.72930  0.00550  0.98280  Biso   1.000  H
  H8       1.0000 0.27070  0.99450  0.01720  Biso   1.000  H
  C1       1.0000 0.14600  0.63290  0.36910  Biso   1.000  C
  C2       1.0000 0.85400  0.36710  0.63090  Biso   1.000  C
  H9       1.0000 0.17080  0.68860  0.42670  Biso   1.000  H
  H10      1.0000 0.82920  0.31140  0.57330  Biso   1.000  H
  H11      1.0000 0.01790  0.62570  0.34090  Biso   1.000  H
  H12      1.0000 0.98210  0.37430  0.65910  Biso   1.000  H
  H13      1.0000 0.23510  0.64530  0.32810  Biso   1.000  H
  H14      1.0000 0.76490  0.35470  0.67190  Biso   1.000  H
  C3       1.0000 0.16610  0.53880  0.38680  Biso   1.000  C
  C4       1.0000 0.83390  0.46120  0.61320  Biso   1.000  C
  C5       1.0000 0.26260  0.47460  0.50700  Biso   1.000  C
  C6       1.0000 0.73740  0.52540  0.49300  Biso   1.000  C
  C7       1.0000 0.33520  0.39760  0.59230  Biso   1.000  C
  C8       1.0000 0.66480  0.60240  0.40770  Biso   1.000  C
  H15      1.0000 0.37090  0.38200  0.64440  Biso   1.000  H
  H16      1.0000 0.62910  0.61800  0.35560  Biso   1.000  H
  C9       1.0000 0.43380  0.11110  0.69380  Biso   1.000  C
  C10      1.0000 0.56620  0.88890  0.30620  Biso   1.000  C
  H17      1.0000 0.41790  0.04650  0.70200  Biso   1.000  H
  H18      1.0000 0.58210  0.95350  0.29800  Biso   1.000  H
  H19      1.0000 0.36880  0.15470  0.73790  Biso   1.000  H
  H20      1.0000 0.63120  0.84530  0.26210  Biso   1.000  H
  H21      1.0000 0.56750  0.14080  0.70330  Biso   1.000  H
  H22      1.0000 0.43250  0.85920  0.29670  Biso   1.000  H
  C11      1.0000 0.35160  0.09770  0.59750  Biso   1.000  C
  C12      1.0000 0.64840  0.90230  0.40250  Biso   1.000  C
  C13      1.0000 0.19690  0.97550  0.45050  Biso   1.000  C
  C14      1.0000 0.80310  0.02450  0.54950  Biso   1.000  C
  C15      1.0000 0.05900  0.89280  0.31840  Biso   1.000  C
  C16      1.0000 0.94100  0.10720  0.68160  Biso   1.000  C
  H23      1.0000 0.99530  0.83910  0.26680  Biso   1.000  H
  H24      1.0000 0.00470  0.16090  0.73320  Biso   1.000  H
  C17      1.0000 0.68490  0.84000  0.00030  Biso   1.000  C
  C18      1.0000 0.31510  0.16000  0.99970  Biso   1.000  C
  H25      1.0000 0.62920  0.84870  0.94560  Biso   1.000  H
  H26      1.0000 0.37080  0.15130  0.05440  Biso   1.000  H
  H27      1.0000 0.58570  0.81290  0.02980  Biso   1.000  H
  H28      1.0000 0.41430  0.18710  0.97020  Biso   1.000  H
  H29      1.0000 0.77160  0.79410  0.98340  Biso   1.000  H
  H30      1.0000 0.22840  0.20590  0.01660  Biso   1.000  H
  C19      1.0000 0.79370  0.94220  0.06740  Biso   1.000  C
  C20      1.0000 0.20630  0.05780  0.93260  Biso   1.000  C
  C21      1.0000 0.86840  0.12010  0.08920  Biso   1.000  C
  C22      1.0000 0.13160  0.87990  0.91080  Biso   1.000  C
  C23      1.0000 0.94370  0.27480  0.13210  Biso   1.000  C
  C24      1.0000 0.05630  0.72520  0.86790  Biso   1.000  C
  H31      1.0000 0.95170  0.34170  0.13560  Biso   1.000  H
  H32      1.0000 0.04830  0.65830  0.86440  Biso   1.000  H
  O3       1.0000 0.14090  0.45700  0.32210  Biso   1.000  O
  O4       1.0000 0.85910  0.54300  0.67790  Biso   1.000  O
  O5       1.0000 0.36000  0.17320  0.57360  Biso   1.000  O
  O6       1.0000 0.64000  0.82680  0.42640  Biso   1.000  O
  O7       1.0000 0.87530  0.94670  0.14270  Biso   1.000  O
  O8       1.0000 0.12470  0.05330  0.85730  Biso   1.000  O
  O9       1.0000 0.83870  0.28590  0.37260  Biso   1.000  O
  O10      1.0000 0.16130  0.71410  0.62740  Biso   1.000  O
  O11      1.0000 0.60290  0.19330  0.42870  Biso   1.000  O
  O12      1.0000 0.39710  0.80670  0.57130  Biso   1.000  O
  O13      1.0000 0.57350  0.17200  0.26660  Biso   1.000  O
  O14      1.0000 0.42650  0.82800  0.73340  Biso   1.000  O
  O15      1.0000 0.81360  0.10920  0.33670  Biso   1.000  O
  O16      1.0000 0.18640  0.89080  0.66330  Biso   1.000  O
  O17      1.0000 0.37160  0.01170  0.14740  Biso   1.000  O
  O18      1.0000 0.62840  0.98830  0.85260  Biso   1.000  O
  H33      1.0000 0.34810  0.96460  0.18080  Biso   1.000  H
  H34      1.0000 0.65190  0.03540  0.81920  Biso   1.000  H
  H35      1.0000 0.43020  0.08080  0.18460  Biso   1.000  H
  H36      1.0000 0.56980  0.91920  0.81540  Biso   1.000  H
  O19      1.0000 0.50780  0.65380  0.75030  Biso   1.000  O
  O20      1.0000 0.49220  0.34620  0.24970  Biso   1.000  O
  H37      1.0000 0.42190  0.62220  0.78370  Biso   1.000  H
  H38      1.0000 0.57810  0.37780  0.21630  Biso   1.000  H
  H39      1.0000 0.60560  0.61800  0.72310  Biso   1.000  H
  H40      1.0000 0.39440  0.38200  0.27690  Biso   1.000  H
  O21      1.0000 0.25010  0.78670  0.11110  Biso   1.000  O
  O22      1.0000 0.74990  0.21330  0.88890  Biso   1.000  O
  H41      1.0000 0.38600  0.80260  0.12210  Biso   1.000  H
  H42      1.0000 0.61400  0.19740  0.87790  Biso   1.000  H
  H43      1.0000 0.20660  0.84390  0.14940  Biso   1.000  H
  H44      1.0000 0.79340  0.15610  0.85060  Biso   1.000  H
  O23      1.0000 0.50000  0.35840  0.90600  Biso   1.000  O
  O24      1.0000 0.50000  0.64160  0.09400  Biso   1.000  O
  H45      1.0000 0.54670  0.39180  0.86190  Biso   1.000  H
  H46      1.0000 0.45330  0.60820  0.13810  Biso   1.000  H
  H47      1.0000 0.60350  0.31930  0.90750  Biso   1.000  H
  H48      1.0000 0.39650  0.68070  0.09250  Biso   1.000  H
  O25      1.0000 0.11000  0.35300  0.86170  Biso   1.000  O
  O26      1.0000 0.89000  0.64700  0.13830  Biso   1.000  O
  H49      1.0000 0.13560  0.35130  0.92330  Biso   1.000  H
  H50      1.0000 0.86440  0.64870  0.07670  Biso   1.000  H
  H51      1.0000 0.00140  0.38730  0.86710  Biso   1.000  H
  H52      1.0000 0.99860  0.61270  0.13290  Biso   1.000  H
  O27      1.0000 0.42500  0.43300  0.11600  Biso   1.000  O
  O28      1.0000 0.57500  0.56700  0.88400  Biso   1.000  O
  H53      1.0000 0.35910  0.47820  0.15870  Biso   1.000  H
  H54      1.0000 0.64090  0.52180  0.84130  Biso   1.000  H
  H55      1.0000 0.55870  0.45840  0.11420  Biso   1.000  H
  H56      1.0000 0.44130  0.54160  0.88580  Biso   1.000  H
  O29      1.0000 0.07600  0.49900  0.07900  Biso   1.000  O
  O30      1.0000 0.92400  0.50100  0.92100  Biso   1.000  O
  H57      1.0000 0.01620  0.50490  0.13470  Biso   1.000  H
  H58      1.0000 0.98380  0.49510  0.86530  Biso   1.000  H
  H59      1.0000 0.21320  0.52180  0.08690  Biso   1.000  H
  H60      1.0000 0.78680  0.47820  0.91310  Biso   1.000  H
