data_image0
_cell_length_a       10.141
_cell_length_b       12.98
_cell_length_c       13.738
_cell_angle_alpha    99.39
_cell_angle_beta     103.585
_cell_angle_gamma    104.953

_symmetry_space_group_name_H-M    "P 1"
_symmetry_int_tables_number       1

loop_
  _symmetry_equiv_pos_as_xyz
  'x, y, z'

loop_
  _atom_site_label
  _atom_site_occupancy
  _atom_site_fract_x
  _atom_site_fract_y
  _atom_site_fract_z
  _atom_site_thermal_displace_type
  _atom_site_B_iso_or_equiv
  _atom_site_type_symbol
  Cu1      1.0000 0.50000  0.00000  0.50000  Biso   1.000  Cu
  O1       1.0000 0.67130  0.15509  0.54317  Biso   1.000  O
  O2       1.0000 0.32870  0.84491  0.45683  Biso   1.000  O
  C1       1.0000 0.87370  0.28500  0.53800  Biso   1.000  C
  C2       1.0000 0.12630  0.71500  0.46200  Biso   1.000  C
  F1       1.0000 0.94440  0.31480  0.63721  Biso   1.000  F
  F2       1.0000 0.05560  0.68520  0.36279  Biso   1.000  F
  F3       1.0000 0.79950  0.35386  0.52020  Biso   1.000  F
  F4       1.0000 0.20050  0.64614  0.47980  Biso   1.000  F
  F5       1.0000 0.96840  0.30186  0.48710  Biso   1.000  F
  F6       1.0000 0.03160  0.69814  0.51290  Biso   1.000  F
  C3       1.0000 0.77590  0.16700  0.51050  Biso   1.000  C
  C4       1.0000 0.22410  0.83300  0.48950  Biso   1.000  C
  C5       1.0000 0.81640  0.08620  0.45650  Biso   1.000  C
  C6       1.0000 0.18360  0.91380  0.54350  Biso   1.000  C
  H1       1.0000 0.89650  0.10780  0.43150  Biso   1.000  H
  H2       1.0000 0.10350  0.89220  0.56850  Biso   1.000  H
  C7       1.0000 0.74540  0.97720  0.43820  Biso   1.000  C
  C8       1.0000 0.25460  0.02280  0.56180  Biso   1.000  C
  C9       1.0000 0.79810  0.89500  0.37940  Biso   1.000  C
  C10      1.0000 0.20190  0.10500  0.62060  Biso   1.000  C
  F7       1.0000 0.81650  0.81859  0.42946  Biso   1.000  F
  F8       1.0000 0.18350  0.18141  0.57054  Biso   1.000  F
  F9       1.0000 0.91970  0.93880  0.36063  Biso   1.000  F
  F10      1.0000 0.08030  0.06120  0.63937  Biso   1.000  F
  F11      1.0000 0.70300  0.84351  0.28849  Biso   1.000  F
  F12      1.0000 0.29700  0.15649  0.71151  Biso   1.000  F
  O3       1.0000 0.63820  0.93087  0.46424  Biso   1.000  O
  O4       1.0000 0.36180  0.06913  0.53576  Biso   1.000  O
  Cu2      1.0000 0.00000  0.50000  0.00000  Biso   1.000  Cu
  O5       1.0000 0.96990  0.42621  0.11078  Biso   1.000  O
  O6       1.0000 0.03010  0.57379  0.88922  Biso   1.000  O
  C11      1.0000 0.90020  0.38640  0.25300  Biso   1.000  C
  C12      1.0000 0.09980  0.61360  0.74700  Biso   1.000  C
  F13      1.0000 0.82780  0.41090  0.31390  Biso   1.000  F
  F14      1.0000 0.17220  0.58910  0.68610  Biso   1.000  F
  F15      1.0000 0.03280  0.41020  0.30903  Biso   1.000  F
  F16      1.0000 0.96720  0.58980  0.69097  Biso   1.000  F
  F17      1.0000 0.85640  0.27988  0.21910  Biso   1.000  F
  F18      1.0000 0.14360  0.72012  0.78090  Biso   1.000  F
  C13      1.0000 0.89110  0.44330  0.16400  Biso   1.000  C
  C14      1.0000 0.10890  0.55670  0.83600  Biso   1.000  C
  C15      1.0000 0.79930  0.50620  0.15210  Biso   1.000  C
  C16      1.0000 0.20070  0.49380  0.84790  Biso   1.000  C
  H3       1.0000 0.74530  0.51250  0.19940  Biso   1.000  H
  H4       1.0000 0.25470  0.48750  0.80060  Biso   1.000  H
  C17      1.0000 0.78470  0.55950  0.07340  Biso   1.000  C
  C18      1.0000 0.21530  0.44050  0.92660  Biso   1.000  C
  C19      1.0000 0.68730  0.63160  0.06710  Biso   1.000  C
  C20      1.0000 0.31270  0.36840  0.93290  Biso   1.000  C
  F19      1.0000 0.60680  0.62007  0.13009  Biso   1.000  F
  F20      1.0000 0.39320  0.37993  0.86991  Biso   1.000  F
  F21      1.0000 0.76280  0.73501  0.08963  Biso   1.000  F
  F22      1.0000 0.23720  0.26499  0.91037  Biso   1.000  F
  F23      1.0000 0.60040  0.60862  0.97259  Biso   1.000  F
  F24      1.0000 0.39960  0.39138  0.02741  Biso   1.000  F
  O7       1.0000 0.84450  0.56018  0.00368  Biso   1.000  O
  O8       1.0000 0.15550  0.43982  0.99632  Biso   1.000  O
  O9       1.0000 0.53050  0.98202  0.64942  Biso   1.000  O
  O10      1.0000 0.46950  0.01798  0.35058  Biso   1.000  O
  N1       1.0000 0.64090  0.96461  0.70650  Biso   1.000  N
  N2       1.0000 0.35910  0.03539  0.29350  Biso   1.000  N
  C21      1.0000 0.63830  0.85200  0.71960  Biso   1.000  C
  C22      1.0000 0.36170  0.14800  0.28040  Biso   1.000  C
  C23      1.0000 0.58500  0.77050  0.61590  Biso   1.000  C
  C24      1.0000 0.41500  0.22950  0.38410  Biso   1.000  C
  H5       1.0000 0.48440  0.76220  0.58420  Biso   1.000  H
  H6       1.0000 0.51560  0.23780  0.41580  Biso   1.000  H
  H7       1.0000 0.64130  0.79720  0.57100  Biso   1.000  H
  H8       1.0000 0.35870  0.20280  0.42900  Biso   1.000  H
  H9       1.0000 0.59470  0.69930  0.62530  Biso   1.000  H
  H10      1.0000 0.40530  0.30070  0.37470  Biso   1.000  H
  C25      1.0000 0.53650  0.82250  0.78280  Biso   1.000  C
  C26      1.0000 0.46350  0.17750  0.21720  Biso   1.000  C
  H11      1.0000 0.43870  0.81040  0.74100  Biso   1.000  H
  H12      1.0000 0.56130  0.18960  0.25900  Biso   1.000  H
  H13      1.0000 0.54350  0.75530  0.80450  Biso   1.000  H
  H14      1.0000 0.45650  0.24470  0.19550  Biso   1.000  H
  H15      1.0000 0.56140  0.88260  0.84380  Biso   1.000  H
  H16      1.0000 0.43860  0.11740  0.15620  Biso   1.000  H
  C27      1.0000 0.79720  0.87380  0.77690  Biso   1.000  C
  C28      1.0000 0.20280  0.12620  0.22310  Biso   1.000  C
  C29      1.0000 0.88890  0.86160  0.70580  Biso   1.000  C
  C30      1.0000 0.11110  0.13840  0.29420  Biso   1.000  C
  H17      1.0000 0.98760  0.87580  0.74700  Biso   1.000  H
  H18      1.0000 0.01240  0.12420  0.25300  Biso   1.000  H
  H19      1.0000 0.85270  0.78690  0.66190  Biso   1.000  H
  H20      1.0000 0.14730  0.21310  0.33810  Biso   1.000  H
  H21      1.0000 0.88580  0.91440  0.66250  Biso   1.000  H
  H22      1.0000 0.11420  0.08560  0.33750  Biso   1.000  H
  C31      1.0000 0.82550  0.81300  0.86100  Biso   1.000  C
  C32      1.0000 0.17450  0.18700  0.13900  Biso   1.000  C
  H23      1.0000 0.92860  0.83230  0.89270  Biso   1.000  H
  H24      1.0000 0.07140  0.16770  0.10730  Biso   1.000  H
  H25      1.0000 0.78030  0.83370  0.91360  Biso   1.000  H
  H26      1.0000 0.21970  0.16630  0.08640  Biso   1.000  H
  H27      1.0000 0.78600  0.73370  0.83120  Biso   1.000  H
  H28      1.0000 0.21400  0.26630  0.16880  Biso   1.000  H
  N3       1.0000 0.83940  0.99370  0.82500  Biso   1.000  N
  N4       1.0000 0.16060  0.00630  0.17500  Biso   1.000  N
  O11      1.0000 0.95510  0.04407  0.89433  Biso   1.000  O
  O12      1.0000 0.04490  0.95593  0.10567  Biso   1.000  O
  C33      1.0000 0.74800  0.04170  0.77570  Biso   1.000  C
  C34      1.0000 0.25200  0.95830  0.22430  Biso   1.000  C
  C35      1.0000 0.76680  0.15700  0.79970  Biso   1.000  C
  C36      1.0000 0.23320  0.84300  0.20030  Biso   1.000  C
  C37      1.0000 0.87800  0.24030  0.87340  Biso   1.000  C
  C38      1.0000 0.12200  0.75970  0.12660  Biso   1.000  C
  H29      1.0000 0.95790  0.22910  0.91740  Biso   1.000  H
  H30      1.0000 0.04210  0.77090  0.08260  Biso   1.000  H
  N5       1.0000 0.85750  0.33668  0.87376  Biso   1.000  N
  N6       1.0000 0.14250  0.66332  0.12624  Biso   1.000  N
  N7       1.0000 0.73280  0.31583  0.79989  Biso   1.000  N
  N8       1.0000 0.26720  0.68417  0.20011  Biso   1.000  N
  C39      1.0000 0.68430  0.40790  0.77700  Biso   1.000  C
  C40      1.0000 0.31570  0.59210  0.22300  Biso   1.000  C
  H31      1.0000 0.66600  0.44500  0.83910  Biso   1.000  H
  H32      1.0000 0.33400  0.55500  0.16090  Biso   1.000  H
  H33      1.0000 0.76200  0.46140  0.76230  Biso   1.000  H
  H34      1.0000 0.23800  0.53860  0.23770  Biso   1.000  H
  C41      1.0000 0.55450  0.37800  0.68930  Biso   1.000  C
  C42      1.0000 0.44550  0.62200  0.31070  Biso   1.000  C
  H35      1.0000 0.57170  0.34140  0.62650  Biso   1.000  H
  H36      1.0000 0.42830  0.65860  0.37350  Biso   1.000  H
  H37      1.0000 0.47540  0.32550  0.70350  Biso   1.000  H
  H38      1.0000 0.52460  0.67450  0.29650  Biso   1.000  H
  C43      1.0000 0.51240  0.47870  0.67100  Biso   1.000  C
  C44      1.0000 0.48760  0.52130  0.32900  Biso   1.000  C
  H39      1.0000 0.58880  0.52780  0.65120  Biso   1.000  H
  H40      1.0000 0.41120  0.47220  0.34880  Biso   1.000  H
  H41      1.0000 0.50580  0.51900  0.73650  Biso   1.000  H
  H42      1.0000 0.49420  0.48100  0.26350  Biso   1.000  H
  C45      1.0000 0.37390  0.45430  0.58950  Biso   1.000  C
  C46      1.0000 0.62610  0.54570  0.41050  Biso   1.000  C
  H43      1.0000 0.35400  0.52310  0.58240  Biso   1.000  H
  H44      1.0000 0.64600  0.47690  0.41760  Biso   1.000  H
  H45      1.0000 0.38010  0.41650  0.52370  Biso   1.000  H
  H46      1.0000 0.61990  0.58350  0.47630  Biso   1.000  H
  H47      1.0000 0.29690  0.40730  0.60910  Biso   1.000  H
  H48      1.0000 0.70310  0.59270  0.39090  Biso   1.000  H
  C47      1.0000 0.67500  0.20960  0.75420  Biso   1.000  C
  C48      1.0000 0.32500  0.79040  0.24580  Biso   1.000  C
  H49      1.0000 0.58770  0.17630  0.70080  Biso   1.000  H
  H50      1.0000 0.41230  0.82370  0.29920  Biso   1.000  H
  C49      1.0000 0.55280  0.17530  0.95960  Biso   1.000  C
  C50      1.0000 0.44720  0.82470  0.04040  Biso   1.000  C
  H51      1.0000 0.65040  0.22070  0.97550  Biso   1.000  H
  H52      1.0000 0.34960  0.77930  0.02450  Biso   1.000  H
  H53      1.0000 0.50260  0.21230  0.99730  Biso   1.000  H
  H54      1.0000 0.49740  0.78770  0.00270  Biso   1.000  H
  H55      1.0000 0.50710  0.16080  0.88680  Biso   1.000  H
  H56      1.0000 0.49290  0.83920  0.11320  Biso   1.000  H
  C51      1.0000 0.54450  0.06990  0.99080  Biso   1.000  C
  C52      1.0000 0.45550  0.93010  0.00920  Biso   1.000  C
  C53      1.0000 0.67030  0.05250  0.04070  Biso   1.000  C
  C54      1.0000 0.32970  0.94750  0.95930  Biso   1.000  C
  H57      1.0000 0.76070  0.10720  0.05260  Biso   1.000  H
  H58      1.0000 0.23930  0.89280  0.94740  Biso   1.000  H
  C55      1.0000 0.66960  0.95900  0.07740  Biso   1.000  C
  C56      1.0000 0.33040  0.04100  0.92260  Biso   1.000  C
  H59      1.0000 0.75810  0.94790  0.11060  Biso   1.000  H
  H60      1.0000 0.24190  0.05210  0.88940  Biso   1.000  H
  C57      1.0000 0.54050  0.87910  0.06200  Biso   1.000  C
  C58      1.0000 0.45950  0.12090  0.93800  Biso   1.000  C
  H61      1.0000 0.53790  0.81570  0.09000  Biso   1.000  H
  H62      1.0000 0.46210  0.18430  0.91000  Biso   1.000  H
  C59      1.0000 0.41620  0.89580  0.01010  Biso   1.000  C
  C60      1.0000 0.58380  0.10420  0.98990  Biso   1.000  C
  H63      1.0000 0.32700  0.83910  0.99670  Biso   1.000  H
  H64      1.0000 0.67300  0.16090  0.00330  Biso   1.000  H
  C61      1.0000 0.41800  0.98900  0.97230  Biso   1.000  C
  C62      1.0000 0.58200  0.01100  0.02770  Biso   1.000  C
  C63      1.0000 0.27920  0.99830  0.91350  Biso   1.000  C
  C64      1.0000 0.72080  0.00170  0.08650  Biso   1.000  C
  H65      1.0000 0.20030  0.93620  0.90970  Biso   1.000  H
  H66      1.0000 0.79970  0.06380  0.09030  Biso   1.000  H
  H67      1.0000 0.28260  0.00330  0.84490  Biso   1.000  H
  H68      1.0000 0.71740  0.99670  0.15510  Biso   1.000  H
  H69      1.0000 0.26680  0.06400  0.94830  Biso   1.000  H
  H70      1.0000 0.73320  0.93600  0.05170  Biso   1.000  H
