data_image0
_cell_length_a       10.276
_cell_length_b       12.984
_cell_length_c       13.88
_cell_angle_alpha    99.1
_cell_angle_beta     104.02
_cell_angle_gamma    104.2

_symmetry_space_group_name_H-M    "P 1"
_symmetry_int_tables_number       1

loop_
  _symmetry_equiv_pos_as_xyz
  'x, y, z'

loop_
  _atom_site_label
  _atom_site_occupancy
  _atom_site_fract_x
  _atom_site_fract_y
  _atom_site_fract_z
  _atom_site_thermal_displace_type
  _atom_site_B_iso_or_equiv
  _atom_site_type_symbol
  Cu1      1.0000 0.50000  0.00000  0.50000  Biso   1.000  Cu
  O1       1.0000 0.65140  0.14250  0.53480  Biso   1.000  O
  O2       1.0000 0.34860  0.85750  0.46520  Biso   1.000  O
  C1       1.0000 0.84740  0.27250  0.53210  Biso   1.000  C
  C2       1.0000 0.15260  0.72750  0.46790  Biso   1.000  C
  F1       1.0000 0.91170  0.30430  0.62910  Biso   1.000  F
  F2       1.0000 0.08830  0.69570  0.37090  Biso   1.000  F
  F3       1.0000 0.77510  0.33790  0.51080  Biso   1.000  F
  F4       1.0000 0.22490  0.66210  0.48920  Biso   1.000  F
  F5       1.0000 0.94690  0.29040  0.48770  Biso   1.000  F
  F6       1.0000 0.05310  0.70960  0.51230  Biso   1.000  F
  C3       1.0000 0.75890  0.15540  0.50470  Biso   1.000  C
  C4       1.0000 0.24110  0.84460  0.49530  Biso   1.000  C
  C5       1.0000 0.80200  0.07710  0.45390  Biso   1.000  C
  C6       1.0000 0.19800  0.92290  0.54610  Biso   1.000  C
  H1       1.0000 0.88190  0.09920  0.43190  Biso   1.000  H
  H2       1.0000 0.11810  0.90080  0.56810  Biso   1.000  H
  C7       1.0000 0.73360  0.96850  0.43400  Biso   1.000  C
  C8       1.0000 0.26640  0.03150  0.56600  Biso   1.000  C
  C9       1.0000 0.79270  0.88790  0.37990  Biso   1.000  C
  C10      1.0000 0.20730  0.11210  0.62010  Biso   1.000  C
  F7       1.0000 0.81670  0.81750  0.43370  Biso   1.000  F
  F8       1.0000 0.18330  0.18250  0.56630  Biso   1.000  F
  F9       1.0000 0.91010  0.93120  0.36180  Biso   1.000  F
  F10      1.0000 0.08990  0.06880  0.63820  Biso   1.000  F
  F11      1.0000 0.70360  0.83260  0.29260  Biso   1.000  F
  F12      1.0000 0.29640  0.16740  0.70740  Biso   1.000  F
  O3       1.0000 0.62670  0.92360  0.45510  Biso   1.000  O
  O4       1.0000 0.37330  0.07640  0.54490  Biso   1.000  O
  Cu2      1.0000 0.00000  0.50000  0.00000  Biso   1.000  Cu
  O5       1.0000 0.97130  0.43050  0.11300  Biso   1.000  O
  O6       1.0000 0.02870  0.56950  0.88700  Biso   1.000  O
  C11      1.0000 0.89580  0.39660  0.25040  Biso   1.000  C
  C12      1.0000 0.10420  0.60340  0.74960  Biso   1.000  C
  F13      1.0000 0.84090  0.42570  0.31250  Biso   1.000  F
  F14      1.0000 0.15910  0.57430  0.68750  Biso   1.000  F
  F15      1.0000 0.02470  0.41620  0.30810  Biso   1.000  F
  F16      1.0000 0.97530  0.58380  0.69190  Biso   1.000  F
  F17      1.0000 0.86870  0.29740  0.22760  Biso   1.000  F
  F18      1.0000 0.13130  0.70260  0.77240  Biso   1.000  F
  C13      1.0000 0.89210  0.44990  0.16390  Biso   1.000  C
  C14      1.0000 0.10790  0.55010  0.83610  Biso   1.000  C
  C15      1.0000 0.80310  0.51360  0.14870  Biso   1.000  C
  C16      1.0000 0.19690  0.48640  0.85130  Biso   1.000  C
  H3       1.0000 0.75110  0.52280  0.19480  Biso   1.000  H
  H4       1.0000 0.24890  0.47720  0.80520  Biso   1.000  H
  C17      1.0000 0.78760  0.56350  0.06990  Biso   1.000  C
  C18      1.0000 0.21240  0.43650  0.93010  Biso   1.000  C
  C19      1.0000 0.68850  0.63340  0.06030  Biso   1.000  C
  C20      1.0000 0.31150  0.36660  0.93970  Biso   1.000  C
  F19      1.0000 0.60750  0.62320  0.11990  Biso   1.000  F
  F20      1.0000 0.39250  0.37680  0.88010  Biso   1.000  F
  F21      1.0000 0.76020  0.73640  0.08330  Biso   1.000  F
  F22      1.0000 0.23980  0.26360  0.91670  Biso   1.000  F
  F23      1.0000 0.60930  0.61250  0.96730  Biso   1.000  F
  F24      1.0000 0.39070  0.38750  0.03270  Biso   1.000  F
  O7       1.0000 0.84850  0.56310  0.00300  Biso   1.000  O
  O8       1.0000 0.15150  0.43690  0.99700  Biso   1.000  O
  O9       1.0000 0.54380  0.98380  0.65960  Biso   1.000  O
  O10      1.0000 0.45620  0.01620  0.34040  Biso   1.000  O
  N1       1.0000 0.65360  0.96780  0.71590  Biso   1.000  N
  N2       1.0000 0.34640  0.03220  0.28410  Biso   1.000  N
  C21      1.0000 0.65520  0.85630  0.72710  Biso   1.000  C
  C22      1.0000 0.34480  0.14370  0.27290  Biso   1.000  C
  C23      1.0000 0.60360  0.77680  0.62430  Biso   1.000  C
  C24      1.0000 0.39640  0.22320  0.37570  Biso   1.000  C
  H5       1.0000 0.50520  0.76870  0.59340  Biso   1.000  H
  H6       1.0000 0.49480  0.23130  0.40660  Biso   1.000  H
  H7       1.0000 0.65770  0.80410  0.58050  Biso   1.000  H
  H8       1.0000 0.34230  0.19590  0.41950  Biso   1.000  H
  H9       1.0000 0.61460  0.70640  0.63310  Biso   1.000  H
  H10      1.0000 0.38540  0.29360  0.36690  Biso   1.000  H
  C25      1.0000 0.55980  0.82550  0.79090  Biso   1.000  C
  C26      1.0000 0.44020  0.17450  0.20910  Biso   1.000  C
  H11      1.0000 0.46330  0.81320  0.75140  Biso   1.000  H
  H12      1.0000 0.53670  0.18680  0.24860  Biso   1.000  H
  H13      1.0000 0.56990  0.75920  0.81160  Biso   1.000  H
  H14      1.0000 0.43010  0.24080  0.18840  Biso   1.000  H
  H15      1.0000 0.58440  0.88400  0.85110  Biso   1.000  H
  H16      1.0000 0.41560  0.11600  0.14890  Biso   1.000  H
  C27      1.0000 0.81340  0.87940  0.78210  Biso   1.000  C
  C28      1.0000 0.18660  0.12060  0.21790  Biso   1.000  C
  C29      1.0000 0.90060  0.86810  0.70840  Biso   1.000  C
  C30      1.0000 0.09940  0.13190  0.29160  Biso   1.000  C
  H17      1.0000 0.99790  0.88150  0.74690  Biso   1.000  H
  H18      1.0000 0.00210  0.11850  0.25310  Biso   1.000  H
  H19      1.0000 0.86500  0.79490  0.66510  Biso   1.000  H
  H20      1.0000 0.13500  0.20510  0.33490  Biso   1.000  H
  H21      1.0000 0.89430  0.92070  0.66640  Biso   1.000  H
  H22      1.0000 0.10570  0.07930  0.33360  Biso   1.000  H
  C31      1.0000 0.84600  0.81920  0.86360  Biso   1.000  C
  C32      1.0000 0.15400  0.18080  0.13640  Biso   1.000  C
  H23      1.0000 0.94690  0.83900  0.89360  Biso   1.000  H
  H24      1.0000 0.05310  0.16100  0.10640  Biso   1.000  H
  H25      1.0000 0.80270  0.83820  0.91590  Biso   1.000  H
  H26      1.0000 0.19730  0.16180  0.08410  Biso   1.000  H
  H27      1.0000 0.80960  0.74120  0.83420  Biso   1.000  H
  H28      1.0000 0.19040  0.25880  0.16580  Biso   1.000  H
  N3       1.0000 0.85130  0.99840  0.82930  Biso   1.000  N
  N4       1.0000 0.14870  0.00160  0.17070  Biso   1.000  N
  O11      1.0000 0.96680  0.04830  0.89450  Biso   1.000  O
  O12      1.0000 0.03320  0.95170  0.10550  Biso   1.000  O
  C33      1.0000 0.75840  0.04410  0.78190  Biso   1.000  C
  C34      1.0000 0.24160  0.95590  0.21810  Biso   1.000  C
  C35      1.0000 0.77300  0.15850  0.80430  Biso   1.000  C
  C36      1.0000 0.22700  0.84150  0.19570  Biso   1.000  C
  C37      1.0000 0.88060  0.24190  0.87850  Biso   1.000  C
  C38      1.0000 0.11940  0.75810  0.12150  Biso   1.000  C
  H29      1.0000 0.95890  0.23140  0.92270  Biso   1.000  H
  H30      1.0000 0.04110  0.76860  0.07730  Biso   1.000  H
  N5       1.0000 0.85700  0.33700  0.87790  Biso   1.000  N
  N6       1.0000 0.14300  0.66300  0.12210  Biso   1.000  N
  N7       1.0000 0.73530  0.31610  0.80410  Biso   1.000  N
  N8       1.0000 0.26470  0.68390  0.19590  Biso   1.000  N
  C39      1.0000 0.68520  0.40660  0.78080  Biso   1.000  C
  C40      1.0000 0.31480  0.59340  0.21920  Biso   1.000  C
  H31      1.0000 0.76110  0.46030  0.76840  Biso   1.000  H
  H32      1.0000 0.23890  0.53970  0.23160  Biso   1.000  H
  H33      1.0000 0.66520  0.44170  0.84120  Biso   1.000  H
  H34      1.0000 0.33480  0.55830  0.15880  Biso   1.000  H
  C41      1.0000 0.56350  0.38080  0.69590  Biso   1.000  C
  C42      1.0000 0.43650  0.61920  0.30410  Biso   1.000  C
  H35      1.0000 0.58210  0.34510  0.63510  Biso   1.000  H
  H36      1.0000 0.41790  0.65490  0.36490  Biso   1.000  H
  H37      1.0000 0.48610  0.32880  0.70850  Biso   1.000  H
  H38      1.0000 0.51390  0.67120  0.29150  Biso   1.000  H
  C43      1.0000 0.51960  0.47880  0.67530  Biso   1.000  C
  C44      1.0000 0.48040  0.52120  0.32470  Biso   1.000  C
  H39      1.0000 0.59380  0.52710  0.65620  Biso   1.000  H
  H40      1.0000 0.40620  0.47290  0.34380  Biso   1.000  H
  H41      1.0000 0.51160  0.51870  0.73870  Biso   1.000  H
  H42      1.0000 0.48840  0.48130  0.26130  Biso   1.000  H
  C45      1.0000 0.38900  0.45550  0.59650  Biso   1.000  C
  C46      1.0000 0.61100  0.54450  0.40350  Biso   1.000  C
  H43      1.0000 0.36820  0.52320  0.58890  Biso   1.000  H
  H44      1.0000 0.63180  0.47680  0.41110  Biso   1.000  H
  H45      1.0000 0.39660  0.41860  0.53260  Biso   1.000  H
  H46      1.0000 0.60340  0.58140  0.46740  Biso   1.000  H
  H47      1.0000 0.31410  0.40890  0.61510  Biso   1.000  H
  H48      1.0000 0.68590  0.59110  0.38490  Biso   1.000  H
  C47      1.0000 0.68260  0.21030  0.75980  Biso   1.000  C
  C48      1.0000 0.31740  0.78970  0.24020  Biso   1.000  C
  H49      1.0000 0.59810  0.17710  0.70710  Biso   1.000  H
  H50      1.0000 0.40190  0.82290  0.29290  Biso   1.000  H
  C49      1.0000 0.58000  0.17970  0.97200  Biso   1.000  C
  C50      1.0000 0.42000  0.82030  0.02800  Biso   1.000  C
  H51      1.0000 0.67760  0.22510  0.98840  Biso   1.000  H
  H52      1.0000 0.32240  0.77490  0.01160  Biso   1.000  H
  H53      1.0000 0.52980  0.21670  0.01010  Biso   1.000  H
  H54      1.0000 0.47020  0.78330  0.98990  Biso   1.000  H
  H55      1.0000 0.53420  0.16530  0.89960  Biso   1.000  H
  H56      1.0000 0.46580  0.83470  0.10040  Biso   1.000  H
  C51      1.0000 0.54900  0.07060  0.99680  Biso   1.000  C
  C52      1.0000 0.45100  0.92940  0.00320  Biso   1.000  C
  C53      1.0000 0.68100  0.06400  0.04800  Biso   1.000  C
  C54      1.0000 0.31900  0.93600  0.95200  Biso   1.000  C
  H57      1.0000 0.77100  0.11910  0.05980  Biso   1.000  H
  H58      1.0000 0.22900  0.88090  0.94020  Biso   1.000  H
  C55      1.0000 0.66500  0.97100  0.08800  Biso   1.000  C
  C56      1.0000 0.33500  0.02900  0.91200  Biso   1.000  C
  H59      1.0000 0.75310  0.96000  0.12110  Biso   1.000  H
  H60      1.0000 0.24690  0.04000  0.87890  Biso   1.000  H
  C57      1.0000 0.54100  0.88590  0.06790  Biso   1.000  C
  C58      1.0000 0.45900  0.11410  0.93210  Biso   1.000  C
  H61      1.0000 0.53810  0.82250  0.09590  Biso   1.000  H
  H62      1.0000 0.46190  0.17750  0.90410  Biso   1.000  H
  C59      1.0000 0.42300  0.90700  0.00790  Biso   1.000  C
  C60      1.0000 0.57700  0.09300  0.99210  Biso   1.000  C
  H63      1.0000 0.33410  0.85040  0.99450  Biso   1.000  H
  H64      1.0000 0.66590  0.14960  0.00550  Biso   1.000  H
  C61      1.0000 0.42400  0.99720  0.96430  Biso   1.000  C
  C62      1.0000 0.57600  0.00280  0.03570  Biso   1.000  C
  C63      1.0000 0.27300  0.98000  0.91200  Biso   1.000  C
  C64      1.0000 0.72700  0.02000  0.08800  Biso   1.000  C
  H65      1.0000 0.19420  0.91820  0.90810  Biso   1.000  H
  H66      1.0000 0.80580  0.08180  0.09190  Biso   1.000  H
  H67      1.0000 0.27650  0.98530  0.84330  Biso   1.000  H
  H68      1.0000 0.72350  0.01470  0.15670  Biso   1.000  H
  H69      1.0000 0.26080  0.04600  0.94670  Biso   1.000  H
  H70      1.0000 0.73920  0.95400  0.05330  Biso   1.000  H
