data_image0
_cell_length_a       10.387
_cell_length_b       13.198
_cell_length_c       14.134
_cell_angle_alpha    100.262
_cell_angle_beta     103.434
_cell_angle_gamma    103.705

_symmetry_space_group_name_H-M    "P 1"
_symmetry_int_tables_number       1

loop_
  _symmetry_equiv_pos_as_xyz
  'x, y, z'

loop_
  _atom_site_label
  _atom_site_occupancy
  _atom_site_fract_x
  _atom_site_fract_y
  _atom_site_fract_z
  _atom_site_thermal_displace_type
  _atom_site_B_iso_or_equiv
  _atom_site_type_symbol
  Cu1      1.0000 0.50000  0.00000  0.50000  Biso   1.000  Cu
  O1       1.0000 0.35400  0.86108  0.46933  Biso   1.000  O
  O2       1.0000 0.64600  0.13892  0.53067  Biso   1.000  O
  C1       1.0000 0.16160  0.73250  0.47400  Biso   1.000  C
  C2       1.0000 0.83840  0.26750  0.52600  Biso   1.000  C
  F1       1.0000 0.09840  0.69970  0.37930  Biso   1.000  F
  F2       1.0000 0.90160  0.30030  0.62070  Biso   1.000  F
  F3       1.0000 0.23120  0.66870  0.49600  Biso   1.000  F
  F4       1.0000 0.76880  0.33130  0.50400  Biso   1.000  F
  F5       1.0000 0.06330  0.71660  0.51720  Biso   1.000  F
  F6       1.0000 0.93670  0.28340  0.48280  Biso   1.000  F
  C3       1.0000 0.24870  0.84870  0.49950  Biso   1.000  C
  C4       1.0000 0.75130  0.15130  0.50050  Biso   1.000  C
  C5       1.0000 0.20410  0.92720  0.54900  Biso   1.000  C
  C6       1.0000 0.79590  0.07280  0.45100  Biso   1.000  C
  H1       1.0000 0.12520  0.90660  0.56970  Biso   1.000  H
  H2       1.0000 0.87480  0.09340  0.43030  Biso   1.000  H
  C7       1.0000 0.27240  0.03570  0.56920  Biso   1.000  C
  C8       1.0000 0.72760  0.96430  0.43080  Biso   1.000  C
  C9       1.0000 0.21190  0.11530  0.61960  Biso   1.000  C
  C10      1.0000 0.78810  0.88470  0.38040  Biso   1.000  C
  F7       1.0000 0.18640  0.18280  0.56650  Biso   1.000  F
  F8       1.0000 0.81360  0.81720  0.43350  Biso   1.000  F
  F9       1.0000 0.09830  0.07430  0.63990  Biso   1.000  F
  F10      1.0000 0.90170  0.92570  0.36010  Biso   1.000  F
  F11      1.0000 0.29950  0.17420  0.70390  Biso   1.000  F
  F12      1.0000 0.70050  0.82580  0.29610  Biso   1.000  F
  O3       1.0000 0.37930  0.07827  0.54800  Biso   1.000  O
  O4       1.0000 0.62070  0.92173  0.45200  Biso   1.000  O
  Cu2      1.0000 0.00000  0.50000  0.00000  Biso   1.000  Cu
  O5       1.0000 0.02960  0.56694  0.88792  Biso   1.000  O
  O6       1.0000 0.97040  0.43306  0.11208  Biso   1.000  O
  C11      1.0000 0.10430  0.59880  0.74990  Biso   1.000  C
  C12      1.0000 0.89570  0.40120  0.25010  Biso   1.000  C
  F13      1.0000 0.13300  0.54980  0.67480  Biso   1.000  F
  F14      1.0000 0.86700  0.45020  0.32520  Biso   1.000  F
  F15      1.0000 0.96560  0.58880  0.69990  Biso   1.000  F
  F16      1.0000 0.03440  0.41120  0.30010  Biso   1.000  F
  F17      1.0000 0.14800  0.69540  0.76760  Biso   1.000  F
  F18      1.0000 0.85200  0.30460  0.23240  Biso   1.000  F
  C13      1.0000 0.10920  0.54680  0.83850  Biso   1.000  C
  C14      1.0000 0.89080  0.45320  0.16150  Biso   1.000  C
  C15      1.0000 0.19780  0.48450  0.85450  Biso   1.000  C
  C16      1.0000 0.80220  0.51550  0.14550  Biso   1.000  C
  H3       1.0000 0.25070  0.47580  0.81050  Biso   1.000  H
  H4       1.0000 0.74930  0.52420  0.18950  Biso   1.000  H
  C17      1.0000 0.21190  0.43450  0.93190  Biso   1.000  C
  C18      1.0000 0.78810  0.56550  0.06810  Biso   1.000  C
  C19      1.0000 0.30920  0.36510  0.94190  Biso   1.000  C
  C20      1.0000 0.69080  0.63490  0.05810  Biso   1.000  C
  F19      1.0000 0.39130  0.37360  0.88480  Biso   1.000  F
  F20      1.0000 0.60870  0.62640  0.11520  Biso   1.000  F
  F21      1.0000 0.24140  0.26340  0.92000  Biso   1.000  F
  F22      1.0000 0.75860  0.73660  0.08000  Biso   1.000  F
  F23      1.0000 0.38700  0.38490  0.03400  Biso   1.000  F
  F24      1.0000 0.61300  0.61510  0.96600  Biso   1.000  F
  O7       1.0000 0.14930  0.43593  0.99736  Biso   1.000  O
  O8       1.0000 0.85070  0.56407  0.00264  Biso   1.000  O
  O9       1.0000 0.44850  0.01440  0.33767  Biso   1.000  O
  O10      1.0000 0.55150  0.98560  0.66233  Biso   1.000  O
  N1       1.0000 0.34090  0.02980  0.28190  Biso   1.000  N
  N2       1.0000 0.65910  0.97020  0.71810  Biso   1.000  N
  C21      1.0000 0.33630  0.14000  0.27070  Biso   1.000  C
  C22      1.0000 0.66370  0.86000  0.72930  Biso   1.000  C
  C23      1.0000 0.38720  0.21940  0.37290  Biso   1.000  C
  C24      1.0000 0.61280  0.78060  0.62710  Biso   1.000  C
  H5       1.0000 0.48300  0.22680  0.40260  Biso   1.000  H
  H6       1.0000 0.51700  0.77320  0.59740  Biso   1.000  H
  H7       1.0000 0.33410  0.19350  0.41550  Biso   1.000  H
  H8       1.0000 0.66590  0.80650  0.58450  Biso   1.000  H
  H9       1.0000 0.37660  0.28800  0.36520  Biso   1.000  H
  H10      1.0000 0.62340  0.71200  0.63480  Biso   1.000  H
  C25      1.0000 0.43330  0.17130  0.20800  Biso   1.000  C
  C26      1.0000 0.56670  0.82870  0.79200  Biso   1.000  C
  H11      1.0000 0.52710  0.18310  0.24660  Biso   1.000  H
  H12      1.0000 0.47290  0.81690  0.75340  Biso   1.000  H
  H13      1.0000 0.42350  0.23600  0.18920  Biso   1.000  H
  H14      1.0000 0.57650  0.76400  0.81080  Biso   1.000  H
  H15      1.0000 0.41050  0.11440  0.14870  Biso   1.000  H
  H16      1.0000 0.58950  0.88560  0.85130  Biso   1.000  H
  C27      1.0000 0.18140  0.11690  0.21650  Biso   1.000  C
  C28      1.0000 0.81860  0.88310  0.78350  Biso   1.000  C
  C29      1.0000 0.09250  0.12730  0.28900  Biso   1.000  C
  C30      1.0000 0.90750  0.87270  0.71100  Biso   1.000  C
  H17      1.0000 0.99800  0.11420  0.25120  Biso   1.000  H
  H18      1.0000 0.00200  0.88580  0.74880  Biso   1.000  H
  H19      1.0000 0.12590  0.19860  0.33240  Biso   1.000  H
  H20      1.0000 0.87410  0.80140  0.66760  Biso   1.000  H
  H21      1.0000 0.09810  0.07570  0.32870  Biso   1.000  H
  H22      1.0000 0.90190  0.92430  0.67130  Biso   1.000  H
  C31      1.0000 0.14680  0.17560  0.13620  Biso   1.000  C
  C32      1.0000 0.85320  0.82440  0.86380  Biso   1.000  C
  H23      1.0000 0.04820  0.15550  0.10780  Biso   1.000  H
  H24      1.0000 0.95180  0.84450  0.89220  Biso   1.000  H
  H25      1.0000 0.18900  0.15690  0.08460  Biso   1.000  H
  H26      1.0000 0.81100  0.84310  0.91540  Biso   1.000  H
  H27      1.0000 0.18100  0.25180  0.16520  Biso   1.000  H
  H28      1.0000 0.81900  0.74820  0.83480  Biso   1.000  H
  N3       1.0000 0.14430  0.99900  0.16980  Biso   1.000  N
  N4       1.0000 0.85570  0.00100  0.83020  Biso   1.000  N
  O11      1.0000 0.03050  0.94820  0.10500  Biso   1.000  O
  O12      1.0000 0.96950  0.05180  0.89500  Biso   1.000  O
  C33      1.0000 0.23730  0.95360  0.21560  Biso   1.000  C
  C34      1.0000 0.76270  0.04640  0.78440  Biso   1.000  C
  C35      1.0000 0.22380  0.83980  0.19410  Biso   1.000  C
  C36      1.0000 0.77620  0.16020  0.80590  Biso   1.000  C
  C37      1.0000 0.11990  0.75730  0.12090  Biso   1.000  C
  C38      1.0000 0.88010  0.24270  0.87910  Biso   1.000  C
  H29      1.0000 0.04400  0.76730  0.07770  Biso   1.000  H
  H30      1.0000 0.95600  0.23270  0.92230  Biso   1.000  H
  N5       1.0000 0.14340  0.66280  0.12080  Biso   1.000  N
  N6       1.0000 0.85660  0.33720  0.87920  Biso   1.000  N
  N7       1.0000 0.26260  0.68420  0.19440  Biso   1.000  N
  N8       1.0000 0.73740  0.31580  0.80560  Biso   1.000  N
  C39      1.0000 0.31410  0.59410  0.21750  Biso   1.000  C
  C40      1.0000 0.68590  0.40590  0.78250  Biso   1.000  C
  H31      1.0000 0.23840  0.54060  0.22590  Biso   1.000  H
  H32      1.0000 0.76160  0.45940  0.77410  Biso   1.000  H
  H33      1.0000 0.33780  0.56130  0.15930  Biso   1.000  H
  H34      1.0000 0.66220  0.43870  0.84070  Biso   1.000  H
  C41      1.0000 0.42680  0.61590  0.30060  Biso   1.000  C
  C42      1.0000 0.57320  0.38410  0.69940  Biso   1.000  C
  H35      1.0000 0.40530  0.65080  0.35890  Biso   1.000  H
  H36      1.0000 0.59470  0.34920  0.64110  Biso   1.000  H
  H37      1.0000 0.50460  0.66650  0.29130  Biso   1.000  H
  H38      1.0000 0.49540  0.33350  0.70870  Biso   1.000  H
  C43      1.0000 0.47030  0.51880  0.32200  Biso   1.000  C
  C44      1.0000 0.52970  0.48120  0.67800  Biso   1.000  C
  H39      1.0000 0.39870  0.47440  0.34300  Biso   1.000  H
  H40      1.0000 0.60130  0.52560  0.65700  Biso   1.000  H
  H41      1.0000 0.47540  0.47680  0.26000  Biso   1.000  H
  H42      1.0000 0.52460  0.52320  0.74000  Biso   1.000  H
  C45      1.0000 0.59990  0.54160  0.39700  Biso   1.000  C
  C46      1.0000 0.40010  0.45840  0.60300  Biso   1.000  C
  H43      1.0000 0.61950  0.47540  0.40410  Biso   1.000  H
  H44      1.0000 0.38050  0.52460  0.59590  Biso   1.000  H
  H45      1.0000 0.59490  0.57970  0.46000  Biso   1.000  H
  H46      1.0000 0.40510  0.42030  0.54000  Biso   1.000  H
  H47      1.0000 0.67220  0.58510  0.37720  Biso   1.000  H
  H48      1.0000 0.32780  0.41490  0.62280  Biso   1.000  H
  C47      1.0000 0.31350  0.78880  0.23880  Biso   1.000  C
  C48      1.0000 0.68650  0.21120  0.76120  Biso   1.000  C
  H49      1.0000 0.39480  0.82150  0.29070  Biso   1.000  H
  H50      1.0000 0.60520  0.17850  0.70930  Biso   1.000  H
  C49      1.0000 0.41700  0.83180  0.02000  Biso   1.000  C
  C50      1.0000 0.58300  0.16820  0.98000  Biso   1.000  C
  H51      1.0000 0.31950  0.78640  0.00370  Biso   1.000  H
  H52      1.0000 0.68050  0.21360  0.99630  Biso   1.000  H
  H53      1.0000 0.46730  0.79480  0.98200  Biso   1.000  H
  H54      1.0000 0.53270  0.20520  0.01800  Biso   1.000  H
  H55      1.0000 0.46280  0.84620  0.09250  Biso   1.000  H
  H56      1.0000 0.53720  0.15380  0.90750  Biso   1.000  H
  C51      1.0000 0.45300  0.94300  0.00300  Biso   1.000  C
  C52      1.0000 0.54700  0.05700  0.99700  Biso   1.000  C
  C53      1.0000 0.31600  0.92200  0.94600  Biso   1.000  C
  C54      1.0000 0.68400  0.07800  0.05400  Biso   1.000  C
  H57      1.0000 0.22510  0.86740  0.93420  Biso   1.000  H
  H58      1.0000 0.77490  0.13260  0.06580  Biso   1.000  H
  C55      1.0000 0.34600  0.01900  0.91700  Biso   1.000  C
  C56      1.0000 0.65400  0.98100  0.08300  Biso   1.000  C
  H59      1.0000 0.25730  0.03030  0.88430  Biso   1.000  H
  H60      1.0000 0.74270  0.96970  0.11570  Biso   1.000  H
  C57      1.0000 0.46200  0.10700  0.93320  Biso   1.000  C
  C58      1.0000 0.53800  0.89300  0.06680  Biso   1.000  C
  H61      1.0000 0.46460  0.17010  0.90520  Biso   1.000  H
  H62      1.0000 0.53540  0.82990  0.09480  Biso   1.000  H
  C59      1.0000 0.57600  0.09080  0.99740  Biso   1.000  C
  C60      1.0000 0.42400  0.90920  0.00260  Biso   1.000  C
  H63      1.0000 0.66510  0.14750  0.01070  Biso   1.000  H
  H64      1.0000 0.33490  0.85250  0.98930  Biso   1.000  H
  C61      1.0000 0.57000  0.00230  0.04000  Biso   1.000  C
  C62      1.0000 0.43000  0.99770  0.96000  Biso   1.000  C
  C63      1.0000 0.71000  0.00500  0.10000  Biso   1.000  C
  C64      1.0000 0.29000  0.99500  0.90000  Biso   1.000  C
  H65      1.0000 0.78870  0.06720  0.10360  Biso   1.000  H
  H66      1.0000 0.21130  0.93280  0.89640  Biso   1.000  H
  H67      1.0000 0.70640  0.00010  0.16840  Biso   1.000  H
  H68      1.0000 0.29360  0.99990  0.83160  Biso   1.000  H
  H69      1.0000 0.72210  0.93940  0.06510  Biso   1.000  H
  H70      1.0000 0.27790  0.06060  0.93490  Biso   1.000  H
  F25      1.0000 0.95700  0.46540  0.32780  Biso   1.000  F
  F26      1.0000 0.04300  0.53460  0.67220  Biso   1.000  F
  F27      1.0000 0.92200  0.31500  0.23100  Biso   1.000  F
  F28      1.0000 0.07800  0.68500  0.76900  Biso   1.000  F
  F29      1.0000 0.76220  0.36200  0.25470  Biso   1.000  F
  F30      1.0000 0.23780  0.63800  0.74530  Biso   1.000  F
