data_image0
_cell_length_a       10.0757
_cell_length_b       13.044
_cell_length_c       13.736
_cell_angle_alpha    99.469
_cell_angle_beta     103.364
_cell_angle_gamma    105.094

_symmetry_space_group_name_H-M    "P 1"
_symmetry_int_tables_number       1

loop_
  _symmetry_equiv_pos_as_xyz
  'x, y, z'

loop_
  _atom_site_label
  _atom_site_occupancy
  _atom_site_fract_x
  _atom_site_fract_y
  _atom_site_fract_z
  _atom_site_thermal_displace_type
  _atom_site_B_iso_or_equiv
  _atom_site_type_symbol
  Cu1      1.0000 0.50000  0.00000  0.50000  Biso   1.000  Cu
  O1       1.0000 0.68348  0.16269  0.54678  Biso   1.000  O
  O2       1.0000 0.31652  0.83731  0.45322  Biso   1.000  O
  C1       1.0000 0.88930  0.29050  0.53749  Biso   1.000  C
  C2       1.0000 0.11070  0.70950  0.46251  Biso   1.000  C
  F1       1.0000 0.96669  0.32037  0.63694  Biso   1.000  F
  F2       1.0000 0.03331  0.67963  0.36306  Biso   1.000  F
  F3       1.0000 0.81461  0.36093  0.52332  Biso   1.000  F
  F4       1.0000 0.18539  0.63907  0.47668  Biso   1.000  F
  F5       1.0000 0.98154  0.30500  0.48137  Biso   1.000  F
  F6       1.0000 0.01846  0.69500  0.51863  Biso   1.000  F
  C3       1.0000 0.78740  0.17249  0.51175  Biso   1.000  C
  C4       1.0000 0.21260  0.82751  0.48825  Biso   1.000  C
  C5       1.0000 0.82490  0.08890  0.45493  Biso   1.000  C
  C6       1.0000 0.17510  0.91110  0.54507  Biso   1.000  C
  H1       1.0000 0.90300  0.10860  0.42680  Biso   1.000  H
  H2       1.0000 0.09700  0.89140  0.57320  Biso   1.000  H
  C7       1.0000 0.75100  0.97997  0.43953  Biso   1.000  C
  C8       1.0000 0.24900  0.02003  0.56047  Biso   1.000  C
  C9       1.0000 0.79940  0.89500  0.37696  Biso   1.000  C
  C10      1.0000 0.20060  0.10500  0.62304  Biso   1.000  C
  F7       1.0000 0.81670  0.81695  0.42651  Biso   1.000  F
  F8       1.0000 0.18330  0.18305  0.57349  Biso   1.000  F
  F9       1.0000 0.92285  0.93728  0.35593  Biso   1.000  F
  F10      1.0000 0.07715  0.06272  0.64407  Biso   1.000  F
  F11      1.0000 0.69962  0.84545  0.28652  Biso   1.000  F
  F12      1.0000 0.30038  0.15455  0.71348  Biso   1.000  F
  O3       1.0000 0.64504  0.93454  0.46968  Biso   1.000  O
  O4       1.0000 0.35496  0.06546  0.53032  Biso   1.000  O
  Cu2      1.0000 0.00000  0.50000  0.00000  Biso   1.000  Cu
  O5       1.0000 0.96860  0.42371  0.10928  Biso   1.000  O
  O6       1.0000 0.03140  0.57629  0.89072  Biso   1.000  O
  C11      1.0000 0.90080  0.38320  0.25330  Biso   1.000  C
  C12      1.0000 0.09920  0.61680  0.74670  Biso   1.000  C
  F13      1.0000 0.82380  0.40612  0.31582  Biso   1.000  F
  F14      1.0000 0.17620  0.59388  0.68418  Biso   1.000  F
  F15      1.0000 0.03693  0.41050  0.31001  Biso   1.000  F
  F16      1.0000 0.96307  0.58950  0.68999  Biso   1.000  F
  F17      1.0000 0.85596  0.27464  0.21726  Biso   1.000  F
  F18      1.0000 0.14404  0.72536  0.78274  Biso   1.000  F
  C13      1.0000 0.88890  0.44064  0.16425  Biso   1.000  C
  C14      1.0000 0.11110  0.55936  0.83575  Biso   1.000  C
  C15      1.0000 0.20380  0.49570  0.84545  Biso   1.000  C
  C16      1.0000 0.79620  0.50430  0.15455  Biso   1.000  C
  H3       1.0000 0.25690  0.48900  0.79720  Biso   1.000  H
  H4       1.0000 0.74310  0.51100  0.20280  Biso   1.000  H
  C17      1.0000 0.21910  0.44228  0.92532  Biso   1.000  C
  C18      1.0000 0.78090  0.55772  0.07468  Biso   1.000  C
  C19      1.0000 0.31780  0.36980  0.93038  Biso   1.000  C
  C20      1.0000 0.68220  0.63020  0.06962  Biso   1.000  C
  F19      1.0000 0.39586  0.37895  0.86355  Biso   1.000  F
  F20      1.0000 0.60414  0.62105  0.13645  Biso   1.000  F
  F21      1.0000 0.23952  0.26529  0.91016  Biso   1.000  F
  F22      1.0000 0.76048  0.73471  0.08984  Biso   1.000  F
  F23      1.0000 0.40951  0.39470  0.02477  Biso   1.000  F
  F24      1.0000 0.59049  0.60530  0.97523  Biso   1.000  F
  O7       1.0000 0.84094  0.55888  0.00398  Biso   1.000  O
  O8       1.0000 0.15906  0.44112  0.99602  Biso   1.000  O
  O9       1.0000 0.52567  0.98218  0.64457  Biso   1.000  O
  O10      1.0000 0.47433  0.01782  0.35543  Biso   1.000  O
  N1       1.0000 0.63600  0.96362  0.70198  Biso   1.000  N
  N2       1.0000 0.36400  0.03638  0.29802  Biso   1.000  N
  C21      1.0000 0.63110  0.85051  0.71545  Biso   1.000  C
  C22      1.0000 0.36890  0.14949  0.28455  Biso   1.000  C
  C23      1.0000 0.57660  0.76807  0.61148  Biso   1.000  C
  C24      1.0000 0.42340  0.23193  0.38852  Biso   1.000  C
  H5       1.0000 0.47550  0.76000  0.58000  Biso   1.000  H
  H6       1.0000 0.52450  0.24000  0.42000  Biso   1.000  H
  H7       1.0000 0.63340  0.79390  0.56630  Biso   1.000  H
  H8       1.0000 0.36660  0.20610  0.43370  Biso   1.000  H
  H9       1.0000 0.58570  0.69720  0.62130  Biso   1.000  H
  H10      1.0000 0.41430  0.30280  0.37870  Biso   1.000  H
  C25      1.0000 0.52480  0.82230  0.77880  Biso   1.000  C
  C26      1.0000 0.47520  0.17770  0.22120  Biso   1.000  C
  H11      1.0000 0.42710  0.81040  0.73610  Biso   1.000  H
  H12      1.0000 0.57290  0.18960  0.26390  Biso   1.000  H
  H13      1.0000 0.53030  0.75580  0.80150  Biso   1.000  H
  H14      1.0000 0.46970  0.24420  0.19850  Biso   1.000  H
  H15      1.0000 0.54930  0.88290  0.83920  Biso   1.000  H
  H16      1.0000 0.45070  0.11710  0.16080  Biso   1.000  H
  C27      1.0000 0.79010  0.87084  0.77409  Biso   1.000  C
  C28      1.0000 0.20990  0.12916  0.22591  Biso   1.000  C
  C29      1.0000 0.88490  0.85740  0.70350  Biso   1.000  C
  C30      1.0000 0.11510  0.14260  0.29650  Biso   1.000  C
  H17      1.0000 0.98370  0.87170  0.74550  Biso   1.000  H
  H18      1.0000 0.01630  0.12830  0.25450  Biso   1.000  H
  H19      1.0000 0.84880  0.78260  0.66040  Biso   1.000  H
  H20      1.0000 0.15120  0.21740  0.33960  Biso   1.000  H
  H21      1.0000 0.88300  0.90930  0.65950  Biso   1.000  H
  H22      1.0000 0.11700  0.09070  0.34050  Biso   1.000  H
  C31      1.0000 0.81560  0.80930  0.85890  Biso   1.000  C
  C32      1.0000 0.18440  0.19070  0.14110  Biso   1.000  C
  H23      1.0000 0.91900  0.82790  0.89140  Biso   1.000  H
  H24      1.0000 0.08100  0.17210  0.10860  Biso   1.000  H
  H25      1.0000 0.76900  0.83020  0.91080  Biso   1.000  H
  H26      1.0000 0.23100  0.16980  0.08920  Biso   1.000  H
  H27      1.0000 0.77530  0.73040  0.82880  Biso   1.000  H
  H28      1.0000 0.22470  0.26960  0.17120  Biso   1.000  H
  N3       1.0000 0.83560  0.99168  0.82283  Biso   1.000  N
  N4       1.0000 0.16440  0.00832  0.17717  Biso   1.000  N
  O11      1.0000 0.95120  0.04088  0.89370  Biso   1.000  O
  O12      1.0000 0.04880  0.95912  0.10630  Biso   1.000  O
  C33      1.0000 0.74500  0.04063  0.77268  Biso   1.000  C
  C34      1.0000 0.25500  0.95937  0.22732  Biso   1.000  C
  C35      1.0000 0.76540  0.15630  0.79660  Biso   1.000  C
  C36      1.0000 0.23460  0.84370  0.20340  Biso   1.000  C
  C37      1.0000 0.87880  0.23949  0.87052  Biso   1.000  C
  C38      1.0000 0.12120  0.76051  0.12948  Biso   1.000  C
  H29      1.0000 0.95900  0.22800  0.91410  Biso   1.000  H
  H30      1.0000 0.04100  0.77200  0.08590  Biso   1.000  H
  N5       1.0000 0.85920  0.33658  0.87141  Biso   1.000  N
  N6       1.0000 0.14080  0.66342  0.12859  Biso   1.000  N
  N7       1.0000 0.73290  0.31618  0.79744  Biso   1.000  N
  N8       1.0000 0.26710  0.68382  0.20256  Biso   1.000  N
  C39      1.0000 0.68440  0.40905  0.77560  Biso   1.000  C
  C40      1.0000 0.31560  0.59095  0.22440  Biso   1.000  C
  H31      1.0000 0.66370  0.44460  0.83730  Biso   1.000  H
  H32      1.0000 0.33630  0.55540  0.16270  Biso   1.000  H
  H33      1.0000 0.76330  0.46330  0.76250  Biso   1.000  H
  H34      1.0000 0.23670  0.53670  0.23750  Biso   1.000  H
  C41      1.0000 0.55320  0.37825  0.68499  Biso   1.000  C
  C42      1.0000 0.44680  0.62175  0.31501  Biso   1.000  C
  H35      1.0000 0.57280  0.34350  0.62240  Biso   1.000  H
  H36      1.0000 0.42720  0.65650  0.37760  Biso   1.000  H
  H37      1.0000 0.47280  0.32490  0.69750  Biso   1.000  H
  H38      1.0000 0.52720  0.67510  0.30250  Biso   1.000  H
  C43      1.0000 0.51170  0.48050  0.66860  Biso   1.000  C
  C44      1.0000 0.48830  0.51950  0.33140  Biso   1.000  C
  H39      1.0000 0.58920  0.53010  0.64980  Biso   1.000  H
  H40      1.0000 0.41080  0.46990  0.35020  Biso   1.000  H
  H41      1.0000 0.50410  0.51930  0.73430  Biso   1.000  H
  H42      1.0000 0.49590  0.48070  0.26570  Biso   1.000  H
  C45      1.0000 0.37070  0.45600  0.58520  Biso   1.000  C
  C46      1.0000 0.62930  0.54400  0.41480  Biso   1.000  C
  H43      1.0000 0.35120  0.52470  0.57830  Biso   1.000  H
  H44      1.0000 0.64880  0.47530  0.42170  Biso   1.000  H
  H45      1.0000 0.37770  0.41870  0.51940  Biso   1.000  H
  H46      1.0000 0.62230  0.58130  0.48060  Biso   1.000  H
  H47      1.0000 0.29260  0.40910  0.60420  Biso   1.000  H
  H48      1.0000 0.70740  0.59090  0.39580  Biso   1.000  H
  C47      1.0000 0.67310  0.20973  0.75150  Biso   1.000  C
  C48      1.0000 0.32690  0.79027  0.24850  Biso   1.000  C
  H49      1.0000 0.58500  0.17690  0.69850  Biso   1.000  H
  H50      1.0000 0.41500  0.82310  0.30150  Biso   1.000  H
  C49      1.0000 0.55170  0.17590  0.95980  Biso   1.000  C
  C50      1.0000 0.44830  0.82410  0.04020  Biso   1.000  C
  H51      1.0000 0.64930  0.22130  0.97570  Biso   1.000  H
  H52      1.0000 0.35070  0.77870  0.02430  Biso   1.000  H
  H53      1.0000 0.50150  0.21290  0.99750  Biso   1.000  H
  H54      1.0000 0.49850  0.78710  0.00250  Biso   1.000  H
  H55      1.0000 0.50600  0.16150  0.88700  Biso   1.000  H
  H56      1.0000 0.49400  0.83850  0.11300  Biso   1.000  H
  C51      1.0000 0.54640  0.06930  0.99000  Biso   1.000  C
  C52      1.0000 0.45360  0.93070  0.01000  Biso   1.000  C
  C53      1.0000 0.67270  0.05140  0.03970  Biso   1.000  C
  C54      1.0000 0.32730  0.94860  0.96030  Biso   1.000  C
  H57      1.0000 0.76310  0.10620  0.05160  Biso   1.000  H
  H58      1.0000 0.23690  0.89380  0.94840  Biso   1.000  H
  C55      1.0000 0.67290  0.95780  0.07600  Biso   1.000  C
  C56      1.0000 0.32710  0.04220  0.92400  Biso   1.000  C
  H59      1.0000 0.76140  0.94670  0.10920  Biso   1.000  H
  H60      1.0000 0.23860  0.05330  0.89080  Biso   1.000  H
  C57      1.0000 0.54020  0.87870  0.06120  Biso   1.000  C
  C58      1.0000 0.45980  0.12130  0.93880  Biso   1.000  C
  H61      1.0000 0.53760  0.81530  0.08920  Biso   1.000  H
  H62      1.0000 0.46240  0.18470  0.91080  Biso   1.000  H
  C59      1.0000 0.41530  0.89570  0.01000  Biso   1.000  C
  C60      1.0000 0.58470  0.10430  0.99000  Biso   1.000  C
  H63      1.0000 0.32600  0.83910  0.99660  Biso   1.000  H
  H64      1.0000 0.67400  0.16090  0.00340  Biso   1.000  H
  C61      1.0000 0.41440  0.98830  0.97280  Biso   1.000  C
  C62      1.0000 0.58560  0.01170  0.02720  Biso   1.000  C
  C63      1.0000 0.27620  0.00100  0.91570  Biso   1.000  C
  C64      1.0000 0.72380  0.99900  0.08430  Biso   1.000  C
  H65      1.0000 0.19730  0.93890  0.91180  Biso   1.000  H
  H66      1.0000 0.80270  0.06110  0.08820  Biso   1.000  H
  H67      1.0000 0.27960  0.00600  0.84710  Biso   1.000  H
  H68      1.0000 0.72040  0.99400  0.15290  Biso   1.000  H
  H69      1.0000 0.26380  0.06670  0.95040  Biso   1.000  H
  H70      1.0000 0.73620  0.93330  0.04960  Biso   1.000  H
