data_image0
_cell_length_a       10.2433
_cell_length_b       13.051
_cell_length_c       13.874
_cell_angle_alpha    99.494
_cell_angle_beta     103.534
_cell_angle_gamma    104.78

_symmetry_space_group_name_H-M    "P 1"
_symmetry_int_tables_number       1

loop_
  _symmetry_equiv_pos_as_xyz
  'x, y, z'

loop_
  _atom_site_label
  _atom_site_occupancy
  _atom_site_fract_x
  _atom_site_fract_y
  _atom_site_fract_z
  _atom_site_thermal_displace_type
  _atom_site_B_iso_or_equiv
  _atom_site_type_symbol
  Cu1      1.0000 0.50000  0.00000  0.50000  Biso   1.000  Cu
  O1       1.0000 0.66270  0.14981  0.53991  Biso   1.000  O
  O2       1.0000 0.33730  0.85019  0.46009  Biso   1.000  O
  C1       1.0000 0.86230  0.28070  0.53710  Biso   1.000  C
  C2       1.0000 0.13770  0.71930  0.46290  Biso   1.000  C
  F1       1.0000 0.93090  0.31090  0.63585  Biso   1.000  F
  F2       1.0000 0.06910  0.68910  0.36415  Biso   1.000  F
  F3       1.0000 0.78890  0.34797  0.51760  Biso   1.000  F
  F4       1.0000 0.21110  0.65203  0.48240  Biso   1.000  F
  F5       1.0000 0.95950  0.29892  0.48860  Biso   1.000  F
  F6       1.0000 0.04050  0.70108  0.51140  Biso   1.000  F
  C3       1.0000 0.76860  0.16310  0.50890  Biso   1.000  C
  C4       1.0000 0.23140  0.83690  0.49110  Biso   1.000  C
  C5       1.0000 0.81140  0.08350  0.45590  Biso   1.000  C
  C6       1.0000 0.18860  0.91650  0.54410  Biso   1.000  C
  H1       1.0000 0.89160  0.10570  0.43230  Biso   1.000  H
  H2       1.0000 0.10840  0.89430  0.56770  Biso   1.000  H
  C7       1.0000 0.74150  0.97390  0.43670  Biso   1.000  C
  C8       1.0000 0.25850  0.02610  0.56330  Biso   1.000  C
  C9       1.0000 0.79680  0.89310  0.37980  Biso   1.000  C
  C10      1.0000 0.20320  0.10690  0.62020  Biso   1.000  C
  F7       1.0000 0.81700  0.81870  0.43102  Biso   1.000  F
  F8       1.0000 0.18300  0.18130  0.56898  Biso   1.000  F
  F9       1.0000 0.91790  0.93755  0.36214  Biso   1.000  F
  F10      1.0000 0.08210  0.06245  0.63786  Biso   1.000  F
  F11      1.0000 0.70480  0.84051  0.28952  Biso   1.000  F
  F12      1.0000 0.29520  0.15949  0.71048  Biso   1.000  F
  O3       1.0000 0.63330  0.92778  0.46031  Biso   1.000  O
  O4       1.0000 0.36670  0.07222  0.53969  Biso   1.000  O
  Cu2      1.0000 0.00000  0.50000  0.00000  Biso   1.000  Cu
  O5       1.0000 0.96990  0.42726  0.11154  Biso   1.000  O
  O6       1.0000 0.03010  0.57274  0.88846  Biso   1.000  O
  C11      1.0000 0.89890  0.38910  0.25320  Biso   1.000  C
  C12      1.0000 0.10110  0.61090  0.74680  Biso   1.000  C
  F13      1.0000 0.86300  0.43760  0.32780  Biso   1.000  F
  F14      1.0000 0.13700  0.56240  0.67220  Biso   1.000  F
  F15      1.0000 0.03490  0.40130  0.30250  Biso   1.000  F
  F16      1.0000 0.96510  0.59870  0.69750  Biso   1.000  F
  F17      1.0000 0.84000  0.28620  0.22450  Biso   1.000  F
  F18      1.0000 0.16000  0.71380  0.77550  Biso   1.000  F
  C13      1.0000 0.89160  0.44530  0.16390  Biso   1.000  C
  C14      1.0000 0.10840  0.55470  0.83610  Biso   1.000  C
  C15      1.0000 0.80040  0.50790  0.15140  Biso   1.000  C
  C16      1.0000 0.19960  0.49210  0.84860  Biso   1.000  C
  H3       1.0000 0.74660  0.51480  0.19810  Biso   1.000  H
  H4       1.0000 0.25340  0.48520  0.80190  Biso   1.000  H
  C17      1.0000 0.78620  0.56050  0.07230  Biso   1.000  C
  C18      1.0000 0.21380  0.43950  0.92770  Biso   1.000  C
  C19      1.0000 0.68810  0.63210  0.06570  Biso   1.000  C
  C20      1.0000 0.31190  0.36790  0.93430  Biso   1.000  C
  F19      1.0000 0.60710  0.62054  0.12693  Biso   1.000  F
  F20      1.0000 0.39290  0.37946  0.87307  Biso   1.000  F
  F21      1.0000 0.76250  0.73531  0.08792  Biso   1.000  F
  F22      1.0000 0.23750  0.26469  0.91208  Biso   1.000  F
  F23      1.0000 0.60370  0.60990  0.97118  Biso   1.000  F
  F24      1.0000 0.39630  0.39010  0.02882  Biso   1.000  F
  O7       1.0000 0.84590  0.56115  0.00371  Biso   1.000  O
  O8       1.0000 0.15410  0.43885  0.99629  Biso   1.000  O
  O9       1.0000 0.53480  0.98216  0.65347  Biso   1.000  O
  O10      1.0000 0.46520  0.01784  0.34653  Biso   1.000  O
  N1       1.0000 0.64480  0.96541  0.71050  Biso   1.000  N
  N2       1.0000 0.35520  0.03459  0.28950  Biso   1.000  N
  C21      1.0000 0.64400  0.85280  0.72270  Biso   1.000  C
  C22      1.0000 0.35600  0.14720  0.27730  Biso   1.000  C
  C23      1.0000 0.59120  0.77260  0.61940  Biso   1.000  C
  C24      1.0000 0.40880  0.22740  0.38060  Biso   1.000  C
  H5       1.0000 0.49170  0.76460  0.58830  Biso   1.000  H
  H6       1.0000 0.50830  0.23540  0.41170  Biso   1.000  H
  H7       1.0000 0.64680  0.79960  0.57510  Biso   1.000  H
  H8       1.0000 0.35320  0.20040  0.42490  Biso   1.000  H
  H9       1.0000 0.60090  0.70160  0.62800  Biso   1.000  H
  H10      1.0000 0.39910  0.29840  0.37200  Biso   1.000  H
  C25      1.0000 0.54420  0.82260  0.78640  Biso   1.000  C
  C26      1.0000 0.45580  0.17740  0.21360  Biso   1.000  C
  H11      1.0000 0.44710  0.81050  0.74570  Biso   1.000  H
  H12      1.0000 0.55290  0.18950  0.25430  Biso   1.000  H
  H13      1.0000 0.55210  0.75580  0.80730  Biso   1.000  H
  H14      1.0000 0.44790  0.24420  0.19270  Biso   1.000  H
  H15      1.0000 0.56900  0.88210  0.84710  Biso   1.000  H
  H16      1.0000 0.43100  0.11790  0.15290  Biso   1.000  H
  C27      1.0000 0.80240  0.87570  0.77900  Biso   1.000  C
  C28      1.0000 0.19760  0.12430  0.22100  Biso   1.000  C
  C29      1.0000 0.89230  0.86420  0.70750  Biso   1.000  C
  C30      1.0000 0.10770  0.13580  0.29250  Biso   1.000  C
  H17      1.0000 0.99010  0.87800  0.74760  Biso   1.000  H
  H18      1.0000 0.00990  0.12200  0.25240  Biso   1.000  H
  H19      1.0000 0.85640  0.79010  0.66360  Biso   1.000  H
  H20      1.0000 0.14360  0.20990  0.33640  Biso   1.000  H
  H21      1.0000 0.88840  0.91710  0.66510  Biso   1.000  H
  H22      1.0000 0.11160  0.08290  0.33490  Biso   1.000  H
  C31      1.0000 0.83340  0.81490  0.86240  Biso   1.000  C
  C32      1.0000 0.16660  0.18510  0.13760  Biso   1.000  C
  H23      1.0000 0.93560  0.83480  0.89300  Biso   1.000  H
  H24      1.0000 0.06440  0.16520  0.10700  Biso   1.000  H
  H25      1.0000 0.78920  0.83480  0.91510  Biso   1.000  H
  H26      1.0000 0.21080  0.16520  0.08490  Biso   1.000  H
  H27      1.0000 0.79530  0.73610  0.83270  Biso   1.000  H
  H28      1.0000 0.20470  0.26390  0.16730  Biso   1.000  H
  N3       1.0000 0.84290  0.99510  0.82670  Biso   1.000  N
  N4       1.0000 0.15710  0.00490  0.17330  Biso   1.000  N
  O11      1.0000 0.95920  0.04591  0.89490  Biso   1.000  O
  O12      1.0000 0.04080  0.95409  0.10510  Biso   1.000  O
  C33      1.0000 0.75140  0.04220  0.77850  Biso   1.000  C
  C34      1.0000 0.24860  0.95780  0.22150  Biso   1.000  C
  C35      1.0000 0.76910  0.15770  0.80200  Biso   1.000  C
  C36      1.0000 0.23090  0.84230  0.19800  Biso   1.000  C
  C37      1.0000 0.87870  0.24090  0.87520  Biso   1.000  C
  C38      1.0000 0.12130  0.75910  0.12480  Biso   1.000  C
  H29      1.0000 0.95780  0.22990  0.91890  Biso   1.000  H
  H30      1.0000 0.04220  0.77010  0.08110  Biso   1.000  H
  N5       1.0000 0.85820  0.33707  0.87581  Biso   1.000  N
  N6       1.0000 0.14180  0.66293  0.12419  Biso   1.000  N
  N7       1.0000 0.73430  0.31622  0.80168  Biso   1.000  N
  N8       1.0000 0.26570  0.68378  0.19832  Biso   1.000  N
  C39      1.0000 0.68530  0.40780  0.77890  Biso   1.000  C
  C40      1.0000 0.31470  0.59220  0.22110  Biso   1.000  C
  H31      1.0000 0.66600  0.44400  0.84020  Biso   1.000  H
  H32      1.0000 0.33400  0.55600  0.15980  Biso   1.000  H
  H33      1.0000 0.76230  0.46140  0.76530  Biso   1.000  H
  H34      1.0000 0.23770  0.53860  0.23470  Biso   1.000  H
  C41      1.0000 0.55770  0.37870  0.69140  Biso   1.000  C
  C42      1.0000 0.44230  0.62130  0.30860  Biso   1.000  C
  H35      1.0000 0.57580  0.34260  0.62950  Biso   1.000  H
  H36      1.0000 0.42420  0.65740  0.37050  Biso   1.000  H
  H37      1.0000 0.47920  0.32640  0.70480  Biso   1.000  H
  H38      1.0000 0.52080  0.67360  0.29520  Biso   1.000  H
  C43      1.0000 0.51520  0.47870  0.67260  Biso   1.000  C
  C44      1.0000 0.48480  0.52130  0.32740  Biso   1.000  C
  H39      1.0000 0.59090  0.52750  0.65330  Biso   1.000  H
  H40      1.0000 0.40910  0.47250  0.34670  Biso   1.000  H
  H41      1.0000 0.50790  0.51880  0.73730  Biso   1.000  H
  H42      1.0000 0.49210  0.48120  0.26270  Biso   1.000  H
  C45      1.0000 0.37850  0.45460  0.59130  Biso   1.000  C
  C46      1.0000 0.62150  0.54540  0.40870  Biso   1.000  C
  H43      1.0000 0.35880  0.52300  0.58430  Biso   1.000  H
  H44      1.0000 0.64120  0.47700  0.41570  Biso   1.000  H
  H45      1.0000 0.38530  0.41710  0.52630  Biso   1.000  H
  H46      1.0000 0.61470  0.58290  0.47370  Biso   1.000  H
  H47      1.0000 0.30210  0.40780  0.61030  Biso   1.000  H
  H48      1.0000 0.69790  0.59220  0.38970  Biso   1.000  H
  C47      1.0000 0.67780  0.21010  0.75650  Biso   1.000  C
  C48      1.0000 0.32220  0.78990  0.24350  Biso   1.000  C
  H49      1.0000 0.59170  0.17680  0.70340  Biso   1.000  H
  H50      1.0000 0.40830  0.82320  0.29660  Biso   1.000  H
  C49      1.0000 0.55220  0.17380  0.96030  Biso   1.000  C
  C50      1.0000 0.44780  0.82620  0.03970  Biso   1.000  C
  H51      1.0000 0.64980  0.21920  0.97620  Biso   1.000  H
  H52      1.0000 0.35020  0.78080  0.02380  Biso   1.000  H
  H53      1.0000 0.50200  0.21080  0.99800  Biso   1.000  H
  H54      1.0000 0.49800  0.78920  0.00200  Biso   1.000  H
  H55      1.0000 0.50640  0.15940  0.88740  Biso   1.000  H
  H56      1.0000 0.49360  0.84060  0.11260  Biso   1.000  H
  C51      1.0000 0.54350  0.06850  0.98960  Biso   1.000  C
  C52      1.0000 0.45650  0.93150  0.01040  Biso   1.000  C
  C53      1.0000 0.66990  0.05410  0.04250  Biso   1.000  C
  C54      1.0000 0.33010  0.94590  0.95750  Biso   1.000  C
  H57      1.0000 0.76030  0.10880  0.05430  Biso   1.000  H
  H58      1.0000 0.23970  0.89120  0.94570  Biso   1.000  H
  C55      1.0000 0.67110  0.96080  0.07830  Biso   1.000  C
  C56      1.0000 0.32890  0.03920  0.92170  Biso   1.000  C
  H59      1.0000 0.75960  0.94970  0.11150  Biso   1.000  H
  H60      1.0000 0.24040  0.05030  0.88850  Biso   1.000  H
  C57      1.0000 0.54220  0.88310  0.06240  Biso   1.000  C
  C58      1.0000 0.45780  0.11690  0.93760  Biso   1.000  C
  H61      1.0000 0.53960  0.81970  0.09040  Biso   1.000  H
  H62      1.0000 0.46040  0.18030  0.90960  Biso   1.000  H
  C59      1.0000 0.41780  0.89540  0.00880  Biso   1.000  C
  C60      1.0000 0.58220  0.10460  0.99120  Biso   1.000  C
  H63      1.0000 0.32850  0.83870  0.99550  Biso   1.000  H
  H64      1.0000 0.67150  0.16130  0.00450  Biso   1.000  H
  C61      1.0000 0.41940  0.98890  0.97150  Biso   1.000  C
  C62      1.0000 0.58060  0.01110  0.02850  Biso   1.000  C
  C63      1.0000 0.28020  0.99170  0.91000  Biso   1.000  C
  C64      1.0000 0.71980  0.00830  0.09000  Biso   1.000  C
  H65      1.0000 0.20120  0.92960  0.90610  Biso   1.000  H
  H66      1.0000 0.79880  0.07040  0.09390  Biso   1.000  H
  H67      1.0000 0.28350  0.99670  0.84130  Biso   1.000  H
  H68      1.0000 0.71650  0.00330  0.15870  Biso   1.000  H
  H69      1.0000 0.26780  0.05740  0.94470  Biso   1.000  H
  H70      1.0000 0.73220  0.94260  0.05530  Biso   1.000  H
  F25      1.0000 0.98220  0.57540  0.68390  Biso   1.000  F
  F26      1.0000 0.01780  0.42460  0.31610  Biso   1.000  F
  F27      1.0000 0.87690  0.28600  0.22010  Biso   1.000  F
  F28      1.0000 0.12310  0.71400  0.77990  Biso   1.000  F
  F29      1.0000 0.79340  0.38900  0.29430  Biso   1.000  F
  F30      1.0000 0.20660  0.61100  0.70570  Biso   1.000  F
