data_image0
_cell_length_a       10.086
_cell_length_b       12.989
_cell_length_c       13.689
_cell_angle_alpha    99.323
_cell_angle_beta     103.599
_cell_angle_gamma    104.982

_symmetry_space_group_name_H-M    "P 1"
_symmetry_int_tables_number       1

loop_
  _symmetry_equiv_pos_as_xyz
  'x, y, z'

loop_
  _atom_site_label
  _atom_site_occupancy
  _atom_site_fract_x
  _atom_site_fract_y
  _atom_site_fract_z
  _atom_site_thermal_displace_type
  _atom_site_B_iso_or_equiv
  _atom_site_type_symbol
  Cu1      1.0000 0.50000  0.00000  0.50000  Biso   1.000  Cu
  O1       1.0000 0.68028  0.16128  0.54601  Biso   1.000  O
  O2       1.0000 0.31972  0.83872  0.45399  Biso   1.000  O
  C1       1.0000 0.88470  0.28920  0.53800  Biso   1.000  C
  C2       1.0000 0.11530  0.71080  0.46200  Biso   1.000  C
  F1       1.0000 0.96000  0.31893  0.63755  Biso   1.000  F
  F2       1.0000 0.04000  0.68107  0.36245  Biso   1.000  F
  F3       1.0000 0.81064  0.35904  0.52261  Biso   1.000  F
  F4       1.0000 0.18936  0.64096  0.47739  Biso   1.000  F
  F5       1.0000 0.97734  0.30428  0.48398  Biso   1.000  F
  F6       1.0000 0.02266  0.69572  0.51602  Biso   1.000  F
  C3       1.0000 0.78410  0.17130  0.51196  Biso   1.000  C
  C4       1.0000 0.21590  0.82870  0.48804  Biso   1.000  C
  C5       1.0000 0.82180  0.08850  0.45620  Biso   1.000  C
  C6       1.0000 0.17820  0.91150  0.54380  Biso   1.000  C
  H1       1.0000 0.90060  0.10880  0.42890  Biso   1.000  H
  H2       1.0000 0.09940  0.89120  0.57110  Biso   1.000  H
  C7       1.0000 0.74950  0.97970  0.43970  Biso   1.000  C
  C8       1.0000 0.25050  0.02030  0.56030  Biso   1.000  C
  C9       1.0000 0.79830  0.89570  0.37819  Biso   1.000  C
  C10      1.0000 0.20170  0.10430  0.62181  Biso   1.000  C
  F7       1.0000 0.81629  0.81819  0.42795  Biso   1.000  F
  F8       1.0000 0.18371  0.18181  0.57205  Biso   1.000  F
  F9       1.0000 0.92115  0.93848  0.35809  Biso   1.000  F
  F10      1.0000 0.07885  0.06152  0.64191  Biso   1.000  F
  F11      1.0000 0.69997  0.84557  0.28735  Biso   1.000  F
  F12      1.0000 0.30003  0.15443  0.71265  Biso   1.000  F
  O3       1.0000 0.64286  0.93397  0.46856  Biso   1.000  O
  O4       1.0000 0.35714  0.06603  0.53144  Biso   1.000  O
  Cu2      1.0000 0.00000  0.50000  0.00000  Biso   1.000  Cu
  O5       1.0000 0.96922  0.42441  0.10981  Biso   1.000  O
  O6       1.0000 0.03078  0.57559  0.89019  Biso   1.000  O
  C11      1.0000 0.90070  0.38380  0.25300  Biso   1.000  C
  C12      1.0000 0.09930  0.61620  0.74700  Biso   1.000  C
  F13      1.0000 0.82570  0.40718  0.31477  Biso   1.000  F
  F14      1.0000 0.17430  0.59282  0.68523  Biso   1.000  F
  F15      1.0000 0.03536  0.40971  0.30986  Biso   1.000  F
  F16      1.0000 0.96464  0.59029  0.69014  Biso   1.000  F
  F17      1.0000 0.85630  0.27607  0.21747  Biso   1.000  F
  F18      1.0000 0.14370  0.72393  0.78253  Biso   1.000  F
  C13      1.0000 0.88970  0.44121  0.16395  Biso   1.000  C
  C14      1.0000 0.11030  0.55879  0.83605  Biso   1.000  C
  C15      1.0000 0.79710  0.50430  0.15304  Biso   1.000  C
  C16      1.0000 0.20290  0.49570  0.84696  Biso   1.000  C
  H3       1.0000 0.74290  0.51040  0.20070  Biso   1.000  H
  H4       1.0000 0.25710  0.48960  0.79930  Biso   1.000  H
  C17      1.0000 0.78270  0.55825  0.07403  Biso   1.000  C
  C18      1.0000 0.21730  0.44175  0.92597  Biso   1.000  C
  C19      1.0000 0.68450  0.63030  0.06840  Biso   1.000  C
  C20      1.0000 0.31550  0.36970  0.93160  Biso   1.000  C
  F19      1.0000 0.60551  0.62012  0.13352  Biso   1.000  F
  F20      1.0000 0.39449  0.37988  0.86648  Biso   1.000  F
  F21      1.0000 0.76161  0.73466  0.09043  Biso   1.000  F
  F22      1.0000 0.23839  0.26534  0.90957  Biso   1.000  F
  F23      1.0000 0.59523  0.60734  0.97383  Biso   1.000  F
  F24      1.0000 0.40477  0.39266  0.02617  Biso   1.000  F
  O7       1.0000 0.84255  0.55957  0.00373  Biso   1.000  O
  O8       1.0000 0.15745  0.44043  0.99627  Biso   1.000  O
  O9       1.0000 0.52707  0.98234  0.64563  Biso   1.000  O
  O10      1.0000 0.47293  0.01766  0.35437  Biso   1.000  O
  N1       1.0000 0.63740  0.96336  0.70302  Biso   1.000  N
  N2       1.0000 0.36260  0.03664  0.29698  Biso   1.000  N
  C21      1.0000 0.63330  0.85083  0.71618  Biso   1.000  C
  C22      1.0000 0.36670  0.14917  0.28382  Biso   1.000  C
  C23      1.0000 0.57980  0.76931  0.61280  Biso   1.000  C
  C24      1.0000 0.42020  0.23069  0.38720  Biso   1.000  C
  H5       1.0000 0.47870  0.76100  0.58100  Biso   1.000  H
  H6       1.0000 0.52130  0.23900  0.41900  Biso   1.000  H
  H7       1.0000 0.63650  0.79570  0.56760  Biso   1.000  H
  H8       1.0000 0.36350  0.20430  0.43240  Biso   1.000  H
  H9       1.0000 0.58960  0.69830  0.62270  Biso   1.000  H
  H10      1.0000 0.41040  0.30170  0.37730  Biso   1.000  H
  C25      1.0000 0.52940  0.82240  0.78020  Biso   1.000  C
  C26      1.0000 0.47060  0.17760  0.21980  Biso   1.000  C
  H11      1.0000 0.43130  0.81030  0.73790  Biso   1.000  H
  H12      1.0000 0.56870  0.18970  0.26210  Biso   1.000  H
  H13      1.0000 0.53590  0.75560  0.80280  Biso   1.000  H
  H14      1.0000 0.46410  0.24440  0.19720  Biso   1.000  H
  H15      1.0000 0.55450  0.88300  0.84080  Biso   1.000  H
  H16      1.0000 0.44550  0.11700  0.15920  Biso   1.000  H
  C27      1.0000 0.79210  0.87177  0.77504  Biso   1.000  C
  C28      1.0000 0.20790  0.12823  0.22496  Biso   1.000  C
  C29      1.0000 0.88590  0.85890  0.70430  Biso   1.000  C
  C30      1.0000 0.11410  0.14110  0.29570  Biso   1.000  C
  H17      1.0000 0.98480  0.87320  0.74620  Biso   1.000  H
  H18      1.0000 0.01520  0.12680  0.25380  Biso   1.000  H
  H19      1.0000 0.84980  0.78410  0.66080  Biso   1.000  H
  H20      1.0000 0.15020  0.21590  0.33920  Biso   1.000  H
  H21      1.0000 0.88330  0.91130  0.66020  Biso   1.000  H
  H22      1.0000 0.11670  0.08870  0.33980  Biso   1.000  H
  C31      1.0000 0.81890  0.81020  0.85920  Biso   1.000  C
  C32      1.0000 0.18110  0.18980  0.14080  Biso   1.000  C
  H23      1.0000 0.92230  0.82900  0.89160  Biso   1.000  H
  H24      1.0000 0.07770  0.17100  0.10840  Biso   1.000  H
  H25      1.0000 0.77280  0.83070  0.91160  Biso   1.000  H
  H26      1.0000 0.22720  0.16930  0.08840  Biso   1.000  H
  H27      1.0000 0.77880  0.73110  0.82890  Biso   1.000  H
  H28      1.0000 0.22120  0.26890  0.17110  Biso   1.000  H
  N3       1.0000 0.83590  0.99224  0.82334  Biso   1.000  N
  N4       1.0000 0.16410  0.00776  0.17666  Biso   1.000  N
  O11      1.0000 0.95230  0.04215  0.89428  Biso   1.000  O
  O12      1.0000 0.04770  0.95785  0.10572  Biso   1.000  O
  C33      1.0000 0.74600  0.04103  0.77367  Biso   1.000  C
  C34      1.0000 0.25400  0.95897  0.22633  Biso   1.000  C
  C35      1.0000 0.76520  0.15623  0.79745  Biso   1.000  C
  C36      1.0000 0.23480  0.84377  0.20255  Biso   1.000  C
  C37      1.0000 0.87820  0.23982  0.87162  Biso   1.000  C
  C38      1.0000 0.12180  0.76018  0.12838  Biso   1.000  C
  H29      1.0000 0.95840  0.22840  0.91570  Biso   1.000  H
  H30      1.0000 0.04160  0.77160  0.08430  Biso   1.000  H
  N5       1.0000 0.85830  0.33619  0.87213  Biso   1.000  N
  N6       1.0000 0.14170  0.66381  0.12787  Biso   1.000  N
  N7       1.0000 0.73240  0.31592  0.79800  Biso   1.000  N
  N8       1.0000 0.26760  0.68408  0.20200  Biso   1.000  N
  C39      1.0000 0.68430  0.40830  0.77530  Biso   1.000  C
  C40      1.0000 0.31570  0.59170  0.22470  Biso   1.000  C
  H31      1.0000 0.66580  0.44530  0.83760  Biso   1.000  H
  H32      1.0000 0.33420  0.55470  0.16240  Biso   1.000  H
  H33      1.0000 0.76260  0.46170  0.76070  Biso   1.000  H
  H34      1.0000 0.23740  0.53830  0.23930  Biso   1.000  H
  C41      1.0000 0.55230  0.37793  0.68614  Biso   1.000  C
  C42      1.0000 0.44770  0.62207  0.31386  Biso   1.000  C
  H35      1.0000 0.56960  0.34180  0.62300  Biso   1.000  H
  H36      1.0000 0.43040  0.65820  0.37700  Biso   1.000  H
  H37      1.0000 0.47250  0.32540  0.70010  Biso   1.000  H
  H38      1.0000 0.52750  0.67460  0.29990  Biso   1.000  H
  C43      1.0000 0.51130  0.47940  0.66900  Biso   1.000  C
  C44      1.0000 0.48870  0.52060  0.33100  Biso   1.000  C
  H39      1.0000 0.58830  0.52830  0.64920  Biso   1.000  H
  H40      1.0000 0.41170  0.47170  0.35080  Biso   1.000  H
  H41      1.0000 0.50510  0.51920  0.73500  Biso   1.000  H
  H42      1.0000 0.49490  0.48080  0.26500  Biso   1.000  H
  C45      1.0000 0.37090  0.45530  0.58670  Biso   1.000  C
  C46      1.0000 0.62910  0.54470  0.41330  Biso   1.000  C
  H43      1.0000 0.35130  0.52430  0.57980  Biso   1.000  H
  H44      1.0000 0.64870  0.47570  0.42020  Biso   1.000  H
  H45      1.0000 0.37670  0.41760  0.52060  Biso   1.000  H
  H46      1.0000 0.62330  0.58240  0.47940  Biso   1.000  H
  H47      1.0000 0.29340  0.40840  0.60640  Biso   1.000  H
  H48      1.0000 0.70660  0.59160  0.39360  Biso   1.000  H
  C47      1.0000 0.67330  0.20961  0.75262  Biso   1.000  C
  C48      1.0000 0.32670  0.79039  0.24738  Biso   1.000  C
  H49      1.0000 0.58490  0.17660  0.69960  Biso   1.000  H
  H50      1.0000 0.41510  0.82340  0.30040  Biso   1.000  H
  C49      1.0000 0.55350  0.17670  0.95970  Biso   1.000  C
  C50      1.0000 0.44650  0.82330  0.04030  Biso   1.000  C
  H51      1.0000 0.65100  0.22220  0.97550  Biso   1.000  H
  H52      1.0000 0.34900  0.77780  0.02450  Biso   1.000  H
  H53      1.0000 0.50330  0.21380  0.99730  Biso   1.000  H
  H54      1.0000 0.49670  0.78620  0.00270  Biso   1.000  H
  H55      1.0000 0.50770  0.16230  0.88680  Biso   1.000  H
  H56      1.0000 0.49230  0.83770  0.11320  Biso   1.000  H
  C51      1.0000 0.54530  0.06870  0.98910  Biso   1.000  C
  C52      1.0000 0.45470  0.93130  0.01090  Biso   1.000  C
  C53      1.0000 0.67200  0.05140  0.04010  Biso   1.000  C
  C54      1.0000 0.32800  0.94860  0.95990  Biso   1.000  C
  H57      1.0000 0.76240  0.10610  0.05190  Biso   1.000  H
  H58      1.0000 0.23760  0.89390  0.94810  Biso   1.000  H
  C55      1.0000 0.67120  0.95780  0.07650  Biso   1.000  C
  C56      1.0000 0.32880  0.04220  0.92350  Biso   1.000  C
  H59      1.0000 0.75970  0.94670  0.10970  Biso   1.000  H
  H60      1.0000 0.24030  0.05330  0.89030  Biso   1.000  H
  C57      1.0000 0.54030  0.87870  0.06130  Biso   1.000  C
  C58      1.0000 0.45970  0.12130  0.93870  Biso   1.000  C
  H61      1.0000 0.53770  0.81530  0.08930  Biso   1.000  H
  H62      1.0000 0.46230  0.18470  0.91070  Biso   1.000  H
  C59      1.0000 0.41410  0.89420  0.00860  Biso   1.000  C
  C60      1.0000 0.58590  0.10580  0.99140  Biso   1.000  C
  H63      1.0000 0.32490  0.83760  0.99520  Biso   1.000  H
  H64      1.0000 0.67510  0.16240  0.00480  Biso   1.000  H
  C61      1.0000 0.41610  0.98870  0.97280  Biso   1.000  C
  C62      1.0000 0.58390  0.01130  0.02720  Biso   1.000  C
  C63      1.0000 0.27750  0.00150  0.91560  Biso   1.000  C
  C64      1.0000 0.72250  0.99850  0.08440  Biso   1.000  C
  H65      1.0000 0.19850  0.93940  0.91180  Biso   1.000  H
  H66      1.0000 0.80150  0.06060  0.08820  Biso   1.000  H
  H67      1.0000 0.28080  0.00650  0.84700  Biso   1.000  H
  H68      1.0000 0.71920  0.99350  0.15300  Biso   1.000  H
  H69      1.0000 0.26510  0.06720  0.95040  Biso   1.000  H
  H70      1.0000 0.73490  0.93280  0.04960  Biso   1.000  H
