data_image0
_cell_length_a       16.805
_cell_length_b       10.373
_cell_length_c       9.274
_cell_angle_alpha    90
_cell_angle_beta     95.526
_cell_angle_gamma    90

_symmetry_space_group_name_H-M    "P 1"
_symmetry_int_tables_number       1

loop_
  _symmetry_equiv_pos_as_xyz
  'x, y, z'

loop_
  _atom_site_label
  _atom_site_occupancy
  _atom_site_fract_x
  _atom_site_fract_y
  _atom_site_fract_z
  _atom_site_thermal_displace_type
  _atom_site_B_iso_or_equiv
  _atom_site_type_symbol
  Cu1      1.0000 0.00000  0.35343  0.25000  Biso   1.000  Cu
  Cu2      1.0000 0.50000  0.85343  0.25000  Biso   1.000  Cu
  Cu3      1.0000 0.00000  0.64657  0.75000  Biso   1.000  Cu
  Cu4      1.0000 0.50000  0.14657  0.75000  Biso   1.000  Cu
  O1       1.0000 0.06352  0.48905  0.36079  Biso   1.000  O
  O2       1.0000 0.93648  0.48905  0.13921  Biso   1.000  O
  O3       1.0000 0.56352  0.98905  0.36079  Biso   1.000  O
  O4       1.0000 0.43648  0.98905  0.13921  Biso   1.000  O
  O5       1.0000 0.93648  0.51095  0.63921  Biso   1.000  O
  O6       1.0000 0.06352  0.51095  0.86079  Biso   1.000  O
  O7       1.0000 0.43648  0.01095  0.63921  Biso   1.000  O
  O8       1.0000 0.56352  0.01095  0.86079  Biso   1.000  O
  O9       1.0000 0.07088  0.61770  0.55315  Biso   1.000  O
  O10      1.0000 0.92912  0.61770  0.94685  Biso   1.000  O
  O11      1.0000 0.57088  0.11770  0.55315  Biso   1.000  O
  O12      1.0000 0.42912  0.11770  0.94685  Biso   1.000  O
  O13      1.0000 0.92912  0.38230  0.44685  Biso   1.000  O
  O14      1.0000 0.07088  0.38230  0.05315  Biso   1.000  O
  O15      1.0000 0.42912  0.88230  0.44685  Biso   1.000  O
  O16      1.0000 0.57088  0.88230  0.05315  Biso   1.000  O
  N1       1.0000 0.06190  0.20778  0.34930  Biso   1.000  N
  N2       1.0000 0.93810  0.20778  0.15070  Biso   1.000  N
  N3       1.0000 0.56190  0.70778  0.34930  Biso   1.000  N
  N4       1.0000 0.43810  0.70778  0.15070  Biso   1.000  N
  N5       1.0000 0.93810  0.79222  0.65070  Biso   1.000  N
  N6       1.0000 0.06190  0.79222  0.84930  Biso   1.000  N
  N7       1.0000 0.43810  0.29222  0.65070  Biso   1.000  N
  N8       1.0000 0.56190  0.29222  0.84930  Biso   1.000  N
  C1       1.0000 0.12300  0.21203  0.45136  Biso   1.000  C
  C2       1.0000 0.87700  0.21203  0.04864  Biso   1.000  C
  C3       1.0000 0.62300  0.71203  0.45136  Biso   1.000  C
  C4       1.0000 0.37700  0.71203  0.04864  Biso   1.000  C
  C5       1.0000 0.87700  0.78797  0.54864  Biso   1.000  C
  C6       1.0000 0.12300  0.78797  0.95136  Biso   1.000  C
  C7       1.0000 0.37700  0.28797  0.54864  Biso   1.000  C
  C8       1.0000 0.62300  0.28797  0.95136  Biso   1.000  C
  H1       1.0000 0.14340  0.29360  0.48340  Biso   1.000  H
  H2       1.0000 0.85660  0.29360  0.01660  Biso   1.000  H
  H3       1.0000 0.64340  0.79360  0.48340  Biso   1.000  H
  H4       1.0000 0.35660  0.79360  0.01660  Biso   1.000  H
  H5       1.0000 0.85660  0.70640  0.51660  Biso   1.000  H
  H6       1.0000 0.14340  0.70640  0.98340  Biso   1.000  H
  H7       1.0000 0.35660  0.20640  0.51660  Biso   1.000  H
  H8       1.0000 0.64340  0.20640  0.98340  Biso   1.000  H
  C9       1.0000 0.15813  0.10070  0.51290  Biso   1.000  C
  C10      1.0000 0.84187  0.10070  0.98710  Biso   1.000  C
  C11      1.0000 0.65813  0.60070  0.51290  Biso   1.000  C
  C12      1.0000 0.34187  0.60070  0.98710  Biso   1.000  C
  C13      1.0000 0.84187  0.89930  0.48710  Biso   1.000  C
  C14      1.0000 0.15813  0.89930  0.01290  Biso   1.000  C
  C15      1.0000 0.34187  0.39930  0.48710  Biso   1.000  C
  C16      1.0000 0.65813  0.39930  0.01290  Biso   1.000  C
  H9       1.0000 0.20140  0.10690  0.58640  Biso   1.000  H
  H10      1.0000 0.79860  0.10690  0.91360  Biso   1.000  H
  H11      1.0000 0.70140  0.60690  0.58640  Biso   1.000  H
  H12      1.0000 0.29860  0.60690  0.91360  Biso   1.000  H
  H13      1.0000 0.79860  0.89310  0.41360  Biso   1.000  H
  H14      1.0000 0.20140  0.89310  0.08640  Biso   1.000  H
  H15      1.0000 0.29860  0.39310  0.41360  Biso   1.000  H
  H16      1.0000 0.70140  0.39310  0.08640  Biso   1.000  H
  C17      1.0000 0.13006  0.98310  0.46730  Biso   1.000  C
  C18      1.0000 0.86994  0.98310  0.03270  Biso   1.000  C
  C19      1.0000 0.63006  0.48310  0.46730  Biso   1.000  C
  C20      1.0000 0.36994  0.48310  0.03270  Biso   1.000  C
  C21      1.0000 0.86994  0.01690  0.53270  Biso   1.000  C
  C22      1.0000 0.13006  0.01690  0.96730  Biso   1.000  C
  C23      1.0000 0.36994  0.51690  0.53270  Biso   1.000  C
  C24      1.0000 0.63006  0.51690  0.96730  Biso   1.000  C
  H17      1.0000 0.15400  0.90690  0.50840  Biso   1.000  H
  H18      1.0000 0.84600  0.90690  0.99160  Biso   1.000  H
  H19      1.0000 0.65400  0.40690  0.50840  Biso   1.000  H
  H20      1.0000 0.34600  0.40690  0.99160  Biso   1.000  H
  H21      1.0000 0.84600  0.09310  0.49160  Biso   1.000  H
  H22      1.0000 0.15400  0.09310  0.00840  Biso   1.000  H
  H23      1.0000 0.34600  0.59310  0.49160  Biso   1.000  H
  H24      1.0000 0.65400  0.59310  0.00840  Biso   1.000  H
  C25      1.0000 0.06530  0.97453  0.35873  Biso   1.000  C
  C26      1.0000 0.93470  0.97453  0.14127  Biso   1.000  C
  C27      1.0000 0.56530  0.47453  0.35873  Biso   1.000  C
  C28      1.0000 0.43470  0.47453  0.14127  Biso   1.000  C
  C29      1.0000 0.93470  0.02547  0.64127  Biso   1.000  C
  C30      1.0000 0.06530  0.02547  0.85873  Biso   1.000  C
  C31      1.0000 0.43470  0.52547  0.64127  Biso   1.000  C
  C32      1.0000 0.56530  0.52547  0.85873  Biso   1.000  C
  C33      1.0000 0.03353  0.09118  0.30419  Biso   1.000  C
  C34      1.0000 0.96647  0.09118  0.19581  Biso   1.000  C
  C35      1.0000 0.53353  0.59118  0.30419  Biso   1.000  C
  C36      1.0000 0.46647  0.59118  0.19581  Biso   1.000  C
  C37      1.0000 0.96647  0.90882  0.69581  Biso   1.000  C
  C38      1.0000 0.03353  0.90882  0.80419  Biso   1.000  C
  C39      1.0000 0.46647  0.40882  0.69581  Biso   1.000  C
  C40      1.0000 0.53353  0.40882  0.80419  Biso   1.000  C
  C41      1.0000 0.03126  0.85700  0.30200  Biso   1.000  C
  C42      1.0000 0.96874  0.85700  0.19800  Biso   1.000  C
  C43      1.0000 0.53126  0.35700  0.30200  Biso   1.000  C
  C44      1.0000 0.46874  0.35700  0.19800  Biso   1.000  C
  C45      1.0000 0.96874  0.14300  0.69800  Biso   1.000  C
  C46      1.0000 0.03126  0.14300  0.80200  Biso   1.000  C
  C47      1.0000 0.46874  0.64300  0.69800  Biso   1.000  C
  C48      1.0000 0.53126  0.64300  0.80200  Biso   1.000  C
  H25      1.0000 0.05280  0.77720  0.33770  Biso   1.000  H
  H26      1.0000 0.94720  0.77720  0.16230  Biso   1.000  H
  H27      1.0000 0.55280  0.27720  0.33770  Biso   1.000  H
  H28      1.0000 0.44720  0.27720  0.16230  Biso   1.000  H
  H29      1.0000 0.94720  0.22280  0.66230  Biso   1.000  H
  H30      1.0000 0.05280  0.22280  0.83770  Biso   1.000  H
  H31      1.0000 0.44720  0.72280  0.66230  Biso   1.000  H
  H32      1.0000 0.55280  0.72280  0.83770  Biso   1.000  H
  C49      1.0000 0.03891  0.53119  0.47628  Biso   1.000  C
  C50      1.0000 0.96109  0.53119  0.02372  Biso   1.000  C
  C51      1.0000 0.53891  0.03119  0.47628  Biso   1.000  C
  C52      1.0000 0.46109  0.03119  0.02372  Biso   1.000  C
  C53      1.0000 0.96109  0.46881  0.52372  Biso   1.000  C
  C54      1.0000 0.03891  0.46881  0.97628  Biso   1.000  C
  C55      1.0000 0.46109  0.96881  0.52372  Biso   1.000  C
  C56      1.0000 0.53891  0.96881  0.97628  Biso   1.000  C
  O17      1.0000 0.29712  0.09786  0.25104  Biso   1.000  O
  O18      1.0000 0.70288  0.09786  0.24896  Biso   1.000  O
  O19      1.0000 0.79712  0.59786  0.25104  Biso   1.000  O
  O20      1.0000 0.20288  0.59786  0.24896  Biso   1.000  O
  O21      1.0000 0.70288  0.90214  0.74896  Biso   1.000  O
  O22      1.0000 0.29712  0.90214  0.75104  Biso   1.000  O
  O23      1.0000 0.20288  0.40214  0.74896  Biso   1.000  O
  O24      1.0000 0.79712  0.40214  0.75104  Biso   1.000  O
  H33      1.0000 0.28070  0.04300  0.26900  Biso   1.000  H
  H34      1.0000 0.71930  0.04300  0.23100  Biso   1.000  H
  H35      1.0000 0.78070  0.54300  0.26900  Biso   1.000  H
  H36      1.0000 0.21930  0.54300  0.23100  Biso   1.000  H
  H37      1.0000 0.71930  0.95700  0.73100  Biso   1.000  H
  H38      1.0000 0.28070  0.95700  0.76900  Biso   1.000  H
  H39      1.0000 0.21930  0.45700  0.73100  Biso   1.000  H
  H40      1.0000 0.78070  0.45700  0.76900  Biso   1.000  H
  H41      1.0000 0.33680  0.07000  0.20600  Biso   1.000  H
  H42      1.0000 0.66320  0.07000  0.29400  Biso   1.000  H
  H43      1.0000 0.83680  0.57000  0.20600  Biso   1.000  H
  H44      1.0000 0.16320  0.57000  0.29400  Biso   1.000  H
  H45      1.0000 0.66320  0.93000  0.79400  Biso   1.000  H
  H46      1.0000 0.33680  0.93000  0.70600  Biso   1.000  H
  H47      1.0000 0.16320  0.43000  0.79400  Biso   1.000  H
  H48      1.0000 0.83680  0.43000  0.70600  Biso   1.000  H
  O25      1.0000 0.23115  0.33653  0.16870  Biso   1.000  O
  O26      1.0000 0.76885  0.33653  0.33130  Biso   1.000  O
  O27      1.0000 0.73115  0.83653  0.16870  Biso   1.000  O
  O28      1.0000 0.26885  0.83653  0.33130  Biso   1.000  O
  O29      1.0000 0.76885  0.66347  0.83130  Biso   1.000  O
  O30      1.0000 0.23115  0.66347  0.66870  Biso   1.000  O
  O31      1.0000 0.26885  0.16347  0.83130  Biso   1.000  O
  O32      1.0000 0.73115  0.16347  0.66870  Biso   1.000  O
  H49      1.0000 0.24740  0.27300  0.18400  Biso   1.000  H
  H50      1.0000 0.75260  0.27300  0.31600  Biso   1.000  H
  H51      1.0000 0.74740  0.77300  0.18400  Biso   1.000  H
  H52      1.0000 0.25260  0.77300  0.31600  Biso   1.000  H
  H53      1.0000 0.75260  0.72700  0.81600  Biso   1.000  H
  H54      1.0000 0.24740  0.72700  0.68400  Biso   1.000  H
  H55      1.0000 0.25260  0.22700  0.81600  Biso   1.000  H
  H56      1.0000 0.74740  0.22700  0.68400  Biso   1.000  H
  H57      1.0000 0.19380  0.33900  0.11200  Biso   1.000  H
  H58      1.0000 0.80620  0.33900  0.38800  Biso   1.000  H
  H59      1.0000 0.69380  0.83900  0.11200  Biso   1.000  H
  H60      1.0000 0.30620  0.83900  0.38800  Biso   1.000  H
  H61      1.0000 0.80620  0.66100  0.88800  Biso   1.000  H
  H62      1.0000 0.19380  0.66100  0.61200  Biso   1.000  H
  H63      1.0000 0.30620  0.16100  0.88800  Biso   1.000  H
  H64      1.0000 0.69380  0.16100  0.61200  Biso   1.000  H
