data_image0
_cell_length_a       5.9711
_cell_length_b       9.5319
_cell_length_c       9.7794
_cell_angle_alpha    99.883
_cell_angle_beta     100.807
_cell_angle_gamma    105.918

_symmetry_space_group_name_H-M    "P 1"
_symmetry_int_tables_number       1

loop_
  _symmetry_equiv_pos_as_xyz
  'x, y, z'

loop_
  _atom_site_label
  _atom_site_occupancy
  _atom_site_fract_x
  _atom_site_fract_y
  _atom_site_fract_z
  _atom_site_thermal_displace_type
  _atom_site_B_iso_or_equiv
  _atom_site_type_symbol
  Na1      1.0000 0.25720  0.33144  0.43600  Biso   1.000  Na
  Na2      1.0000 0.74280  0.66856  0.56400  Biso   1.000  Na
  Na3      1.0000 0.00160  0.32414  0.01212  Biso   1.000  Na
  Na4      1.0000 0.99840  0.67586  0.98788  Biso   1.000  Na
  Cu1      1.0000 0.00000  0.00000  0.50000  Biso   1.000  Cu
  C1       1.0000 0.81020  0.33760  0.55380  Biso   1.000  C
  C2       1.0000 0.18980  0.66240  0.44620  Biso   1.000  C
  C3       1.0000 0.70800  0.17830  0.45950  Biso   1.000  C
  C4       1.0000 0.29200  0.82170  0.54050  Biso   1.000  C
  H1       1.0000 0.57360  0.17540  0.37970  Biso   1.000  H
  H2       1.0000 0.42640  0.82460  0.62030  Biso   1.000  H
  C5       1.0000 0.60390  0.06770  0.54880  Biso   1.000  C
  C6       1.0000 0.39610  0.93230  0.45120  Biso   1.000  C
  H3       1.0000 0.54090  0.12130  0.62230  Biso   1.000  H
  H4       1.0000 0.45910  0.87870  0.37770  Biso   1.000  H
  O1       1.0000 0.03400  0.39140  0.60740  Biso   1.000  O
  O2       1.0000 0.96600  0.60860  0.39260  Biso   1.000  O
  O3       1.0000 0.66080  0.40540  0.57620  Biso   1.000  O
  O4       1.0000 0.33920  0.59460  0.42380  Biso   1.000  O
  O5       1.0000 0.88160  0.13380  0.39890  Biso   1.000  O
  O6       1.0000 0.11840  0.86620  0.60110  Biso   1.000  O
  O7       1.0000 0.78850  0.02100  0.61920  Biso   1.000  O
  O8       1.0000 0.21150  0.97900  0.38080  Biso   1.000  O
  O9       1.0000 0.27490  0.25280  0.18610  Biso   1.000  O
  O10      1.0000 0.72510  0.74720  0.81390  Biso   1.000  O
  H5       1.0000 0.25500  0.17100  0.16700  Biso   1.000  H
  H6       1.0000 0.74500  0.82900  0.83300  Biso   1.000  H
  H7       1.0000 0.40100  0.28500  0.18200  Biso   1.000  H
  H8       1.0000 0.59900  0.71500  0.81800  Biso   1.000  H
  O11      1.0000 0.78270  0.33820  0.19680  Biso   1.000  O
  O12      1.0000 0.21730  0.66180  0.80320  Biso   1.000  O
  H9       1.0000 0.83700  0.41300  0.24700  Biso   1.000  H
  H10      1.0000 0.16300  0.58700  0.75300  Biso   1.000  H
  H11      1.0000 0.81600  0.28600  0.23700  Biso   1.000  H
  H12      1.0000 0.18400  0.71400  0.76300  Biso   1.000  H
  O13      1.0000 0.29920  0.03720  0.85750  Biso   1.000  O
  O14      1.0000 0.70080  0.96280  0.14250  Biso   1.000  O
  H13      1.0000 0.23600  0.00400  0.90800  Biso   1.000  H
  H14      1.0000 0.76400  0.99600  0.09200  Biso   1.000  H
  H15      1.0000 0.23700  0.98600  0.78680  Biso   1.000  H
  H16      1.0000 0.76300  0.01400  0.21320  Biso   1.000  H
  O15      1.0000 0.78060  0.06550  0.89000  Biso   1.000  O
  O16      1.0000 0.21940  0.93450  0.11000  Biso   1.000  O
  H17      1.0000 0.65300  0.06200  0.87900  Biso   1.000  H
  H18      1.0000 0.34700  0.93800  0.12100  Biso   1.000  H
  H19      1.0000 0.79900  0.05600  0.81700  Biso   1.000  H
  H20      1.0000 0.20100  0.94400  0.18300  Biso   1.000  H
  O17      1.0000 0.25380  0.31290  0.85250  Biso   1.000  O
  O18      1.0000 0.74620  0.68710  0.14750  Biso   1.000  O
  H21      1.0000 0.17800  0.31700  0.78600  Biso   1.000  H
  H22      1.0000 0.82200  0.68300  0.21400  Biso   1.000  H
  H23      1.0000 0.24300  0.23320  0.84500  Biso   1.000  H
  H24      1.0000 0.75700  0.76680  0.15500  Biso   1.000  H
  O19      1.0000 0.25500  0.57090  0.12380  Biso   1.000  O
  O20      1.0000 0.74500  0.42910  0.87620  Biso   1.000  O
  H25      1.0000 0.38000  0.59600  0.11600  Biso   1.000  H
  H26      1.0000 0.62000  0.40400  0.88400  Biso   1.000  H
  H27      1.0000 0.27100  0.57500  0.20140  Biso   1.000  H
  H28      1.0000 0.72900  0.42500  0.79860  Biso   1.000  H
