data_image0
_cell_length_a       17.7075
_cell_length_b       5.8752
_cell_length_c       21.9234
_cell_angle_alpha    90
_cell_angle_beta     113.097
_cell_angle_gamma    90

_symmetry_space_group_name_H-M    "P 1"
_symmetry_int_tables_number       1

loop_
  _symmetry_equiv_pos_as_xyz
  'x, y, z'

loop_
  _atom_site_label
  _atom_site_occupancy
  _atom_site_fract_x
  _atom_site_fract_y
  _atom_site_fract_z
  _atom_site_thermal_displace_type
  _atom_site_B_iso_or_equiv
  _atom_site_type_symbol
  Cu1      1.0000 0.50000  0.68301  0.75000  Biso   1.000  Cu
  Cu2      1.0000 0.00000  0.18301  0.75000  Biso   1.000  Cu
  Cu3      1.0000 0.50000  0.31699  0.25000  Biso   1.000  Cu
  Cu4      1.0000 0.00000  0.81699  0.25000  Biso   1.000  Cu
  O1       1.0000 0.41135  0.67640  0.66314  Biso   1.000  O
  O2       1.0000 0.91135  0.17640  0.66314  Biso   1.000  O
  O3       1.0000 0.58865  0.67640  0.83686  Biso   1.000  O
  O4       1.0000 0.08865  0.17640  0.83686  Biso   1.000  O
  O5       1.0000 0.58865  0.32360  0.33686  Biso   1.000  O
  O6       1.0000 0.08865  0.82360  0.33686  Biso   1.000  O
  O7       1.0000 0.41135  0.32360  0.16314  Biso   1.000  O
  O8       1.0000 0.91135  0.82360  0.16314  Biso   1.000  O
  C1       1.0000 0.37542  0.85080  0.63002  Biso   1.000  C
  C2       1.0000 0.87542  0.35080  0.63002  Biso   1.000  C
  C3       1.0000 0.62458  0.85080  0.86998  Biso   1.000  C
  C4       1.0000 0.12458  0.35080  0.86998  Biso   1.000  C
  C5       1.0000 0.62458  0.14920  0.36998  Biso   1.000  C
  C6       1.0000 0.12458  0.64920  0.36998  Biso   1.000  C
  C7       1.0000 0.37542  0.14920  0.13002  Biso   1.000  C
  C8       1.0000 0.87542  0.64920  0.13002  Biso   1.000  C
  O9       1.0000 0.39114  0.05230  0.64749  Biso   1.000  O
  O10      1.0000 0.89114  0.55230  0.64749  Biso   1.000  O
  O11      1.0000 0.60886  0.05230  0.85251  Biso   1.000  O
  O12      1.0000 0.10886  0.55230  0.85251  Biso   1.000  O
  O13      1.0000 0.60886  0.94770  0.35251  Biso   1.000  O
  O14      1.0000 0.10886  0.44770  0.35251  Biso   1.000  O
  O15      1.0000 0.39114  0.94770  0.14749  Biso   1.000  O
  O16      1.0000 0.89114  0.44770  0.14749  Biso   1.000  O
  C9       1.0000 0.30943  0.79890  0.56286  Biso   1.000  C
  C10      1.0000 0.80943  0.29890  0.56286  Biso   1.000  C
  C11      1.0000 0.69057  0.79890  0.93714  Biso   1.000  C
  C12      1.0000 0.19057  0.29890  0.93714  Biso   1.000  C
  C13      1.0000 0.69057  0.20110  0.43714  Biso   1.000  C
  C14      1.0000 0.19057  0.70110  0.43714  Biso   1.000  C
  C15      1.0000 0.30943  0.20110  0.06286  Biso   1.000  C
  C16      1.0000 0.80943  0.70110  0.06286  Biso   1.000  C
  C17      1.0000 0.27559  0.58190  0.54837  Biso   1.000  C
  C18      1.0000 0.77559  0.08190  0.54837  Biso   1.000  C
  C19      1.0000 0.72441  0.58190  0.95163  Biso   1.000  C
  C20      1.0000 0.22441  0.08190  0.95163  Biso   1.000  C
  C21      1.0000 0.72441  0.41810  0.45163  Biso   1.000  C
  C22      1.0000 0.22441  0.91810  0.45163  Biso   1.000  C
  C23      1.0000 0.27559  0.41810  0.04837  Biso   1.000  C
  C24      1.0000 0.77559  0.91810  0.04837  Biso   1.000  C
  C25      1.0000 0.21634  0.53290  0.48588  Biso   1.000  C
  C26      1.0000 0.71634  0.03290  0.48588  Biso   1.000  C
  C27      1.0000 0.78366  0.53290  0.01412  Biso   1.000  C
  C28      1.0000 0.28366  0.03290  0.01412  Biso   1.000  C
  C29      1.0000 0.78366  0.46710  0.51412  Biso   1.000  C
  C30      1.0000 0.28366  0.96710  0.51412  Biso   1.000  C
  C31      1.0000 0.21634  0.46710  0.98588  Biso   1.000  C
  C32      1.0000 0.71634  0.96710  0.98588  Biso   1.000  C
  O17      1.0000 0.50000  0.30070  0.75000  Biso   1.000  O
  O18      1.0000 0.00000  0.80070  0.75000  Biso   1.000  O
  O19      1.0000 0.50000  0.69930  0.25000  Biso   1.000  O
  O20      1.0000 0.00000  0.19930  0.25000  Biso   1.000  O
  N1       1.0000 0.41477  0.70640  0.79098  Biso   1.000  N
  N2       1.0000 0.91477  0.20640  0.79098  Biso   1.000  N
  N3       1.0000 0.58523  0.70640  0.70902  Biso   1.000  N
  N4       1.0000 0.08523  0.20640  0.70902  Biso   1.000  N
  N5       1.0000 0.58523  0.29360  0.20902  Biso   1.000  N
  N6       1.0000 0.08523  0.79360  0.20902  Biso   1.000  N
  N7       1.0000 0.41477  0.29360  0.29098  Biso   1.000  N
  N8       1.0000 0.91477  0.79360  0.29098  Biso   1.000  N
  C33      1.0000 0.41200  0.87510  0.83048  Biso   1.000  C
  C34      1.0000 0.91200  0.37510  0.83048  Biso   1.000  C
  C35      1.0000 0.58800  0.87510  0.66952  Biso   1.000  C
  C36      1.0000 0.08800  0.37510  0.66952  Biso   1.000  C
  C37      1.0000 0.58800  0.12490  0.16952  Biso   1.000  C
  C38      1.0000 0.08800  0.62490  0.16952  Biso   1.000  C
  C39      1.0000 0.41200  0.12490  0.33048  Biso   1.000  C
  C40      1.0000 0.91200  0.62490  0.33048  Biso   1.000  C
  C41      1.0000 0.35530  0.88050  0.86000  Biso   1.000  C
  C42      1.0000 0.85530  0.38050  0.86000  Biso   1.000  C
  C43      1.0000 0.64470  0.88050  0.64000  Biso   1.000  C
  C44      1.0000 0.14470  0.38050  0.64000  Biso   1.000  C
  C45      1.0000 0.64470  0.11950  0.14000  Biso   1.000  C
  C46      1.0000 0.14470  0.61950  0.14000  Biso   1.000  C
  C47      1.0000 0.35530  0.11950  0.36000  Biso   1.000  C
  C48      1.0000 0.85530  0.61950  0.36000  Biso   1.000  C
  C49      1.0000 0.30090  0.70240  0.84920  Biso   1.000  C
  C50      1.0000 0.80090  0.20240  0.84920  Biso   1.000  C
  C51      1.0000 0.69910  0.70240  0.65080  Biso   1.000  C
  C52      1.0000 0.19910  0.20240  0.65080  Biso   1.000  C
  C53      1.0000 0.69910  0.29760  0.15080  Biso   1.000  C
  C54      1.0000 0.19910  0.79760  0.15080  Biso   1.000  C
  C55      1.0000 0.30090  0.29760  0.34920  Biso   1.000  C
  C56      1.0000 0.80090  0.79760  0.34920  Biso   1.000  C
  C57      1.0000 0.30240  0.53070  0.80690  Biso   1.000  C
  C58      1.0000 0.80240  0.03070  0.80690  Biso   1.000  C
  C59      1.0000 0.69760  0.53070  0.69310  Biso   1.000  C
  C60      1.0000 0.19760  0.03070  0.69310  Biso   1.000  C
  C61      1.0000 0.69760  0.46930  0.19310  Biso   1.000  C
  C62      1.0000 0.19760  0.96930  0.19310  Biso   1.000  C
  C63      1.0000 0.30240  0.46930  0.30690  Biso   1.000  C
  C64      1.0000 0.80240  0.96930  0.30690  Biso   1.000  C
  C65      1.0000 0.35970  0.53790  0.77929  Biso   1.000  C
  C66      1.0000 0.85970  0.03790  0.77929  Biso   1.000  C
  C67      1.0000 0.64030  0.53790  0.72071  Biso   1.000  C
  C68      1.0000 0.14030  0.03790  0.72071  Biso   1.000  C
  C69      1.0000 0.64030  0.46210  0.22071  Biso   1.000  C
  C70      1.0000 0.14030  0.96210  0.22071  Biso   1.000  C
  C71      1.0000 0.35970  0.46210  0.27929  Biso   1.000  C
  C72      1.0000 0.85970  0.96210  0.27929  Biso   1.000  C
  H1       1.0000 0.29380  0.46710  0.58130  Biso   1.000  H
  H2       1.0000 0.79380  0.96710  0.58130  Biso   1.000  H
  H3       1.0000 0.70620  0.46710  0.91870  Biso   1.000  H
  H4       1.0000 0.20620  0.96710  0.91870  Biso   1.000  H
  H5       1.0000 0.70620  0.53290  0.41870  Biso   1.000  H
  H6       1.0000 0.20620  0.03290  0.41870  Biso   1.000  H
  H7       1.0000 0.29380  0.53290  0.08130  Biso   1.000  H
  H8       1.0000 0.79380  0.03290  0.08130  Biso   1.000  H
  H9       1.0000 0.19260  0.38670  0.47520  Biso   1.000  H
  H10      1.0000 0.69260  0.88670  0.47520  Biso   1.000  H
  H11      1.0000 0.80740  0.38670  0.02480  Biso   1.000  H
  H12      1.0000 0.30740  0.88670  0.02480  Biso   1.000  H
  H13      1.0000 0.80740  0.61330  0.52480  Biso   1.000  H
  H14      1.0000 0.30740  0.11330  0.52480  Biso   1.000  H
  H15      1.0000 0.19260  0.61330  0.97520  Biso   1.000  H
  H16      1.0000 0.69260  0.11330  0.97520  Biso   1.000  H
  H17      1.0000 0.46500  0.22500  0.72080  Biso   1.000  H
  H18      1.0000 0.96500  0.72500  0.72080  Biso   1.000  H
  H19      1.0000 0.53500  0.22500  0.77920  Biso   1.000  H
  H20      1.0000 0.03500  0.72500  0.77920  Biso   1.000  H
  H21      1.0000 0.53500  0.77500  0.27920  Biso   1.000  H
  H22      1.0000 0.03500  0.27500  0.27920  Biso   1.000  H
  H23      1.0000 0.46500  0.77500  0.22080  Biso   1.000  H
  H24      1.0000 0.96500  0.27500  0.22080  Biso   1.000  H
  H25      1.0000 0.44950  0.99060  0.83800  Biso   1.000  H
  H26      1.0000 0.94950  0.49060  0.83800  Biso   1.000  H
  H27      1.0000 0.55050  0.99060  0.66200  Biso   1.000  H
  H28      1.0000 0.05050  0.49060  0.66200  Biso   1.000  H
  H29      1.0000 0.55050  0.00940  0.16200  Biso   1.000  H
  H30      1.0000 0.05050  0.50940  0.16200  Biso   1.000  H
  H31      1.0000 0.44950  0.00940  0.33800  Biso   1.000  H
  H32      1.0000 0.94950  0.50940  0.33800  Biso   1.000  H
  H33      1.0000 0.35360  0.00130  0.88760  Biso   1.000  H
  H34      1.0000 0.85360  0.50130  0.88760  Biso   1.000  H
  H35      1.0000 0.64640  0.00130  0.61240  Biso   1.000  H
  H36      1.0000 0.14640  0.50130  0.61240  Biso   1.000  H
  H37      1.0000 0.64640  0.99870  0.11240  Biso   1.000  H
  H38      1.0000 0.14640  0.49870  0.11240  Biso   1.000  H
  H39      1.0000 0.35360  0.99870  0.38760  Biso   1.000  H
  H40      1.0000 0.85360  0.49870  0.38760  Biso   1.000  H
  H41      1.0000 0.26390  0.69770  0.87050  Biso   1.000  H
  H42      1.0000 0.76390  0.19770  0.87050  Biso   1.000  H
  H43      1.0000 0.73610  0.69770  0.62950  Biso   1.000  H
  H44      1.0000 0.23610  0.19770  0.62950  Biso   1.000  H
  H45      1.0000 0.73610  0.30230  0.12950  Biso   1.000  H
  H46      1.0000 0.23610  0.80230  0.12950  Biso   1.000  H
  H47      1.0000 0.26390  0.30230  0.37050  Biso   1.000  H
  H48      1.0000 0.76390  0.80230  0.37050  Biso   1.000  H
  H49      1.0000 0.26530  0.40950  0.79670  Biso   1.000  H
  H50      1.0000 0.76530  0.90950  0.79670  Biso   1.000  H
  H51      1.0000 0.73470  0.40950  0.70330  Biso   1.000  H
  H52      1.0000 0.23470  0.90950  0.70330  Biso   1.000  H
  H53      1.0000 0.73470  0.59050  0.20330  Biso   1.000  H
  H54      1.0000 0.23470  0.09050  0.20330  Biso   1.000  H
  H55      1.0000 0.26530  0.59050  0.29670  Biso   1.000  H
  H56      1.0000 0.76530  0.09050  0.29670  Biso   1.000  H
  H57      1.0000 0.36300  0.42040  0.75230  Biso   1.000  H
  H58      1.0000 0.86300  0.92040  0.75230  Biso   1.000  H
  H59      1.0000 0.63700  0.42040  0.74770  Biso   1.000  H
  H60      1.0000 0.13700  0.92040  0.74770  Biso   1.000  H
  H61      1.0000 0.63700  0.57960  0.24770  Biso   1.000  H
  H62      1.0000 0.13700  0.07960  0.24770  Biso   1.000  H
  H63      1.0000 0.36300  0.57960  0.25230  Biso   1.000  H
  H64      1.0000 0.86300  0.07960  0.25230  Biso   1.000  H
