data_image0
_cell_length_a       5.8883
_cell_length_b       15.2307
_cell_length_c       21.6648
_cell_angle_alpha    90
_cell_angle_beta     90
_cell_angle_gamma    90

_symmetry_space_group_name_H-M    "P 1"
_symmetry_int_tables_number       1

loop_
  _symmetry_equiv_pos_as_xyz
  'x, y, z'

loop_
  _atom_site_label
  _atom_site_occupancy
  _atom_site_fract_x
  _atom_site_fract_y
  _atom_site_fract_z
  _atom_site_thermal_displace_type
  _atom_site_B_iso_or_equiv
  _atom_site_type_symbol
  Cu1      1.0000 0.82669  0.45906  0.34866  Biso   1.000  Cu
  Cu2      1.0000 0.32669  0.04094  0.65134  Biso   1.000  Cu
  Cu3      1.0000 0.17331  0.95906  0.15134  Biso   1.000  Cu
  Cu4      1.0000 0.67331  0.54094  0.84866  Biso   1.000  Cu
  O1       1.0000 0.82660  0.42260  0.26257  Biso   1.000  O
  O2       1.0000 0.32660  0.07740  0.73743  Biso   1.000  O
  O3       1.0000 0.17340  0.92260  0.23743  Biso   1.000  O
  O4       1.0000 0.67340  0.57740  0.76257  Biso   1.000  O
  C1       1.0000 0.65540  0.43910  0.22800  Biso   1.000  C
  C2       1.0000 0.15540  0.06090  0.77200  Biso   1.000  C
  C3       1.0000 0.34460  0.93910  0.27200  Biso   1.000  C
  C4       1.0000 0.84460  0.56090  0.72800  Biso   1.000  C
  O5       1.0000 0.45510  0.44830  0.24638  Biso   1.000  O
  O6       1.0000 0.95510  0.05170  0.75362  Biso   1.000  O
  O7       1.0000 0.54490  0.94830  0.25362  Biso   1.000  O
  O8       1.0000 0.04490  0.55170  0.74638  Biso   1.000  O
  C5       1.0000 0.70390  0.44900  0.16053  Biso   1.000  C
  C6       1.0000 0.20390  0.05100  0.83947  Biso   1.000  C
  C7       1.0000 0.29610  0.94900  0.33947  Biso   1.000  C
  C8       1.0000 0.79610  0.55100  0.66053  Biso   1.000  C
  C9       1.0000 0.53380  0.44130  0.11680  Biso   1.000  C
  C10      1.0000 0.03380  0.05870  0.88320  Biso   1.000  C
  C11      1.0000 0.46620  0.94130  0.38320  Biso   1.000  C
  C12      1.0000 0.96620  0.55870  0.61680  Biso   1.000  C
  C13      1.0000 0.57790  0.45820  0.05450  Biso   1.000  C
  C14      1.0000 0.07790  0.04180  0.94550  Biso   1.000  C
  C15      1.0000 0.42210  0.95820  0.44550  Biso   1.000  C
  C16      1.0000 0.92210  0.54180  0.55450  Biso   1.000  C
  C17      1.0000 0.79340  0.48080  0.03590  Biso   1.000  C
  C18      1.0000 0.29340  0.01920  0.96410  Biso   1.000  C
  C19      1.0000 0.20660  0.98080  0.46410  Biso   1.000  C
  C20      1.0000 0.70660  0.51920  0.53590  Biso   1.000  C
  C21      1.0000 0.84250  0.50360  0.96917  Biso   1.000  C
  C22      1.0000 0.34250  0.99640  0.03083  Biso   1.000  C
  C23      1.0000 0.15750  0.00360  0.53083  Biso   1.000  C
  C24      1.0000 0.65750  0.49640  0.46917  Biso   1.000  C
  O9       1.0000 0.67300  0.50010  0.93370  Biso   1.000  O
  O10      1.0000 0.17300  0.99990  0.06630  Biso   1.000  O
  O11      1.0000 0.32700  0.00010  0.56630  Biso   1.000  O
  O12      1.0000 0.82700  0.49990  0.43370  Biso   1.000  O
  O13      1.0000 0.03920  0.52700  0.95482  Biso   1.000  O
  O14      1.0000 0.53920  0.97300  0.04518  Biso   1.000  O
  O15      1.0000 0.96080  0.02700  0.54518  Biso   1.000  O
  O16      1.0000 0.46080  0.47300  0.45482  Biso   1.000  O
  C25      1.0000 0.96450  0.48870  0.07950  Biso   1.000  C
  C26      1.0000 0.46450  0.01130  0.92050  Biso   1.000  C
  C27      1.0000 0.03550  0.98870  0.42050  Biso   1.000  C
  C28      1.0000 0.53550  0.51130  0.57950  Biso   1.000  C
  C29      1.0000 0.92280  0.47040  0.14170  Biso   1.000  C
  C30      1.0000 0.42280  0.02960  0.85830  Biso   1.000  C
  C31      1.0000 0.07720  0.97040  0.35830  Biso   1.000  C
  C32      1.0000 0.57720  0.52960  0.64170  Biso   1.000  C
  O17      1.0000 0.20190  0.44950  0.35201  Biso   1.000  O
  O18      1.0000 0.70190  0.05050  0.64799  Biso   1.000  O
  O19      1.0000 0.79810  0.94950  0.14799  Biso   1.000  O
  O20      1.0000 0.29810  0.55050  0.85201  Biso   1.000  O
  N1       1.0000 0.81620  0.58470  0.31815  Biso   1.000  N
  N2       1.0000 0.31620  0.91530  0.68185  Biso   1.000  N
  N3       1.0000 0.18380  0.08470  0.18185  Biso   1.000  N
  N4       1.0000 0.68380  0.41530  0.81815  Biso   1.000  N
  C33      1.0000 0.64180  0.63780  0.33320  Biso   1.000  C
  C34      1.0000 0.14180  0.86220  0.66680  Biso   1.000  C
  C35      1.0000 0.35820  0.13780  0.16680  Biso   1.000  C
  C36      1.0000 0.85820  0.36220  0.83320  Biso   1.000  C
  C37      1.0000 0.63420  0.72520  0.31150  Biso   1.000  C
  C38      1.0000 0.13420  0.77480  0.68850  Biso   1.000  C
  C39      1.0000 0.36580  0.22520  0.18850  Biso   1.000  C
  C40      1.0000 0.86580  0.27480  0.81150  Biso   1.000  C
  C41      1.0000 0.81000  0.75680  0.27790  Biso   1.000  C
  C42      1.0000 0.31000  0.74320  0.72210  Biso   1.000  C
  C43      1.0000 0.19000  0.25680  0.22210  Biso   1.000  C
  C44      1.0000 0.69000  0.24320  0.77790  Biso   1.000  C
  C45      1.0000 0.98490  0.70460  0.26330  Biso   1.000  C
  C46      1.0000 0.48490  0.79540  0.73670  Biso   1.000  C
  C47      1.0000 0.01510  0.20460  0.23670  Biso   1.000  C
  C48      1.0000 0.51510  0.29540  0.76330  Biso   1.000  C
  C49      1.0000 0.98210  0.61560  0.28320  Biso   1.000  C
  C50      1.0000 0.48210  0.88440  0.71680  Biso   1.000  C
  C51      1.0000 0.01790  0.11560  0.21680  Biso   1.000  C
  C52      1.0000 0.51790  0.38440  0.78320  Biso   1.000  C
  N5       1.0000 0.77110  0.33460  0.37827  Biso   1.000  N
  N6       1.0000 0.27110  0.16540  0.62173  Biso   1.000  N
  N7       1.0000 0.22890  0.83460  0.12173  Biso   1.000  N
  N8       1.0000 0.72890  0.66540  0.87827  Biso   1.000  N
  C53      1.0000 0.59300  0.28790  0.35820  Biso   1.000  C
  C54      1.0000 0.09300  0.21210  0.64180  Biso   1.000  C
  C55      1.0000 0.40700  0.78790  0.14180  Biso   1.000  C
  C56      1.0000 0.90700  0.71210  0.85820  Biso   1.000  C
  C57      1.0000 0.53780  0.20680  0.38220  Biso   1.000  C
  C58      1.0000 0.03780  0.29320  0.61780  Biso   1.000  C
  C59      1.0000 0.46220  0.70680  0.11780  Biso   1.000  C
  C60      1.0000 0.96220  0.79320  0.88220  Biso   1.000  C
  C61      1.0000 0.66990  0.17240  0.42700  Biso   1.000  C
  C62      1.0000 0.16990  0.32760  0.57300  Biso   1.000  C
  C63      1.0000 0.33010  0.67240  0.07300  Biso   1.000  C
  C64      1.0000 0.83010  0.82760  0.92700  Biso   1.000  C
  C65      1.0000 0.85620  0.21920  0.44670  Biso   1.000  C
  C66      1.0000 0.35620  0.28080  0.55330  Biso   1.000  C
  C67      1.0000 0.14380  0.71920  0.05330  Biso   1.000  C
  C68      1.0000 0.64380  0.78080  0.94670  Biso   1.000  C
  C69      1.0000 0.90210  0.29920  0.42240  Biso   1.000  C
  C70      1.0000 0.40210  0.20080  0.57760  Biso   1.000  C
  C71      1.0000 0.09790  0.79920  0.07760  Biso   1.000  C
  C72      1.0000 0.59790  0.70080  0.92240  Biso   1.000  C
  H1       1.0000 0.38930  0.42320  0.12880  Biso   1.000  H
  H2       1.0000 0.88930  0.07680  0.87120  Biso   1.000  H
  H3       1.0000 0.61070  0.92320  0.37120  Biso   1.000  H
  H4       1.0000 0.11070  0.57680  0.62880  Biso   1.000  H
  H5       1.0000 0.46210  0.45600  0.02640  Biso   1.000  H
  H6       1.0000 0.96210  0.04400  0.97360  Biso   1.000  H
  H7       1.0000 0.53790  0.95600  0.47360  Biso   1.000  H
  H8       1.0000 0.03790  0.54400  0.52640  Biso   1.000  H
  H9       1.0000 0.11200  0.50430  0.06680  Biso   1.000  H
  H10      1.0000 0.61200  0.99570  0.93320  Biso   1.000  H
  H11      1.0000 0.88800  0.00430  0.43320  Biso   1.000  H
  H12      1.0000 0.38800  0.49570  0.56680  Biso   1.000  H
  H13      1.0000 0.03940  0.47320  0.17160  Biso   1.000  H
  H14      1.0000 0.53940  0.02680  0.82840  Biso   1.000  H
  H15      1.0000 0.96060  0.97320  0.32840  Biso   1.000  H
  H16      1.0000 0.46060  0.52680  0.67160  Biso   1.000  H
  H17      1.0000 0.52820  0.61680  0.35830  Biso   1.000  H
  H18      1.0000 0.02820  0.88320  0.64170  Biso   1.000  H
  H19      1.0000 0.47180  0.11680  0.14170  Biso   1.000  H
  H20      1.0000 0.97180  0.38320  0.85830  Biso   1.000  H
  H21      1.0000 0.50930  0.76080  0.31970  Biso   1.000  H
  H22      1.0000 0.00930  0.73920  0.68030  Biso   1.000  H
  H23      1.0000 0.49070  0.26080  0.18030  Biso   1.000  H
  H24      1.0000 0.99070  0.23920  0.81970  Biso   1.000  H
  H25      1.0000 0.80820  0.81560  0.26570  Biso   1.000  H
  H26      1.0000 0.30820  0.68440  0.73430  Biso   1.000  H
  H27      1.0000 0.19180  0.31560  0.23430  Biso   1.000  H
  H28      1.0000 0.69180  0.18440  0.76570  Biso   1.000  H
  H29      1.0000 0.10610  0.72480  0.23930  Biso   1.000  H
  H30      1.0000 0.60610  0.77520  0.76070  Biso   1.000  H
  H31      1.0000 0.89390  0.22480  0.26070  Biso   1.000  H
  H32      1.0000 0.39390  0.27520  0.73930  Biso   1.000  H
  H33      1.0000 0.09870  0.57660  0.27330  Biso   1.000  H
  H34      1.0000 0.59870  0.92340  0.72670  Biso   1.000  H
  H35      1.0000 0.90130  0.07660  0.22670  Biso   1.000  H
  H36      1.0000 0.40130  0.42340  0.77330  Biso   1.000  H
  H37      1.0000 0.50400  0.31220  0.32650  Biso   1.000  H
  H38      1.0000 0.00400  0.18780  0.67350  Biso   1.000  H
  H39      1.0000 0.49600  0.81220  0.17350  Biso   1.000  H
  H40      1.0000 0.99600  0.68780  0.82650  Biso   1.000  H
  H41      1.0000 0.41350  0.17440  0.36730  Biso   1.000  H
  H42      1.0000 0.91350  0.32560  0.63270  Biso   1.000  H
  H43      1.0000 0.58650  0.67440  0.13270  Biso   1.000  H
  H44      1.0000 0.08650  0.82560  0.86730  Biso   1.000  H
  H45      1.0000 0.63440  0.11760  0.44350  Biso   1.000  H
  H46      1.0000 0.13440  0.38240  0.55650  Biso   1.000  H
  H47      1.0000 0.36560  0.61760  0.05650  Biso   1.000  H
  H48      1.0000 0.86560  0.88240  0.94350  Biso   1.000  H
  H49      1.0000 0.95160  0.19800  0.47670  Biso   1.000  H
  H50      1.0000 0.45160  0.30200  0.52330  Biso   1.000  H
  H51      1.0000 0.04840  0.69800  0.02330  Biso   1.000  H
  H52      1.0000 0.54840  0.80200  0.97670  Biso   1.000  H
  H53      1.0000 0.02710  0.33070  0.43600  Biso   1.000  H
  H54      1.0000 0.52710  0.16930  0.56400  Biso   1.000  H
  H55      1.0000 0.97290  0.83070  0.06400  Biso   1.000  H
  H56      1.0000 0.47290  0.66930  0.93600  Biso   1.000  H
  H57      1.0000 0.26510  0.45390  0.31810  Biso   1.000  H
  H58      1.0000 0.76510  0.04610  0.68190  Biso   1.000  H
  H59      1.0000 0.73490  0.95390  0.18190  Biso   1.000  H
  H60      1.0000 0.23490  0.54610  0.81810  Biso   1.000  H
  H61      1.0000 0.27910  0.44940  0.38390  Biso   1.000  H
  H62      1.0000 0.77910  0.05060  0.61610  Biso   1.000  H
  H63      1.0000 0.72090  0.94940  0.11610  Biso   1.000  H
  H64      1.0000 0.22090  0.55060  0.88390  Biso   1.000  H
