data_image0
_cell_length_a       5.3279
_cell_length_b       8.9739
_cell_length_c       12.195
_cell_angle_alpha    99.734
_cell_angle_beta     92.495
_cell_angle_gamma    100.19

_symmetry_space_group_name_H-M    "P 1"
_symmetry_int_tables_number       1

loop_
  _symmetry_equiv_pos_as_xyz
  'x, y, z'

loop_
  _atom_site_label
  _atom_site_occupancy
  _atom_site_fract_x
  _atom_site_fract_y
  _atom_site_fract_z
  _atom_site_thermal_displace_type
  _atom_site_B_iso_or_equiv
  _atom_site_type_symbol
  Cu1      1.0000 0.50000  0.00000  0.50000  Biso   1.000  Cu
  O1       1.0000 0.30010  0.89410  0.36588  Biso   1.000  O
  O2       1.0000 0.69990  0.10590  0.63412  Biso   1.000  O
  O3       1.0000 0.58520  0.02030  0.27250  Biso   1.000  O
  O4       1.0000 0.41480  0.97970  0.72750  Biso   1.000  O
  N1       1.0000 0.69390  0.82130  0.49639  Biso   1.000  N
  N2       1.0000 0.30610  0.17870  0.50361  Biso   1.000  N
  N3       1.0000 0.65980  0.58130  0.79600  Biso   1.000  N
  N4       1.0000 0.34020  0.41870  0.20400  Biso   1.000  N
  C1       1.0000 0.89930  0.82750  0.56670  Biso   1.000  C
  C2       1.0000 0.10070  0.17250  0.43330  Biso   1.000  C
  C3       1.0000 0.02040  0.70630  0.57040  Biso   1.000  C
  C4       1.0000 0.97960  0.29370  0.42960  Biso   1.000  C
  C5       1.0000 0.93940  0.56770  0.49880  Biso   1.000  C
  C6       1.0000 0.06060  0.43230  0.50120  Biso   1.000  C
  C7       1.0000 0.73150  0.56220  0.42390  Biso   1.000  C
  C8       1.0000 0.26850  0.43780  0.57610  Biso   1.000  C
  C9       1.0000 0.61670  0.68750  0.42570  Biso   1.000  C
  C10      1.0000 0.38330  0.31250  0.57430  Biso   1.000  C
  C11      1.0000 0.38810  0.93050  0.27630  Biso   1.000  C
  C12      1.0000 0.61190  0.06950  0.72370  Biso   1.000  C
  C13      1.0000 0.22540  0.85250  0.17060  Biso   1.000  C
  C14      1.0000 0.77460  0.14750  0.82940  Biso   1.000  C
  C15      1.0000 0.29560  0.88160  0.07250  Biso   1.000  C
  C16      1.0000 0.70440  0.11840  0.92750  Biso   1.000  C
  C17      1.0000 0.15260  0.81360  0.97270  Biso   1.000  C
  C18      1.0000 0.84740  0.18640  0.02730  Biso   1.000  C
  C19      1.0000 0.93390  0.71260  0.97620  Biso   1.000  C
  C20      1.0000 0.06610  0.28740  0.02380  Biso   1.000  C
  C21      1.0000 0.85970  0.68220  0.07470  Biso   1.000  C
  C22      1.0000 0.14030  0.31780  0.92530  Biso   1.000  C
  C23      1.0000 0.00710  0.75310  0.17260  Biso   1.000  C
  C24      1.0000 0.99290  0.24690  0.82740  Biso   1.000  C
  C25      1.0000 0.77940  0.63890  0.87490  Biso   1.000  C
  C26      1.0000 0.22060  0.36110  0.12510  Biso   1.000  C
  H1       1.0000 0.95800  0.92200  0.60800  Biso   1.000  H
  H2       1.0000 0.04200  0.07800  0.39200  Biso   1.000  H
  H3       1.0000 0.15200  0.71700  0.62100  Biso   1.000  H
  H4       1.0000 0.84800  0.28300  0.37900  Biso   1.000  H
  H5       1.0000 0.66400  0.47800  0.37500  Biso   1.000  H
  H6       1.0000 0.33600  0.52200  0.62500  Biso   1.000  H
  H7       1.0000 0.47500  0.68700  0.38100  Biso   1.000  H
  H8       1.0000 0.52500  0.31300  0.61900  Biso   1.000  H
  H9       1.0000 0.44500  0.93600  0.06000  Biso   1.000  H
  H10      1.0000 0.55500  0.06400  0.94000  Biso   1.000  H
  H11      1.0000 0.21200  0.83300  0.90600  Biso   1.000  H
  H12      1.0000 0.78800  0.16700  0.09400  Biso   1.000  H
  H13      1.0000 0.70100  0.62100  0.07500  Biso   1.000  H
  H14      1.0000 0.29900  0.37900  0.92500  Biso   1.000  H
  H15      1.0000 0.94400  0.72700  0.23500  Biso   1.000  H
  H16      1.0000 0.05600  0.27300  0.76500  Biso   1.000  H
