data_image0
_cell_length_a       8.5387
_cell_length_b       9.2448
_cell_length_c       10.4427
_cell_angle_alpha    111.759
_cell_angle_beta     96.228
_cell_angle_gamma    100.746

_symmetry_space_group_name_H-M    "P 1"
_symmetry_int_tables_number       1

loop_
  _symmetry_equiv_pos_as_xyz
  'x, y, z'

loop_
  _atom_site_label
  _atom_site_occupancy
  _atom_site_fract_x
  _atom_site_fract_y
  _atom_site_fract_z
  _atom_site_thermal_displace_type
  _atom_site_B_iso_or_equiv
  _atom_site_type_symbol
  C1       1.0000 0.23970  0.72620  0.16320  Biso   1.000  C
  C2       1.0000 0.76030  0.27380  0.83680  Biso   1.000  C
  C3       1.0000 0.39190  0.85970  0.25050  Biso   1.000  C
  C4       1.0000 0.60810  0.14030  0.74950  Biso   1.000  C
  C5       1.0000 0.48880  0.92210  0.15950  Biso   1.000  C
  C6       1.0000 0.51120  0.07790  0.84050  Biso   1.000  C
  C7       1.0000 0.49870  0.81180  0.34520  Biso   1.000  C
  C8       1.0000 0.50130  0.18820  0.65480  Biso   1.000  C
  C9       1.0000 0.58290  0.80430  0.07940  Biso   1.000  C
  C10      1.0000 0.41710  0.19570  0.92060  Biso   1.000  C
  C11      1.0000 0.58860  0.69170  0.26380  Biso   1.000  C
  C12      1.0000 0.41140  0.30830  0.73620  Biso   1.000  C
  C13      1.0000 0.69050  0.75990  0.17810  Biso   1.000  C
  C14      1.0000 0.30950  0.24010  0.82190  Biso   1.000  C
  C15      1.0000 0.79900  0.65470  0.10760  Biso   1.000  C
  C16      1.0000 0.20100  0.34530  0.89240  Biso   1.000  C
  C17      1.0000 0.05180  0.18760  0.21110  Biso   1.000  C
  C18      1.0000 0.94820  0.81240  0.78890  Biso   1.000  C
  C19      1.0000 0.90830  0.34830  0.34010  Biso   1.000  C
  C20      1.0000 0.09170  0.65170  0.65990  Biso   1.000  C
  C21      1.0000 0.05270  0.10130  0.29440  Biso   1.000  C
  C22      1.0000 0.94730  0.89870  0.70560  Biso   1.000  C
  C23      1.0000 0.90520  0.27130  0.43190  Biso   1.000  C
  C24      1.0000 0.09480  0.72870  0.56810  Biso   1.000  C
  C25      1.0000 0.98070  0.14680  0.41200  Biso   1.000  C
  C26      1.0000 0.01930  0.85320  0.58800  Biso   1.000  C
  C27      1.0000 0.97710  0.06670  0.50910  Biso   1.000  C
  C28      1.0000 0.02290  0.93330  0.49090  Biso   1.000  C
  N1       1.0000 0.98370  0.31080  0.23190  Biso   1.000  N
  N2       1.0000 0.01630  0.68920  0.76810  Biso   1.000  N
  O1       1.0000 0.18240  0.62690  0.21120  Biso   1.000  O
  O2       1.0000 0.81760  0.37310  0.78880  Biso   1.000  O
  O3       1.0000 0.18020  0.72610  0.05000  Biso   1.000  O
  O4       1.0000 0.81980  0.27390  0.95000  Biso   1.000  O
  O5       1.0000 0.84680  0.57010  0.16560  Biso   1.000  O
  O6       1.0000 0.15320  0.42990  0.83440  Biso   1.000  O
  O7       1.0000 0.84220  0.66770  0.00150  Biso   1.000  O
  O8       1.0000 0.15780  0.33230  0.99850  Biso   1.000  O
  O9       1.0000 0.44100  0.43390  0.42890  Biso   1.000  O
  O10      1.0000 0.55900  0.56610  0.57110  Biso   1.000  O
  H1       1.0000 0.33850  0.37590  0.42580  Biso   1.000  H
  H2       1.0000 0.66150  0.62410  0.57420  Biso   1.000  H
  H3       1.0000 0.49060  0.36290  0.36540  Biso   1.000  H
  H4       1.0000 0.50940  0.63710  0.63460  Biso   1.000  H
  Cu1      1.0000 0.00029  0.43909  0.09563  Biso   1.000  Cu
  Cu2      1.0000 0.99971  0.56091  0.90437  Biso   1.000  Cu
  H5       1.0000 0.36400  0.93900  0.31700  Biso   1.000  H
  H6       1.0000 0.63600  0.06100  0.68300  Biso   1.000  H
  H7       1.0000 0.56600  0.02400  0.22200  Biso   1.000  H
  H8       1.0000 0.43400  0.97600  0.77800  Biso   1.000  H
  H9       1.0000 0.42500  0.96000  0.09000  Biso   1.000  H
  H10      1.0000 0.57500  0.04000  0.91000  Biso   1.000  H
  H11      1.0000 0.58000  0.91100  0.41400  Biso   1.000  H
  H12      1.0000 0.42000  0.08900  0.58600  Biso   1.000  H
  H13      1.0000 0.43900  0.79300  0.39800  Biso   1.000  H
  H14      1.0000 0.56100  0.20700  0.60200  Biso   1.000  H
  H15      1.0000 0.65200  0.84500  0.01700  Biso   1.000  H
  H16      1.0000 0.34800  0.15500  0.98300  Biso   1.000  H
  H17      1.0000 0.51300  0.71000  0.01600  Biso   1.000  H
  H18      1.0000 0.48700  0.29000  0.98400  Biso   1.000  H
  H19      1.0000 0.66100  0.69000  0.32300  Biso   1.000  H
  H20      1.0000 0.33900  0.31000  0.67700  Biso   1.000  H
  H21      1.0000 0.51100  0.59400  0.20000  Biso   1.000  H
  H22      1.0000 0.48900  0.40600  0.80000  Biso   1.000  H
  H23      1.0000 0.77800  0.86200  0.25700  Biso   1.000  H
  H24      1.0000 0.22200  0.13800  0.74300  Biso   1.000  H
  H25      1.0000 0.09700  0.14700  0.12500  Biso   1.000  H
  H26      1.0000 0.90300  0.85300  0.87500  Biso   1.000  H
  H27      1.0000 0.89800  0.46100  0.36200  Biso   1.000  H
  H28      1.0000 0.10200  0.53900  0.63800  Biso   1.000  H
  H29      1.0000 0.07500  0.97100  0.26600  Biso   1.000  H
  H30      1.0000 0.92500  0.02900  0.73400  Biso   1.000  H
  H31      1.0000 0.87700  0.31200  0.52400  Biso   1.000  H
  H32      1.0000 0.12300  0.68800  0.47600  Biso   1.000  H
  H33      1.0000 0.93900  0.11000  0.58700  Biso   1.000  H
  H34      1.0000 0.06100  0.89000  0.41300  Biso   1.000  H
