data_image0
_cell_length_a       10.105
_cell_length_b       19.2546
_cell_length_c       11.1318
_cell_angle_alpha    90
_cell_angle_beta     91.59
_cell_angle_gamma    90

_symmetry_space_group_name_H-M    "P 1"
_symmetry_int_tables_number       1

loop_
  _symmetry_equiv_pos_as_xyz
  'x, y, z'

loop_
  _atom_site_label
  _atom_site_occupancy
  _atom_site_fract_x
  _atom_site_fract_y
  _atom_site_fract_z
  _atom_site_thermal_displace_type
  _atom_site_B_iso_or_equiv
  _atom_site_type_symbol
  C1       1.0000 0.91090  0.42350  0.63610  Biso   1.000  C
  C2       1.0000 0.58910  0.92350  0.86390  Biso   1.000  C
  C3       1.0000 0.08910  0.57650  0.36390  Biso   1.000  C
  C4       1.0000 0.41090  0.07650  0.13610  Biso   1.000  C
  H1       1.0000 0.82720  0.41850  0.60020  Biso   1.000  H
  H2       1.0000 0.67280  0.91850  0.89980  Biso   1.000  H
  H3       1.0000 0.17280  0.58150  0.39980  Biso   1.000  H
  H4       1.0000 0.32720  0.08150  0.10020  Biso   1.000  H
  C5       1.0000 0.06540  0.44730  0.76180  Biso   1.000  C
  C6       1.0000 0.43460  0.94730  0.73820  Biso   1.000  C
  C7       1.0000 0.93460  0.55270  0.23820  Biso   1.000  C
  C8       1.0000 0.56540  0.05270  0.26180  Biso   1.000  C
  H5       1.0000 0.11080  0.46200  0.83090  Biso   1.000  H
  H6       1.0000 0.38920  0.96200  0.66910  Biso   1.000  H
  H7       1.0000 0.88920  0.53800  0.16910  Biso   1.000  H
  H8       1.0000 0.61080  0.03800  0.33090  Biso   1.000  H
  C9       1.0000 0.12160  0.42220  0.66300  Biso   1.000  C
  C10      1.0000 0.37840  0.92220  0.83700  Biso   1.000  C
  C11      1.0000 0.87840  0.57780  0.33700  Biso   1.000  C
  C12      1.0000 0.62160  0.07780  0.16300  Biso   1.000  C
  H9       1.0000 0.21170  0.41640  0.65150  Biso   1.000  H
  H10      1.0000 0.28830  0.91640  0.84850  Biso   1.000  H
  H11      1.0000 0.78830  0.58360  0.34850  Biso   1.000  H
  H12      1.0000 0.71170  0.08360  0.15150  Biso   1.000  H
  C13      1.0000 0.03700  0.37970  0.45950  Biso   1.000  C
  C14      1.0000 0.46300  0.87970  0.04050  Biso   1.000  C
  C15      1.0000 0.96300  0.62030  0.54050  Biso   1.000  C
  C16      1.0000 0.53700  0.12030  0.95950  Biso   1.000  C
  H13      1.0000 0.11430  0.34980  0.45790  Biso   1.000  H
  H14      1.0000 0.38570  0.84980  0.04210  Biso   1.000  H
  H15      1.0000 0.88570  0.65020  0.54210  Biso   1.000  H
  H16      1.0000 0.61430  0.15020  0.95790  Biso   1.000  H
  H17      1.0000 0.05120  0.41810  0.40500  Biso   1.000  H
  H18      1.0000 0.44880  0.91810  0.09500  Biso   1.000  H
  H19      1.0000 0.94880  0.58190  0.59500  Biso   1.000  H
  H20      1.0000 0.55120  0.08190  0.90500  Biso   1.000  H
  C17      1.0000 0.91710  0.33930  0.41710  Biso   1.000  C
  C18      1.0000 0.58290  0.83930  0.08290  Biso   1.000  C
  C19      1.0000 0.08290  0.66070  0.58290  Biso   1.000  C
  C20      1.0000 0.41710  0.16070  0.91710  Biso   1.000  C
  C21      1.0000 0.90990  0.26810  0.43250  Biso   1.000  C
  C22      1.0000 0.59010  0.76810  0.06750  Biso   1.000  C
  C23      1.0000 0.09010  0.73190  0.56750  Biso   1.000  C
  C24      1.0000 0.40990  0.23190  0.93250  Biso   1.000  C
  H21      1.0000 0.98020  0.24460  0.46980  Biso   1.000  H
  H22      1.0000 0.51980  0.74460  0.03020  Biso   1.000  H
  H23      1.0000 0.01980  0.75540  0.53020  Biso   1.000  H
  H24      1.0000 0.48020  0.25540  0.96980  Biso   1.000  H
  C25      1.0000 0.68410  0.40950  0.08390  Biso   1.000  C
  C26      1.0000 0.81590  0.90950  0.41610  Biso   1.000  C
  C27      1.0000 0.31590  0.59050  0.91610  Biso   1.000  C
  C28      1.0000 0.18410  0.09050  0.58390  Biso   1.000  C
  H25      1.0000 0.71710  0.36570  0.06610  Biso   1.000  H
  H26      1.0000 0.78290  0.86570  0.43390  Biso   1.000  H
  H27      1.0000 0.28290  0.63430  0.93390  Biso   1.000  H
  H28      1.0000 0.21710  0.13430  0.56610  Biso   1.000  H
  C29      1.0000 0.63670  0.51750  0.07530  Biso   1.000  C
  C30      1.0000 0.86330  0.01750  0.42470  Biso   1.000  C
  C31      1.0000 0.36330  0.48250  0.92470  Biso   1.000  C
  C32      1.0000 0.13670  0.98250  0.57530  Biso   1.000  C
  H29      1.0000 0.63100  0.56340  0.04940  Biso   1.000  H
  H30      1.0000 0.86900  0.06340  0.45060  Biso   1.000  H
  H31      1.0000 0.36900  0.43660  0.95060  Biso   1.000  H
  H32      1.0000 0.13100  0.93660  0.54940  Biso   1.000  H
  C33      1.0000 0.58350  0.49210  0.17580  Biso   1.000  C
  C34      1.0000 0.91650  0.99210  0.32420  Biso   1.000  C
  C35      1.0000 0.41650  0.50790  0.82420  Biso   1.000  C
  C36      1.0000 0.08350  0.00790  0.67580  Biso   1.000  C
  H33      1.0000 0.53510  0.51680  0.23130  Biso   1.000  H
  H34      1.0000 0.96490  0.01680  0.26870  Biso   1.000  H
  H35      1.0000 0.46490  0.48320  0.76870  Biso   1.000  H
  H36      1.0000 0.03510  0.98320  0.73130  Biso   1.000  H
  C37      1.0000 0.57860  0.37330  0.27420  Biso   1.000  C
  C38      1.0000 0.92140  0.87330  0.22580  Biso   1.000  C
  C39      1.0000 0.42140  0.62670  0.72580  Biso   1.000  C
  C40      1.0000 0.07860  0.12670  0.77420  Biso   1.000  C
  H37      1.0000 0.51670  0.33980  0.23990  Biso   1.000  H
  H38      1.0000 0.98330  0.83980  0.26010  Biso   1.000  H
  H39      1.0000 0.48330  0.66020  0.76010  Biso   1.000  H
  H40      1.0000 0.01670  0.16020  0.73990  Biso   1.000  H
  H41      1.0000 0.53470  0.39750  0.33830  Biso   1.000  H
  H42      1.0000 0.96530  0.89750  0.16170  Biso   1.000  H
  H43      1.0000 0.46530  0.60250  0.66170  Biso   1.000  H
  H44      1.0000 0.03470  0.10250  0.83830  Biso   1.000  H
  C41      1.0000 0.69720  0.33570  0.32580  Biso   1.000  C
  C42      1.0000 0.80280  0.83570  0.17420  Biso   1.000  C
  C43      1.0000 0.30280  0.66430  0.67420  Biso   1.000  C
  C44      1.0000 0.19720  0.16430  0.82580  Biso   1.000  C
  C45      1.0000 0.81040  0.37220  0.36360  Biso   1.000  C
  C46      1.0000 0.68960  0.87220  0.13640  Biso   1.000  C
  C47      1.0000 0.18960  0.62780  0.63640  Biso   1.000  C
  C48      1.0000 0.31040  0.12780  0.86360  Biso   1.000  C
  H45      1.0000 0.81350  0.42000  0.35210  Biso   1.000  H
  H46      1.0000 0.68650  0.92000  0.14790  Biso   1.000  H
  H47      1.0000 0.18650  0.58000  0.64790  Biso   1.000  H
  H48      1.0000 0.31350  0.08000  0.85210  Biso   1.000  H
  C49      1.0000 0.69540  0.26500  0.34090  Biso   1.000  C
  C50      1.0000 0.80460  0.76500  0.15910  Biso   1.000  C
  C51      1.0000 0.30460  0.73500  0.65910  Biso   1.000  C
  C52      1.0000 0.19540  0.23500  0.84090  Biso   1.000  C
  H49      1.0000 0.62170  0.23960  0.31500  Biso   1.000  H
  H50      1.0000 0.87830  0.73960  0.18500  Biso   1.000  H
  H51      1.0000 0.37830  0.76040  0.68500  Biso   1.000  H
  H52      1.0000 0.12170  0.26040  0.81500  Biso   1.000  H
  C53      1.0000 0.80020  0.23190  0.39350  Biso   1.000  C
  C54      1.0000 0.69980  0.73190  0.10650  Biso   1.000  C
  C55      1.0000 0.19980  0.76810  0.60650  Biso   1.000  C
  C56      1.0000 0.30020  0.26810  0.89350  Biso   1.000  C
  H53      1.0000 0.79770  0.18390  0.40320  Biso   1.000  H
  H54      1.0000 0.70230  0.68390  0.09680  Biso   1.000  H
  H55      1.0000 0.20230  0.81610  0.59680  Biso   1.000  H
  H56      1.0000 0.29770  0.31610  0.90320  Biso   1.000  H
  C57      1.0000 0.83170  0.59841  0.84880  Biso   1.000  C
  C58      1.0000 0.66830  0.09841  0.65120  Biso   1.000  C
  C59      1.0000 0.16830  0.40159  0.15120  Biso   1.000  C
  C60      1.0000 0.33170  0.90159  0.34880  Biso   1.000  C
  C61      1.0000 0.88110  0.67238  0.85120  Biso   1.000  C
  C62      1.0000 0.61890  0.17238  0.64880  Biso   1.000  C
  C63      1.0000 0.11890  0.32762  0.14880  Biso   1.000  C
  C64      1.0000 0.38110  0.82762  0.35120  Biso   1.000  C
  C65      1.0000 0.98760  0.69115  0.92550  Biso   1.000  C
  C66      1.0000 0.51240  0.19115  0.57450  Biso   1.000  C
  C67      1.0000 0.01240  0.30885  0.07450  Biso   1.000  C
  C68      1.0000 0.48760  0.80885  0.42550  Biso   1.000  C
  H57      1.0000 0.03010  0.65800  0.97340  Biso   1.000  H
  H58      1.0000 0.46990  0.15800  0.52660  Biso   1.000  H
  H59      1.0000 0.96990  0.34200  0.02660  Biso   1.000  H
  H60      1.0000 0.53010  0.84200  0.47340  Biso   1.000  H
  C69      1.0000 0.03070  0.75948  0.92810  Biso   1.000  C
  C70      1.0000 0.46930  0.25948  0.57190  Biso   1.000  C
  C71      1.0000 0.96930  0.24052  0.07190  Biso   1.000  C
  C72      1.0000 0.53070  0.74052  0.42810  Biso   1.000  C
  C73      1.0000 0.96800  0.80833  0.85640  Biso   1.000  C
  C74      1.0000 0.53200  0.30833  0.64360  Biso   1.000  C
  C75      1.0000 0.03200  0.19167  0.14360  Biso   1.000  C
  C76      1.0000 0.46800  0.69167  0.35640  Biso   1.000  C
  H61      1.0000 0.99700  0.85420  0.85840  Biso   1.000  H
  H62      1.0000 0.50300  0.35420  0.64160  Biso   1.000  H
  H63      1.0000 0.00300  0.14580  0.14160  Biso   1.000  H
  H64      1.0000 0.49700  0.64580  0.35840  Biso   1.000  H
  C77      1.0000 0.86230  0.78985  0.78140  Biso   1.000  C
  C78      1.0000 0.63770  0.28985  0.71860  Biso   1.000  C
  C79      1.0000 0.13770  0.21015  0.21860  Biso   1.000  C
  C80      1.0000 0.36230  0.71015  0.28140  Biso   1.000  C
  C81      1.0000 0.81830  0.72138  0.77930  Biso   1.000  C
  C82      1.0000 0.68170  0.22138  0.72070  Biso   1.000  C
  C83      1.0000 0.18170  0.27862  0.22070  Biso   1.000  C
  C84      1.0000 0.31830  0.77862  0.27930  Biso   1.000  C
  H65      1.0000 0.74680  0.70870  0.72960  Biso   1.000  H
  H66      1.0000 0.75320  0.20870  0.77040  Biso   1.000  H
  H67      1.0000 0.25320  0.29130  0.27040  Biso   1.000  H
  H68      1.0000 0.24680  0.79130  0.22960  Biso   1.000  H
  C85      1.0000 0.79490  0.84278  0.70370  Biso   1.000  C
  C86      1.0000 0.70510  0.34278  0.79630  Biso   1.000  C
  C87      1.0000 0.20510  0.15722  0.29630  Biso   1.000  C
  C88      1.0000 0.29490  0.65722  0.20370  Biso   1.000  C
  Cu1      1.0000 0.79758  0.46873  0.86575  Biso   1.000  Cu
  Cu2      1.0000 0.70242  0.96873  0.63425  Biso   1.000  Cu
  Cu3      1.0000 0.20242  0.53127  0.13425  Biso   1.000  Cu
  Cu4      1.0000 0.29758  0.03127  0.36575  Biso   1.000  Cu
  N1       1.0000 0.93200  0.44776  0.74510  Biso   1.000  N
  N2       1.0000 0.56800  0.94776  0.75490  Biso   1.000  N
  N3       1.0000 0.06800  0.55224  0.25490  Biso   1.000  N
  N4       1.0000 0.43200  0.05224  0.24510  Biso   1.000  N
  N5       1.0000 0.02200  0.40700  0.58290  Biso   1.000  N
  N6       1.0000 0.47800  0.90700  0.91710  Biso   1.000  N
  N7       1.0000 0.97800  0.59300  0.41710  Biso   1.000  N
  N8       1.0000 0.52200  0.09300  0.08290  Biso   1.000  N
  N9       1.0000 0.70080  0.46477  0.01680  Biso   1.000  N
  N10      1.0000 0.79920  0.96477  0.48320  Biso   1.000  N
  N11      1.0000 0.29920  0.53523  0.98320  Biso   1.000  N
  N12      1.0000 0.20080  0.03523  0.51680  Biso   1.000  N
  N13      1.0000 0.61400  0.42390  0.18050  Biso   1.000  N
  N14      1.0000 0.88600  0.92390  0.31950  Biso   1.000  N
  N15      1.0000 0.38600  0.57610  0.81950  Biso   1.000  N
  N16      1.0000 0.11400  0.07610  0.68050  Biso   1.000  N
  O1       1.0000 0.73700  0.58215  0.78140  Biso   1.000  O
  O2       1.0000 0.76300  0.08215  0.71860  Biso   1.000  O
  O3       1.0000 0.26300  0.41785  0.21860  Biso   1.000  O
  O4       1.0000 0.23700  0.91785  0.28140  Biso   1.000  O
  O5       1.0000 0.89210  0.55468  0.91595  Biso   1.000  O
  O6       1.0000 0.60790  0.05468  0.58405  Biso   1.000  O
  O7       1.0000 0.10790  0.44532  0.08405  Biso   1.000  O
  O8       1.0000 0.39210  0.94532  0.41595  Biso   1.000  O
  O9       1.0000 0.70860  0.82507  0.62800  Biso   1.000  O
  O10      1.0000 0.79140  0.32507  0.87200  Biso   1.000  O
  O11      1.0000 0.29140  0.17493  0.37200  Biso   1.000  O
  O12      1.0000 0.20860  0.67493  0.12800  Biso   1.000  O
  O13      1.0000 0.82710  0.90594  0.71969  Biso   1.000  O
  O14      1.0000 0.67290  0.40594  0.78031  Biso   1.000  O
  O15      1.0000 0.17290  0.09406  0.28031  Biso   1.000  O
  O16      1.0000 0.32710  0.59406  0.21969  Biso   1.000  O
  O17      1.0000 0.13340  0.78154  0.00010  Biso   1.000  O
  O18      1.0000 0.36660  0.28154  0.49990  Biso   1.000  O
  O19      1.0000 0.86660  0.21846  0.99990  Biso   1.000  O
  O20      1.0000 0.63340  0.71846  0.50010  Biso   1.000  O
  H69      1.0000 0.16230  0.74880  0.03990  Biso   1.000  H
  H70      1.0000 0.33770  0.24880  0.46010  Biso   1.000  H
  H71      1.0000 0.83770  0.25120  0.96010  Biso   1.000  H
  H72      1.0000 0.66230  0.75120  0.53990  Biso   1.000  H
  O21      1.0000 0.64390  0.53380  0.53540  Biso   1.000  O
  O22      1.0000 0.85610  0.03380  0.96460  Biso   1.000  O
  O23      1.0000 0.35610  0.46620  0.46460  Biso   1.000  O
  O24      1.0000 0.14390  0.96620  0.03540  Biso   1.000  O
  H73      1.0000 0.63000  0.57380  0.55600  Biso   1.000  H
  H74      1.0000 0.87000  0.07380  0.94400  Biso   1.000  H
  H75      1.0000 0.37000  0.42620  0.44400  Biso   1.000  H
  H76      1.0000 0.13000  0.92620  0.05600  Biso   1.000  H
  H77      1.0000 0.60800  0.50390  0.57500  Biso   1.000  H
  H78      1.0000 0.89200  0.00390  0.92500  Biso   1.000  H
  H79      1.0000 0.39200  0.49610  0.42500  Biso   1.000  H
  H80      1.0000 0.10800  0.99610  0.07500  Biso   1.000  H
