data_image0
_cell_length_a       4.9569
_cell_length_b       14.9563
_cell_length_c       8.3861
_cell_angle_alpha    90
_cell_angle_beta     94.821
_cell_angle_gamma    90

_symmetry_space_group_name_H-M    "P 1"
_symmetry_int_tables_number       1

loop_
  _symmetry_equiv_pos_as_xyz
  'x, y, z'

loop_
  _atom_site_label
  _atom_site_occupancy
  _atom_site_fract_x
  _atom_site_fract_y
  _atom_site_fract_z
  _atom_site_thermal_displace_type
  _atom_site_B_iso_or_equiv
  _atom_site_type_symbol
  Cu1      1.0000 0.50000  0.50000  0.50000  Biso   1.000  Cu
  Cu2      1.0000 0.50000  0.00000  0.00000  Biso   1.000  Cu
  O1       1.0000 0.80660  0.43362  0.59812  Biso   1.000  O
  O2       1.0000 0.19340  0.93362  0.90188  Biso   1.000  O
  O3       1.0000 0.19340  0.56638  0.40188  Biso   1.000  O
  O4       1.0000 0.80660  0.06638  0.09812  Biso   1.000  O
  O5       1.0000 0.20620  0.45662  0.73698  Biso   1.000  O
  O6       1.0000 0.79380  0.95662  0.76302  Biso   1.000  O
  O7       1.0000 0.79380  0.54338  0.26302  Biso   1.000  O
  O8       1.0000 0.20620  0.04338  0.23698  Biso   1.000  O
  N1       1.0000 0.66300  0.59949  0.62640  Biso   1.000  N
  N2       1.0000 0.33700  0.09949  0.87360  Biso   1.000  N
  N3       1.0000 0.33700  0.40051  0.37360  Biso   1.000  N
  N4       1.0000 0.66300  0.90051  0.12640  Biso   1.000  N
  C1       1.0000 0.97750  0.48064  0.68760  Biso   1.000  C
  C2       1.0000 0.02250  0.98064  0.81240  Biso   1.000  C
  C3       1.0000 0.02250  0.51936  0.31240  Biso   1.000  C
  C4       1.0000 0.97750  0.01936  0.18760  Biso   1.000  C
  C5       1.0000 0.88330  0.57477  0.72320  Biso   1.000  C
  C6       1.0000 0.11670  0.07477  0.77680  Biso   1.000  C
  C7       1.0000 0.11670  0.42523  0.27680  Biso   1.000  C
  C8       1.0000 0.88330  0.92523  0.22320  Biso   1.000  C
  C9       1.0000 0.00870  0.63274  0.83600  Biso   1.000  C
  C10      1.0000 0.99130  0.13274  0.66400  Biso   1.000  C
  C11      1.0000 0.99130  0.36726  0.16400  Biso   1.000  C
  C12      1.0000 0.00870  0.86726  0.33600  Biso   1.000  C
  C13      1.0000 0.91020  0.72058  0.83400  Biso   1.000  C
  C14      1.0000 0.08980  0.22058  0.66600  Biso   1.000  C
  C15      1.0000 0.08980  0.27942  0.16600  Biso   1.000  C
  C16      1.0000 0.91020  0.77942  0.33400  Biso   1.000  C
  H1       1.0000 0.99430  0.76310  0.90630  Biso   1.000  H
  H2       1.0000 0.00570  0.26310  0.59370  Biso   1.000  H
  H3       1.0000 0.00570  0.23690  0.09370  Biso   1.000  H
  H4       1.0000 0.99430  0.73690  0.40630  Biso   1.000  H
  C17      1.0000 0.69510  0.74693  0.73050  Biso   1.000  C
  C18      1.0000 0.30490  0.24693  0.76950  Biso   1.000  C
  C19      1.0000 0.30490  0.25307  0.26950  Biso   1.000  C
  C20      1.0000 0.69510  0.75307  0.23050  Biso   1.000  C
  H5       1.0000 0.63320  0.80710  0.72870  Biso   1.000  H
  H6       1.0000 0.36680  0.30710  0.77130  Biso   1.000  H
  H7       1.0000 0.36680  0.19290  0.27130  Biso   1.000  H
  H8       1.0000 0.63320  0.69290  0.22870  Biso   1.000  H
  C21      1.0000 0.57110  0.68351  0.62880  Biso   1.000  C
  C22      1.0000 0.42890  0.18351  0.87120  Biso   1.000  C
  C23      1.0000 0.42890  0.31649  0.37120  Biso   1.000  C
  C24      1.0000 0.57110  0.81649  0.12880  Biso   1.000  C
  H9       1.0000 0.41780  0.70000  0.55940  Biso   1.000  H
  H10      1.0000 0.58220  0.20000  0.94060  Biso   1.000  H
  H11      1.0000 0.58220  0.30000  0.44060  Biso   1.000  H
  H12      1.0000 0.41780  0.80000  0.05940  Biso   1.000  H
  C25      1.0000 0.23320  0.60539  0.95870  Biso   1.000  C
  C26      1.0000 0.76680  0.10539  0.54130  Biso   1.000  C
  C27      1.0000 0.76680  0.39461  0.04130  Biso   1.000  C
  C28      1.0000 0.23320  0.89461  0.45870  Biso   1.000  C
  H13      1.0000 0.21890  0.54130  0.98070  Biso   1.000  H
  H14      1.0000 0.78110  0.04130  0.51930  Biso   1.000  H
  H15      1.0000 0.78110  0.45870  0.01930  Biso   1.000  H
  H16      1.0000 0.21890  0.95870  0.48070  Biso   1.000  H
  H17      1.0000 0.21800  0.63920  0.05760  Biso   1.000  H
  H18      1.0000 0.78200  0.13920  0.44240  Biso   1.000  H
  H19      1.0000 0.78200  0.36080  0.94240  Biso   1.000  H
  H20      1.0000 0.21800  0.86080  0.55760  Biso   1.000  H
  H21      1.0000 0.40850  0.61790  0.91740  Biso   1.000  H
  H22      1.0000 0.59150  0.11790  0.58260  Biso   1.000  H
  H23      1.0000 0.59150  0.38210  0.08260  Biso   1.000  H
  H24      1.0000 0.40850  0.88210  0.41740  Biso   1.000  H
