data_image0
_cell_length_a       11.917
_cell_length_b       6.3962
_cell_length_c       14.811
_cell_angle_alpha    90
_cell_angle_beta     112.841
_cell_angle_gamma    90

_symmetry_space_group_name_H-M    "P 1"
_symmetry_int_tables_number       1

loop_
  _symmetry_equiv_pos_as_xyz
  'x, y, z'

loop_
  _atom_site_label
  _atom_site_occupancy
  _atom_site_fract_x
  _atom_site_fract_y
  _atom_site_fract_z
  _atom_site_thermal_displace_type
  _atom_site_B_iso_or_equiv
  _atom_site_type_symbol
  Cu1      1.0000 0.99442  0.03441  0.74813  Biso   1.000  Cu
  Cu2      1.0000 0.00558  0.53441  0.75187  Biso   1.000  Cu
  Cu3      1.0000 0.00558  0.96559  0.25187  Biso   1.000  Cu
  Cu4      1.0000 0.99442  0.46559  0.24813  Biso   1.000  Cu
  C1       1.0000 0.18510  0.79110  0.89960  Biso   1.000  C
  C2       1.0000 0.81490  0.29110  0.60040  Biso   1.000  C
  C3       1.0000 0.81490  0.20890  0.10040  Biso   1.000  C
  C4       1.0000 0.18510  0.70890  0.39960  Biso   1.000  C
  C5       1.0000 0.30150  0.80860  0.98630  Biso   1.000  C
  C6       1.0000 0.69850  0.30860  0.51370  Biso   1.000  C
  C7       1.0000 0.69850  0.19140  0.01370  Biso   1.000  C
  C8       1.0000 0.30150  0.69140  0.48630  Biso   1.000  C
  C9       1.0000 0.34210  0.00330  0.02850  Biso   1.000  C
  C10      1.0000 0.65790  0.50330  0.47150  Biso   1.000  C
  C11      1.0000 0.65790  0.99670  0.97150  Biso   1.000  C
  C12      1.0000 0.34210  0.49670  0.52850  Biso   1.000  C
  H1       1.0000 0.29430  0.12080  0.00300  Biso   1.000  H
  H2       1.0000 0.70570  0.62080  0.49700  Biso   1.000  H
  H3       1.0000 0.70570  0.87920  0.99700  Biso   1.000  H
  H4       1.0000 0.29430  0.37920  0.50300  Biso   1.000  H
  C13      1.0000 0.45120  0.02540  0.10710  Biso   1.000  C
  C14      1.0000 0.54880  0.52540  0.39290  Biso   1.000  C
  C15      1.0000 0.54880  0.97460  0.89290  Biso   1.000  C
  C16      1.0000 0.45120  0.47460  0.60710  Biso   1.000  C
  H5       1.0000 0.47670  0.15680  0.13420  Biso   1.000  H
  H6       1.0000 0.52330  0.65680  0.36580  Biso   1.000  H
  H7       1.0000 0.52330  0.84320  0.86580  Biso   1.000  H
  H8       1.0000 0.47670  0.34320  0.63420  Biso   1.000  H
  C17      1.0000 0.52370  0.85030  0.14590  Biso   1.000  C
  C18      1.0000 0.47630  0.35030  0.35410  Biso   1.000  C
  C19      1.0000 0.47630  0.14970  0.85410  Biso   1.000  C
  C20      1.0000 0.52370  0.64970  0.64590  Biso   1.000  C
  C21      1.0000 0.48360  0.65680  0.10570  Biso   1.000  C
  C22      1.0000 0.51640  0.15680  0.39430  Biso   1.000  C
  C23      1.0000 0.51640  0.34320  0.89430  Biso   1.000  C
  C24      1.0000 0.48360  0.84320  0.60570  Biso   1.000  C
  H9       1.0000 0.53120  0.53930  0.13170  Biso   1.000  H
  H10      1.0000 0.46880  0.03930  0.36830  Biso   1.000  H
  H11      1.0000 0.46880  0.46070  0.86830  Biso   1.000  H
  H12      1.0000 0.53120  0.96070  0.63170  Biso   1.000  H
  C25      1.0000 0.37460  0.63540  0.02790  Biso   1.000  C
  C26      1.0000 0.62540  0.13540  0.47210  Biso   1.000  C
  C27      1.0000 0.62540  0.36460  0.97210  Biso   1.000  C
  C28      1.0000 0.37460  0.86460  0.52790  Biso   1.000  C
  H13      1.0000 0.34870  0.50310  0.00220  Biso   1.000  H
  H14      1.0000 0.65130  0.00310  0.49780  Biso   1.000  H
  H15      1.0000 0.65130  0.49690  0.99780  Biso   1.000  H
  H16      1.0000 0.34870  0.99690  0.50220  Biso   1.000  H
  N1       1.0000 0.02810  0.78830  0.67800  Biso   1.000  N
  N2       1.0000 0.97190  0.28830  0.82200  Biso   1.000  N
  N3       1.0000 0.97190  0.21170  0.32200  Biso   1.000  N
  N4       1.0000 0.02810  0.71170  0.17800  Biso   1.000  N
  N5       1.0000 0.98290  0.78100  0.58850  Biso   1.000  N
  N6       1.0000 0.01710  0.28100  0.91150  Biso   1.000  N
  N7       1.0000 0.01710  0.21900  0.41150  Biso   1.000  N
  N8       1.0000 0.98290  0.71900  0.08850  Biso   1.000  N
  N9       1.0000 0.94400  0.77340  0.50500  Biso   1.000  N
  N10      1.0000 0.05600  0.27340  0.99500  Biso   1.000  N
  N11      1.0000 0.05600  0.22660  0.49500  Biso   1.000  N
  N12      1.0000 0.94400  0.72660  0.00500  Biso   1.000  N
  O1       1.0000 0.13340  0.96090  0.86420  Biso   1.000  O
  O2       1.0000 0.86660  0.46090  0.63580  Biso   1.000  O
  O3       1.0000 0.86660  0.03910  0.13580  Biso   1.000  O
  O4       1.0000 0.13340  0.53910  0.36420  Biso   1.000  O
  O5       1.0000 0.14660  0.61120  0.86800  Biso   1.000  O
  O6       1.0000 0.85340  0.11120  0.63200  Biso   1.000  O
  O7       1.0000 0.85340  0.38880  0.13200  Biso   1.000  O
  O8       1.0000 0.14660  0.88880  0.36800  Biso   1.000  O
  O9       1.0000 0.63220  0.86430  0.22290  Biso   1.000  O
  O10      1.0000 0.36780  0.36430  0.27710  Biso   1.000  O
  O11      1.0000 0.36780  0.13570  0.77710  Biso   1.000  O
  O12      1.0000 0.63220  0.63570  0.72290  Biso   1.000  O
  H17      1.0000 0.65540  0.98620  0.22980  Biso   1.000  H
  H18      1.0000 0.34460  0.48620  0.27020  Biso   1.000  H
  H19      1.0000 0.34460  0.01380  0.77020  Biso   1.000  H
  H20      1.0000 0.65540  0.51380  0.72980  Biso   1.000  H
  O13      1.0000 0.87080  0.80040  0.79790  Biso   1.000  O
  O14      1.0000 0.12920  0.30040  0.70210  Biso   1.000  O
  O15      1.0000 0.12920  0.19960  0.20210  Biso   1.000  O
  O16      1.0000 0.87080  0.69960  0.29790  Biso   1.000  O
  H21      1.0000 0.87980  0.76140  0.85670  Biso   1.000  H
  H22      1.0000 0.12020  0.26140  0.64330  Biso   1.000  H
  H23      1.0000 0.12020  0.23860  0.14330  Biso   1.000  H
  H24      1.0000 0.87980  0.73860  0.35670  Biso   1.000  H
  H25      1.0000 0.79220  0.76950  0.76530  Biso   1.000  H
  H26      1.0000 0.20780  0.26950  0.73470  Biso   1.000  H
  H27      1.0000 0.20780  0.23050  0.23470  Biso   1.000  H
  H28      1.0000 0.79220  0.73050  0.26530  Biso   1.000  H
  O17      1.0000 0.29850  0.73490  0.72870  Biso   1.000  O
  O18      1.0000 0.70150  0.23490  0.77130  Biso   1.000  O
  O19      1.0000 0.70150  0.26510  0.27130  Biso   1.000  O
  O20      1.0000 0.29850  0.76510  0.22870  Biso   1.000  O
  H29      1.0000 0.23230  0.72830  0.73750  Biso   1.000  H
  H30      1.0000 0.76770  0.22830  0.76250  Biso   1.000  H
  H31      1.0000 0.76770  0.27170  0.26250  Biso   1.000  H
  H32      1.0000 0.23230  0.77170  0.23750  Biso   1.000  H
  H33      1.0000 0.28600  0.81090  0.67860  Biso   1.000  H
  H34      1.0000 0.71400  0.31090  0.82140  Biso   1.000  H
  H35      1.0000 0.71400  0.18910  0.32140  Biso   1.000  H
  H36      1.0000 0.28600  0.68910  0.17860  Biso   1.000  H
