data_image0
_cell_length_a       6.5059
_cell_length_b       7.024
_cell_length_c       10.117
_cell_angle_alpha    90
_cell_angle_beta     104.487
_cell_angle_gamma    90

_symmetry_space_group_name_H-M    "P 1"
_symmetry_int_tables_number       1

loop_
  _symmetry_equiv_pos_as_xyz
  'x, y, z'

loop_
  _atom_site_label
  _atom_site_occupancy
  _atom_site_fract_x
  _atom_site_fract_y
  _atom_site_fract_z
  _atom_site_thermal_displace_type
  _atom_site_B_iso_or_equiv
  _atom_site_type_symbol
  Cu1      1.0000 0.00000  0.00000  0.50000  Biso   1.000  Cu
  Cu2      1.0000 0.00000  0.50000  0.50000  Biso   1.000  Cu
  C1       1.0000 0.36840  0.25000  0.61360  Biso   1.000  C
  C2       1.0000 0.63160  0.75000  0.38640  Biso   1.000  C
  C3       1.0000 0.59890  0.25000  0.68860  Biso   1.000  C
  C4       1.0000 0.40110  0.75000  0.31140  Biso   1.000  C
  C5       1.0000 0.70810  0.08060  0.72740  Biso   1.000  C
  C6       1.0000 0.29190  0.58060  0.27260  Biso   1.000  C
  C7       1.0000 0.29190  0.91940  0.27260  Biso   1.000  C
  C8       1.0000 0.70810  0.41940  0.72740  Biso   1.000  C
  H1       1.0000 0.64050  0.96490  0.70150  Biso   1.000  H
  H2       1.0000 0.35950  0.46490  0.29850  Biso   1.000  H
  H3       1.0000 0.35950  0.03510  0.29850  Biso   1.000  H
  H4       1.0000 0.64050  0.53510  0.70150  Biso   1.000  H
  C9       1.0000 0.91520  0.08260  0.80350  Biso   1.000  C
  C10      1.0000 0.08480  0.58260  0.19650  Biso   1.000  C
  C11      1.0000 0.08480  0.91740  0.19650  Biso   1.000  C
  C12      1.0000 0.91520  0.41740  0.80350  Biso   1.000  C
  H5       1.0000 0.98430  0.96730  0.82820  Biso   1.000  H
  H6       1.0000 0.01570  0.46730  0.17180  Biso   1.000  H
  H7       1.0000 0.01570  0.03270  0.17180  Biso   1.000  H
  H8       1.0000 0.98430  0.53270  0.82820  Biso   1.000  H
  C13      1.0000 0.02480  0.25000  0.84500  Biso   1.000  C
  C14      1.0000 0.97520  0.75000  0.15500  Biso   1.000  C
  C15      1.0000 0.25200  0.25000  0.93100  Biso   1.000  C
  C16      1.0000 0.74800  0.75000  0.06900  Biso   1.000  C
  N1       1.0000 0.92050  0.25000  0.41340  Biso   1.000  N
  N2       1.0000 0.07950  0.75000  0.58660  Biso   1.000  N
  N3       1.0000 0.77810  0.25000  0.30700  Biso   1.000  N
  N4       1.0000 0.22190  0.75000  0.69300  Biso   1.000  N
  N5       1.0000 0.65390  0.25000  0.20310  Biso   1.000  N
  N6       1.0000 0.34610  0.75000  0.79690  Biso   1.000  N
  O1       1.0000 0.28170  0.08920  0.58810  Biso   1.000  O
  O2       1.0000 0.71830  0.58920  0.41190  Biso   1.000  O
  O3       1.0000 0.71830  0.91080  0.41190  Biso   1.000  O
  O4       1.0000 0.28170  0.41080  0.58810  Biso   1.000  O
  H9       1.0000 0.25700  0.30490  0.01860  Biso   1.000  H
  H10      1.0000 0.74300  0.80490  0.98140  Biso   1.000  H
  H11      1.0000 0.74300  0.69510  0.98140  Biso   1.000  H
  H12      1.0000 0.25700  0.19510  0.01860  Biso   1.000  H
  H13      1.0000 0.30390  0.12160  0.94270  Biso   1.000  H
  H14      1.0000 0.69610  0.62160  0.05730  Biso   1.000  H
  H15      1.0000 0.69610  0.87840  0.05730  Biso   1.000  H
  H16      1.0000 0.30390  0.37840  0.94270  Biso   1.000  H
  H17      1.0000 0.33880  0.32350  0.88600  Biso   1.000  H
  H18      1.0000 0.66120  0.82350  0.11400  Biso   1.000  H
  H19      1.0000 0.66120  0.67650  0.11400  Biso   1.000  H
  H20      1.0000 0.33880  0.17650  0.88600  Biso   1.000  H
