data_image0
_cell_length_a       8.8593
_cell_length_b       11.5231
_cell_length_c       15.3168
_cell_angle_alpha    77.223
_cell_angle_beta     88.207
_cell_angle_gamma    86.684

_symmetry_space_group_name_H-M    "P 1"
_symmetry_int_tables_number       1

loop_
  _symmetry_equiv_pos_as_xyz
  'x, y, z'

loop_
  _atom_site_label
  _atom_site_occupancy
  _atom_site_fract_x
  _atom_site_fract_y
  _atom_site_fract_z
  _atom_site_thermal_displace_type
  _atom_site_B_iso_or_equiv
  _atom_site_type_symbol
  Cu1      1.0000 0.98737  0.53435  0.24950  Biso   1.000  Cu
  Cu2      1.0000 0.01263  0.46565  0.75050  Biso   1.000  Cu
  Mn1      1.0000 0.39851  0.06295  0.21900  Biso   1.000  Mn
  Mn2      1.0000 0.60149  0.93705  0.78100  Biso   1.000  Mn
  O1       1.0000 0.18580  0.56948  0.29604  Biso   1.000  O
  O2       1.0000 0.81420  0.43052  0.70396  Biso   1.000  O
  O3       1.0000 0.26110  0.45451  0.20378  Biso   1.000  O
  O4       1.0000 0.73890  0.54549  0.79622  Biso   1.000  O
  O5       1.0000 0.40760  0.23824  0.24759  Biso   1.000  O
  O6       1.0000 0.59240  0.76176  0.75241  Biso   1.000  O
  N1       1.0000 0.96940  0.39449  0.35315  Biso   1.000  N
  N2       1.0000 0.03060  0.60551  0.64685  Biso   1.000  N
  N3       1.0000 0.83014  0.60761  0.33758  Biso   1.000  N
  N4       1.0000 0.16986  0.39239  0.66242  Biso   1.000  N
  N5       1.0000 0.00710  0.67151  0.14533  Biso   1.000  N
  N6       1.0000 0.99290  0.32849  0.85467  Biso   1.000  N
  N7       1.0000 0.85787  0.47981  0.15928  Biso   1.000  N
  N8       1.0000 0.14213  0.52019  0.84072  Biso   1.000  N
  N9       1.0000 0.37340  0.99080  0.36201  Biso   1.000  N
  N10      1.0000 0.62660  0.00920  0.63799  Biso   1.000  N
  N11      1.0000 0.30650  0.94710  0.52113  Biso   1.000  N
  N12      1.0000 0.69350  0.05290  0.47887  Biso   1.000  N
  N13      1.0000 0.36970  0.75850  0.62610  Biso   1.000  N
  N14      1.0000 0.63030  0.24150  0.37390  Biso   1.000  N
  N15      1.0000 0.42010  0.88300  0.18586  Biso   1.000  N
  N16      1.0000 0.57990  0.11700  0.81414  Biso   1.000  N
  N17      1.0000 0.56100  0.77710  0.08625  Biso   1.000  N
  N18      1.0000 0.43900  0.22290  0.91375  Biso   1.000  N
  N19      1.0000 0.59370  0.85120  0.92619  Biso   1.000  N
  N20      1.0000 0.40630  0.14880  0.07381  Biso   1.000  N
  N21      1.0000 0.65170  0.04890  0.22797  Biso   1.000  N
  N22      1.0000 0.34830  0.95110  0.77203  Biso   1.000  N
  N23      1.0000 0.90840  0.99660  0.27870  Biso   1.000  N
  N24      1.0000 0.09160  0.00340  0.72130  Biso   1.000  N
  N25      1.0000 0.14580  0.07430  0.21635  Biso   1.000  N
  N26      1.0000 0.85420  0.92570  0.78365  Biso   1.000  N
  C1       1.0000 0.04460  0.28880  0.35769  Biso   1.000  C
  C2       1.0000 0.95540  0.71120  0.64231  Biso   1.000  C
  H1       1.0000 0.09500  0.27440  0.30660  Biso   1.000  H
  H2       1.0000 0.90500  0.72560  0.69340  Biso   1.000  H
  C3       1.0000 0.05010  0.20150  0.43440  Biso   1.000  C
  C4       1.0000 0.94990  0.79850  0.56560  Biso   1.000  C
  H3       1.0000 0.10160  0.12870  0.43490  Biso   1.000  H
  H4       1.0000 0.89840  0.87130  0.56510  Biso   1.000  H
  C5       1.0000 0.97880  0.22250  0.51024  Biso   1.000  C
  C6       1.0000 0.02120  0.77750  0.48976  Biso   1.000  C
  H5       1.0000 0.98370  0.16510  0.56350  Biso   1.000  H
  H6       1.0000 0.01630  0.83490  0.43650  Biso   1.000  H
  C7       1.0000 0.89960  0.33000  0.50698  Biso   1.000  C
  C8       1.0000 0.10040  0.67000  0.49302  Biso   1.000  C
  H7       1.0000 0.84980  0.34550  0.55780  Biso   1.000  H
  H8       1.0000 0.15020  0.65450  0.44220  Biso   1.000  H
  C9       1.0000 0.89510  0.41459  0.42695  Biso   1.000  C
  C10      1.0000 0.10490  0.58541  0.57305  Biso   1.000  C
  C11      1.0000 0.81080  0.53210  0.41639  Biso   1.000  C
  C12      1.0000 0.18920  0.46790  0.58361  Biso   1.000  C
  C13      1.0000 0.71710  0.56190  0.48317  Biso   1.000  C
  C14      1.0000 0.28290  0.43810  0.51683  Biso   1.000  C
  H9       1.0000 0.70380  0.50810  0.53750  Biso   1.000  H
  H10      1.0000 0.29620  0.49190  0.46250  Biso   1.000  H
  C15      1.0000 0.64380  0.67380  0.46710  Biso   1.000  C
  C16      1.0000 0.35620  0.32620  0.53290  Biso   1.000  C
  H11      1.0000 0.58110  0.69600  0.51110  Biso   1.000  H
  H12      1.0000 0.41890  0.30400  0.48890  Biso   1.000  H
  C17      1.0000 0.66320  0.75130  0.38680  Biso   1.000  C
  C18      1.0000 0.33680  0.24870  0.61320  Biso   1.000  C
  H13      1.0000 0.61440  0.82660  0.37520  Biso   1.000  H
  H14      1.0000 0.38560  0.17340  0.62480  Biso   1.000  H
  C19      1.0000 0.75750  0.71510  0.32329  Biso   1.000  C
  C20      1.0000 0.24250  0.28490  0.67671  Biso   1.000  C
  H15      1.0000 0.77110  0.76750  0.26830  Biso   1.000  H
  H16      1.0000 0.22890  0.23250  0.73170  Biso   1.000  H
  C21      1.0000 0.08890  0.76620  0.14463  Biso   1.000  C
  C22      1.0000 0.91110  0.23380  0.85537  Biso   1.000  C
  H17      1.0000 0.13390  0.77270  0.19730  Biso   1.000  H
  H18      1.0000 0.86610  0.22730  0.80270  Biso   1.000  H
  C23      1.0000 0.10860  0.85400  0.06877  Biso   1.000  C
  C24      1.0000 0.89140  0.14600  0.93123  Biso   1.000  C
  H19      1.0000 0.16530  0.91910  0.07000  Biso   1.000  H
  H20      1.0000 0.83470  0.08090  0.93000  Biso   1.000  H
  C25      1.0000 0.04300  0.84350  0.99145  Biso   1.000  C
  C26      1.0000 0.95700  0.15650  0.00855  Biso   1.000  C
  H21      1.0000 0.05620  0.90110  0.93910  Biso   1.000  H
  H22      1.0000 0.94380  0.09890  0.06090  Biso   1.000  H
  C27      1.0000 0.95730  0.74740  0.99118  Biso   1.000  C
  C28      1.0000 0.04270  0.25260  0.00882  Biso   1.000  C
  H23      1.0000 0.91110  0.74020  0.93910  Biso   1.000  H
  H24      1.0000 0.08890  0.25980  0.06090  Biso   1.000  H
  C29      1.0000 0.94120  0.66210  0.06923  Biso   1.000  C
  C30      1.0000 0.05880  0.33790  0.93077  Biso   1.000  C
  C31      1.0000 0.85340  0.55450  0.07748  Biso   1.000  C
  C32      1.0000 0.14660  0.44550  0.92252  Biso   1.000  C
  C33      1.0000 0.77230  0.53040  0.00858  Biso   1.000  C
  C34      1.0000 0.22770  0.46960  0.99142  Biso   1.000  C
  H25      1.0000 0.77110  0.58240  0.95270  Biso   1.000  H
  H26      1.0000 0.22890  0.41760  0.04730  Biso   1.000  H
  C35      1.0000 0.69310  0.42810  0.02410  Biso   1.000  C
  C36      1.0000 0.30690  0.57190  0.97590  Biso   1.000  C
  H27      1.0000 0.63790  0.41040  0.97850  Biso   1.000  H
  H28      1.0000 0.36210  0.58960  0.02150  Biso   1.000  H
  C37      1.0000 0.69590  0.35260  0.10691  Biso   1.000  C
  C38      1.0000 0.30410  0.64740  0.89309  Biso   1.000  C
  H29      1.0000 0.64280  0.28330  0.11830  Biso   1.000  H
  H30      1.0000 0.35720  0.71670  0.88170  Biso   1.000  H
  C39      1.0000 0.77920  0.38140  0.17317  Biso   1.000  C
  C40      1.0000 0.22080  0.61860  0.82683  Biso   1.000  C
  H31      1.0000 0.78070  0.33050  0.22950  Biso   1.000  H
  H32      1.0000 0.21930  0.66950  0.77050  Biso   1.000  H
  C41      1.0000 0.28940  0.51860  0.25663  Biso   1.000  C
  C42      1.0000 0.71060  0.48140  0.74337  Biso   1.000  C
  C43      1.0000 0.45050  0.53820  0.27510  Biso   1.000  C
  C44      1.0000 0.54950  0.46180  0.72490  Biso   1.000  C
  H33      1.0000 0.49430  0.46770  0.31330  Biso   1.000  H
  H34      1.0000 0.50570  0.53230  0.68670  Biso   1.000  H
  H35      1.0000 0.45290  0.60390  0.30410  Biso   1.000  H
  H36      1.0000 0.54710  0.39610  0.69590  Biso   1.000  H
  H37      1.0000 0.50710  0.55570  0.21970  Biso   1.000  H
  H38      1.0000 0.49290  0.44430  0.78030  Biso   1.000  H
  C45      1.0000 0.34590  0.96520  0.43714  Biso   1.000  C
  C46      1.0000 0.65410  0.03480  0.56286  Biso   1.000  C
  C47      1.0000 0.34270  0.84580  0.57464  Biso   1.000  C
  C48      1.0000 0.65730  0.15420  0.42536  Biso   1.000  C
  C49      1.0000 0.48570  0.83800  0.13678  Biso   1.000  C
  C50      1.0000 0.51430  0.16200  0.86322  Biso   1.000  C
  C51      1.0000 0.57410  0.82150  0.00075  Biso   1.000  C
  C52      1.0000 0.42590  0.17850  0.99925  Biso   1.000  C
  C53      1.0000 0.77480  0.02980  0.24729  Biso   1.000  C
  C54      1.0000 0.22520  0.97020  0.75271  Biso   1.000  C
  C55      1.0000 0.03030  0.04290  0.24189  Biso   1.000  C
  C56      1.0000 0.96970  0.95710  0.75811  Biso   1.000  C
  H39      1.0000 0.47600  0.23800  0.29190  Biso   1.000  H
  H40      1.0000 0.52400  0.76200  0.70810  Biso   1.000  H
  H41      1.0000 0.36600  0.31490  0.22700  Biso   1.000  H
  H42      1.0000 0.63400  0.68510  0.77300  Biso   1.000  H
