data_image0
_cell_length_a       9.7426
_cell_length_b       14.6448
_cell_length_c       18.502
_cell_angle_alpha    100.428
_cell_angle_beta     90.176
_cell_angle_gamma    94.226

_symmetry_space_group_name_H-M    "P 1"
_symmetry_int_tables_number       1

loop_
  _symmetry_equiv_pos_as_xyz
  'x, y, z'

loop_
  _atom_site_label
  _atom_site_occupancy
  _atom_site_fract_x
  _atom_site_fract_y
  _atom_site_fract_z
  _atom_site_thermal_displace_type
  _atom_site_B_iso_or_equiv
  _atom_site_type_symbol
  Cu1      1.0000 0.67030  0.02885  0.69446  Biso   1.000  Cu
  Cu2      1.0000 0.32970  0.97115  0.30554  Biso   1.000  Cu
  O1       1.0000 0.48940  0.00570  0.73420  Biso   1.000  O
  O2       1.0000 0.51060  0.99430  0.26580  Biso   1.000  O
  H1       1.0000 0.41810  0.04110  0.73240  Biso   1.000  H
  H2       1.0000 0.58190  0.95890  0.26760  Biso   1.000  H
  H3       1.0000 0.48720  0.99250  0.77980  Biso   1.000  H
  H4       1.0000 0.51280  0.00750  0.22020  Biso   1.000  H
  O3       1.0000 0.76340  0.09100  0.80910  Biso   1.000  O
  O4       1.0000 0.23660  0.90900  0.19090  Biso   1.000  O
  H5       1.0000 0.80900  0.06080  0.83880  Biso   1.000  H
  H6       1.0000 0.19100  0.93920  0.16120  Biso   1.000  H
  H7       1.0000 0.79200  0.15050  0.82780  Biso   1.000  H
  H8       1.0000 0.20800  0.84950  0.17220  Biso   1.000  H
  O5       1.0000 0.84310  0.04620  0.64390  Biso   1.000  O
  O6       1.0000 0.15690  0.95380  0.35610  Biso   1.000  O
  H9       1.0000 0.91670  0.02310  0.66150  Biso   1.000  H
  H10      1.0000 0.08330  0.97690  0.33850  Biso   1.000  H
  H11      1.0000 0.83890  0.02670  0.59490  Biso   1.000  H
  H12      1.0000 0.16110  0.97330  0.40510  Biso   1.000  H
  C1       1.0000 0.87320  0.53800  0.51210  Biso   1.000  C
  C2       1.0000 0.12680  0.46200  0.48790  Biso   1.000  C
  C3       1.0000 0.95160  0.55510  0.45210  Biso   1.000  C
  C4       1.0000 0.04840  0.44490  0.54790  Biso   1.000  C
  C5       1.0000 0.92090  0.48290  0.55990  Biso   1.000  C
  C6       1.0000 0.07910  0.51710  0.44010  Biso   1.000  C
  C7       1.0000 0.73390  0.57750  0.52370  Biso   1.000  C
  C8       1.0000 0.26610  0.42250  0.47630  Biso   1.000  C
  H13      1.0000 0.67160  0.53310  0.54280  Biso   1.000  H
  H14      1.0000 0.32840  0.46690  0.45720  Biso   1.000  H
  H15      1.0000 0.69710  0.58520  0.47660  Biso   1.000  H
  H16      1.0000 0.30290  0.41480  0.52340  Biso   1.000  H
  N1       1.0000 0.73870  0.66910  0.57540  Biso   1.000  N
  N2       1.0000 0.26130  0.33090  0.42460  Biso   1.000  N
  C9       1.0000 0.63680  0.72610  0.56980  Biso   1.000  C
  C10      1.0000 0.36320  0.27390  0.43020  Biso   1.000  C
  H17      1.0000 0.56930  0.70800  0.53330  Biso   1.000  H
  H18      1.0000 0.43070  0.29200  0.46670  Biso   1.000  H
  C11      1.0000 0.63110  0.80880  0.61620  Biso   1.000  C
  C12      1.0000 0.36890  0.19120  0.38380  Biso   1.000  C
  H19      1.0000 0.56160  0.84710  0.61010  Biso   1.000  H
  H20      1.0000 0.43840  0.15290  0.38990  Biso   1.000  H
  C13      1.0000 0.72750  0.83700  0.67290  Biso   1.000  C
  C14      1.0000 0.27250  0.16300  0.32710  Biso   1.000  C
  O7       1.0000 0.72890  0.91520  0.71880  Biso   1.000  O
  O8       1.0000 0.27110  0.08480  0.28120  Biso   1.000  O
  C15      1.0000 0.83030  0.77550  0.67920  Biso   1.000  C
  C16      1.0000 0.16970  0.22450  0.32080  Biso   1.000  C
  H21      1.0000 0.89580  0.79030  0.71690  Biso   1.000  H
  H22      1.0000 0.10420  0.20970  0.28310  Biso   1.000  H
  C17      1.0000 0.83280  0.69410  0.62960  Biso   1.000  C
  C18      1.0000 0.16720  0.30590  0.37040  Biso   1.000  C
  H23      1.0000 0.90220  0.65490  0.63370  Biso   1.000  H
  H24      1.0000 0.09780  0.34510  0.36630  Biso   1.000  H
  C19      1.0000 0.89540  0.60780  0.39640  Biso   1.000  C
  C20      1.0000 0.10460  0.39220  0.60360  Biso   1.000  C
  H25      1.0000 0.80950  0.57560  0.37610  Biso   1.000  H
  H26      1.0000 0.19050  0.42440  0.62390  Biso   1.000  H
  H27      1.0000 0.95980  0.60660  0.35640  Biso   1.000  H
  H28      1.0000 0.04020  0.39340  0.64360  Biso   1.000  H
  N3       1.0000 0.87090  0.70560  0.42600  Biso   1.000  N
  N4       1.0000 0.12910  0.29440  0.57400  Biso   1.000  N
  C21      1.0000 0.95820  0.76050  0.47540  Biso   1.000  C
  C22      1.0000 0.04180  0.23950  0.52460  Biso   1.000  C
  H29      1.0000 0.03360  0.73510  0.49290  Biso   1.000  H
  H30      1.0000 0.96640  0.26490  0.50710  Biso   1.000  H
  C23      1.0000 0.93820  0.85250  0.50030  Biso   1.000  C
  C24      1.0000 0.06180  0.14750  0.49970  Biso   1.000  C
  H31      1.0000 0.00160  0.88870  0.53320  Biso   1.000  H
  H32      1.0000 0.99840  0.11130  0.46680  Biso   1.000  H
  O9       1.0000 0.79790  0.97690  0.50180  Biso   1.000  O
  O10      1.0000 0.20210  0.02310  0.49820  Biso   1.000  O
  C25      1.0000 0.82310  0.89330  0.47680  Biso   1.000  C
  C26      1.0000 0.17690  0.10670  0.52320  Biso   1.000  C
  C27      1.0000 0.73700  0.83420  0.42220  Biso   1.000  C
  C28      1.0000 0.26300  0.16580  0.57780  Biso   1.000  C
  H33      1.0000 0.66330  0.85830  0.40190  Biso   1.000  H
  H34      1.0000 0.33670  0.14170  0.59810  Biso   1.000  H
  C29      1.0000 0.76160  0.74320  0.39950  Biso   1.000  C
  C30      1.0000 0.23840  0.25680  0.60050  Biso   1.000  C
  H35      1.0000 0.70230  0.70580  0.36510  Biso   1.000  H
  H36      1.0000 0.29770  0.29420  0.63490  Biso   1.000  H
  C31      1.0000 0.83770  0.47010  0.62770  Biso   1.000  C
  C32      1.0000 0.16230  0.52990  0.37230  Biso   1.000  C
  H37      1.0000 0.89550  0.49150  0.67110  Biso   1.000  H
  H38      1.0000 0.10450  0.50850  0.32890  Biso   1.000  H
  H39      1.0000 0.76090  0.50910  0.63100  Biso   1.000  H
  H40      1.0000 0.23910  0.49090  0.36900  Biso   1.000  H
  N5       1.0000 0.78430  0.37420  0.62800  Biso   1.000  N
  N6       1.0000 0.21570  0.62580  0.37200  Biso   1.000  N
  C33      1.0000 0.71340  0.32250  0.57010  Biso   1.000  C
  C34      1.0000 0.28660  0.67750  0.42990  Biso   1.000  C
  H41      1.0000 0.70610  0.34620  0.52700  Biso   1.000  H
  H42      1.0000 0.29390  0.65380  0.47300  Biso   1.000  H
  C35      1.0000 0.65220  0.23670  0.57300  Biso   1.000  C
  C36      1.0000 0.34780  0.76330  0.42700  Biso   1.000  C
  H43      1.0000 0.60420  0.20270  0.53210  Biso   1.000  H
  H44      1.0000 0.39580  0.79730  0.46790  Biso   1.000  H
  C37      1.0000 0.66140  0.19900  0.63860  Biso   1.000  C
  C38      1.0000 0.33860  0.80100  0.36140  Biso   1.000  C
  O11      1.0000 0.59950  0.11920  0.64270  Biso   1.000  O
  O12      1.0000 0.40050  0.88080  0.35730  Biso   1.000  O
  C39      1.0000 0.73750  0.25400  0.69630  Biso   1.000  C
  C40      1.0000 0.26250  0.74600  0.30370  Biso   1.000  C
  H45      1.0000 0.74960  0.23130  0.73960  Biso   1.000  H
  H46      1.0000 0.25040  0.76870  0.26040  Biso   1.000  H
  C41      1.0000 0.79450  0.33990  0.69110  Biso   1.000  C
  C42      1.0000 0.20550  0.66010  0.30890  Biso   1.000  C
  H47      1.0000 0.84140  0.37600  0.73150  Biso   1.000  H
  H48      1.0000 0.15860  0.62400  0.26850  Biso   1.000  H
  C43      1.0000 0.40330  0.48550  0.94180  Biso   1.000  C
  C44      1.0000 0.59670  0.51450  0.05820  Biso   1.000  C
  C45      1.0000 0.37750  0.44530  0.00480  Biso   1.000  C
  C46      1.0000 0.62250  0.55470  0.99520  Biso   1.000  C
  C47      1.0000 0.52610  0.53980  0.93770  Biso   1.000  C
  C48      1.0000 0.47390  0.46020  0.06230  Biso   1.000  C
  C49      1.0000 0.29680  0.47000  0.88010  Biso   1.000  C
  C50      1.0000 0.70320  0.53000  0.11990  Biso   1.000  C
  H49      1.0000 0.20750  0.48400  0.90050  Biso   1.000  H
  H50      1.0000 0.79250  0.51600  0.09950  Biso   1.000  H
  H51      1.0000 0.32020  0.51240  0.84660  Biso   1.000  H
  H52      1.0000 0.67980  0.48760  0.15340  Biso   1.000  H
  N7       1.0000 0.28840  0.37310  0.83900  Biso   1.000  N
  N8       1.0000 0.71160  0.62690  0.16100  Biso   1.000  N
  C51      1.0000 0.40570  0.33340  0.81460  Biso   1.000  C
  C52      1.0000 0.59430  0.66660  0.18540  Biso   1.000  C
  H53      1.0000 0.48960  0.36880  0.82160  Biso   1.000  H
  H54      1.0000 0.51040  0.63120  0.17840  Biso   1.000  H
  C53      1.0000 0.40230  0.24330  0.78040  Biso   1.000  C
  C54      1.0000 0.59770  0.75670  0.21960  Biso   1.000  C
  H55      1.0000 0.48420  0.21780  0.76490  Biso   1.000  H
  H56      1.0000 0.51580  0.78220  0.23510  Biso   1.000  H
  O13      1.0000 0.27390  0.10130  0.73970  Biso   1.000  O
  O14      1.0000 0.72610  0.89870  0.26030  Biso   1.000  O
  C55      1.0000 0.27740  0.18700  0.76750  Biso   1.000  C
  C56      1.0000 0.72260  0.81300  0.23250  Biso   1.000  C
  C57      1.0000 0.15670  0.23390  0.79000  Biso   1.000  C
  C58      1.0000 0.84330  0.76610  0.21000  Biso   1.000  C
  H57      1.0000 0.07040  0.20210  0.78090  Biso   1.000  H
  H58      1.0000 0.92960  0.79790  0.21910  Biso   1.000  H
  C59      1.0000 0.16660  0.32340  0.82420  Biso   1.000  C
  C60      1.0000 0.83340  0.67660  0.17580  Biso   1.000  C
  H59      1.0000 0.08620  0.35200  0.83810  Biso   1.000  H
  H60      1.0000 0.91380  0.64800  0.16190  Biso   1.000  H
  C61      1.0000 0.24040  0.39170  0.01140  Biso   1.000  C
  C62      1.0000 0.75960  0.60830  0.98860  Biso   1.000  C
  H61      1.0000 0.20960  0.40780  0.06160  Biso   1.000  H
  H62      1.0000 0.79040  0.59220  0.93840  Biso   1.000  H
  H63      1.0000 0.17360  0.41180  0.97980  Biso   1.000  H
  H64      1.0000 0.82640  0.58820  0.02020  Biso   1.000  H
  N9       1.0000 0.24210  0.28800  0.99190  Biso   1.000  N
  N10      1.0000 0.75790  0.71200  0.00810  Biso   1.000  N
  C63      1.0000 0.35400  0.24540  0.96450  Biso   1.000  C
  C64      1.0000 0.64600  0.75460  0.03550  Biso   1.000  C
  H65      1.0000 0.43490  0.28130  0.95920  Biso   1.000  H
  H66      1.0000 0.56510  0.71870  0.04080  Biso   1.000  H
  C65      1.0000 0.35120  0.15130  0.94430  Biso   1.000  C
  C66      1.0000 0.64880  0.84870  0.05570  Biso   1.000  C
  H67      1.0000 0.42950  0.12380  0.92530  Biso   1.000  H
  H68      1.0000 0.57050  0.87620  0.07470  Biso   1.000  H
  C67      1.0000 0.23130  0.09550  0.95210  Biso   1.000  C
  C68      1.0000 0.76870  0.90450  0.04790  Biso   1.000  C
  O15      1.0000 0.22170  0.00440  0.93200  Biso   1.000  O
  O16      1.0000 0.77830  0.99560  0.06800  Biso   1.000  O
  C69      1.0000 0.11750  0.14170  0.98240  Biso   1.000  C
  C70      1.0000 0.88250  0.85830  0.01760  Biso   1.000  C
  H69      1.0000 0.03620  0.10730  0.98960  Biso   1.000  H
  H70      1.0000 0.96380  0.89270  0.01040  Biso   1.000  H
  C71      1.0000 0.12520  0.23620  0.00110  Biso   1.000  C
  C72      1.0000 0.87480  0.76380  0.99890  Biso   1.000  C
  H71      1.0000 0.04860  0.26560  0.02060  Biso   1.000  H
  H72      1.0000 0.95140  0.73440  0.97940  Biso   1.000  H
  C73      1.0000 0.55880  0.58010  0.86890  Biso   1.000  C
  C74      1.0000 0.44120  0.41990  0.13110  Biso   1.000  C
  H73      1.0000 0.50760  0.54240  0.82760  Biso   1.000  H
  H74      1.0000 0.49240  0.45760  0.17240  Biso   1.000  H
  H75      1.0000 0.65600  0.57620  0.85880  Biso   1.000  H
  H76      1.0000 0.34400  0.42380  0.14120  Biso   1.000  H
  N11      1.0000 0.52520  0.67890  0.87460  Biso   1.000  N
  N12      1.0000 0.47480  0.32110  0.12540  Biso   1.000  N
  C75      1.0000 0.40350  0.70830  0.90070  Biso   1.000  C
  C76      1.0000 0.59650  0.29170  0.09930  Biso   1.000  C
  H77      1.0000 0.34080  0.66670  0.91810  Biso   1.000  H
  H78      1.0000 0.65920  0.33330  0.08190  Biso   1.000  H
  C77      1.0000 0.37030  0.79740  0.90210  Biso   1.000  C
  C78      1.0000 0.62970  0.20260  0.09790  Biso   1.000  C
  H79      1.0000 0.28660  0.81590  0.92130  Biso   1.000  H
  H80      1.0000 0.71340  0.18410  0.07870  Biso   1.000  H
  O17      1.0000 0.43290  0.94630  0.87280  Biso   1.000  O
  O18      1.0000 0.56710  0.05370  0.12720  Biso   1.000  O
  C79      1.0000 0.46060  0.86080  0.87510  Biso   1.000  C
  C80      1.0000 0.53940  0.13920  0.12490  Biso   1.000  C
  C81      1.0000 0.58790  0.82880  0.84940  Biso   1.000  C
  C82      1.0000 0.41210  0.17120  0.15060  Biso   1.000  C
  H81      1.0000 0.65290  0.86930  0.83240  Biso   1.000  H
  H82      1.0000 0.34710  0.13070  0.16760  Biso   1.000  H
  C83      1.0000 0.61580  0.74020  0.84930  Biso   1.000  C
  C84      1.0000 0.38420  0.25980  0.15070  Biso   1.000  C
  H83      1.0000 0.69970  0.72040  0.83130  Biso   1.000  H
  H84      1.0000 0.30030  0.27960  0.16870  Biso   1.000  H
  Cl1      1.0000 0.45138  0.53081  0.66305  Biso   1.000  Cl
  Cl2      1.0000 0.54862  0.46919  0.33695  Biso   1.000  Cl
  O19      1.0000 0.36980  0.57860  0.61550  Biso   1.000  O
  O20      1.0000 0.63020  0.42140  0.38450  Biso   1.000  O
  O21      1.0000 0.56770  0.58470  0.69280  Biso   1.000  O
  O22      1.0000 0.43230  0.41530  0.30720  Biso   1.000  O
  O23      1.0000 0.36140  0.49670  0.71410  Biso   1.000  O
  O24      1.0000 0.63860  0.50330  0.28590  Biso   1.000  O
  O25      1.0000 0.49290  0.44750  0.61570  Biso   1.000  O
  O26      1.0000 0.50710  0.55250  0.38430  Biso   1.000  O
  Cl3      1.0000 0.78944  0.34447  0.91223  Biso   1.000  Cl
  Cl4      1.0000 0.21056  0.65553  0.08777  Biso   1.000  Cl
  O27      1.0000 0.88840  0.40510  0.95870  Biso   1.000  O
  O28      1.0000 0.11160  0.59490  0.04130  Biso   1.000  O
  O29      1.0000 0.86760  0.27610  0.86670  Biso   1.000  O
  O30      1.0000 0.13240  0.72390  0.13330  Biso   1.000  O
  O31      1.0000 0.74300  0.40390  0.85850  Biso   1.000  O
  O32      1.0000 0.25700  0.59610  0.14150  Biso   1.000  O
  O33      1.0000 0.67340  0.32400  0.94000  Biso   1.000  O
  O34      1.0000 0.32660  0.67600  0.06000  Biso   1.000  O
  Cl5      1.0000 0.01732  0.60648  0.80321  Biso   1.000  Cl
  Cl6      1.0000 0.98268  0.39352  0.19679  Biso   1.000  Cl
  O35      1.0000 0.05870  0.63610  0.73520  Biso   1.000  O
  O36      1.0000 0.94130  0.36390  0.26480  Biso   1.000  O
  O37      1.0000 0.88050  0.61660  0.81030  Biso   1.000  O
  O38      1.0000 0.11950  0.38340  0.18970  Biso   1.000  O
  O39      1.0000 0.10390  0.64910  0.85980  Biso   1.000  O
  O40      1.0000 0.89610  0.35090  0.14020  Biso   1.000  O
  O41      1.0000 0.04610  0.51180  0.78090  Biso   1.000  O
  O42      1.0000 0.95390  0.48820  0.21910  Biso   1.000  O
  O43      1.0000 0.05860  0.97540  0.69900  Biso   1.000  O
  O44      1.0000 0.94140  0.02460  0.30100  Biso   1.000  O
  O45      1.0000 0.41620  0.95240  0.55750  Biso   1.000  O
  O46      1.0000 0.58380  0.04760  0.44250  Biso   1.000  O
  O47      1.0000 0.95380  0.95870  0.84520  Biso   1.000  O
  O48      1.0000 0.04620  0.04130  0.15480  Biso   1.000  O
  O49      1.0000 0.21390  0.83680  0.61620  Biso   1.000  O
  O50      1.0000 0.78610  0.16320  0.38380  Biso   1.000  O
  O51      1.0000 0.41490  0.56510  0.60140  Biso   1.000  O
  O52      1.0000 0.58510  0.43490  0.39860  Biso   1.000  O
  O53      1.0000 0.57170  0.59110  0.69740  Biso   1.000  O
  O54      1.0000 0.42830  0.40890  0.30260  Biso   1.000  O
  O55      1.0000 0.34830  0.54470  0.71390  Biso   1.000  O
  O56      1.0000 0.65170  0.45530  0.28610  Biso   1.000  O
  O57      1.0000 0.48420  0.44320  0.66930  Biso   1.000  O
  O58      1.0000 0.51580  0.55680  0.33070  Biso   1.000  O
  O59      1.0000 0.83540  0.38720  0.98250  Biso   1.000  O
  O60      1.0000 0.16460  0.61280  0.01750  Biso   1.000  O
  O61      1.0000 0.87790  0.27630  0.88680  Biso   1.000  O
  O62      1.0000 0.12210  0.72370  0.11320  Biso   1.000  O
  O63      1.0000 0.76290  0.41110  0.87100  Biso   1.000  O
  O64      1.0000 0.23710  0.58890  0.12900  Biso   1.000  O
  O65      1.0000 0.65850  0.28860  0.92340  Biso   1.000  O
  O66      1.0000 0.34150  0.71140  0.07660  Biso   1.000  O
  O67      1.0000 0.07710  0.68500  0.77980  Biso   1.000  O
  O68      1.0000 0.92290  0.31500  0.22020  Biso   1.000  O
  O69      1.0000 0.86690  0.61040  0.80080  Biso   1.000  O
  O70      1.0000 0.13310  0.38960  0.19920  Biso   1.000  O
  O71      1.0000 0.06150  0.62200  0.87910  Biso   1.000  O
  O72      1.0000 0.93850  0.37800  0.12090  Biso   1.000  O
  O73      1.0000 0.02700  0.49650  0.78310  Biso   1.000  O
  O74      1.0000 0.97300  0.50350  0.21690  Biso   1.000  O
  O75      1.0000 0.31270  0.90420  0.58790  Biso   1.000  O
  O76      1.0000 0.68730  0.09580  0.41210  Biso   1.000  O
  O77      1.0000 0.04840  0.89000  0.83700  Biso   1.000  O
  O78      1.0000 0.95160  0.11000  0.16300  Biso   1.000  O
  O79      1.0000 0.17900  0.69530  0.59940  Biso   1.000  O
  O80      1.0000 0.82100  0.30470  0.40060  Biso   1.000  O
