data_image0
_cell_length_a       14.507
_cell_length_b       10.3955
_cell_length_c       17.784
_cell_angle_alpha    90
_cell_angle_beta     98.064
_cell_angle_gamma    90

_symmetry_space_group_name_H-M    "P 1"
_symmetry_int_tables_number       1

loop_
  _symmetry_equiv_pos_as_xyz
  'x, y, z'

loop_
  _atom_site_label
  _atom_site_occupancy
  _atom_site_fract_x
  _atom_site_fract_y
  _atom_site_fract_z
  _atom_site_thermal_displace_type
  _atom_site_B_iso_or_equiv
  _atom_site_type_symbol
  Cu1      1.0000 0.51889  0.59109  0.13333  Biso   1.000  Cu
  Cu2      1.0000 0.48111  0.09109  0.36667  Biso   1.000  Cu
  Cu3      1.0000 0.48111  0.40891  0.86667  Biso   1.000  Cu
  Cu4      1.0000 0.51889  0.90891  0.63333  Biso   1.000  Cu
  Cl1      1.0000 0.65295  0.63420  0.06222  Biso   1.000  Cl
  Cl2      1.0000 0.34705  0.13420  0.43778  Biso   1.000  Cl
  Cl3      1.0000 0.34705  0.36580  0.93778  Biso   1.000  Cl
  Cl4      1.0000 0.65295  0.86580  0.56222  Biso   1.000  Cl
  C1       1.0000 0.96070  0.44390  0.43140  Biso   1.000  C
  C2       1.0000 0.03930  0.94390  0.06860  Biso   1.000  C
  C3       1.0000 0.03930  0.55610  0.56860  Biso   1.000  C
  C4       1.0000 0.96070  0.05610  0.93140  Biso   1.000  C
  C5       1.0000 0.97200  0.37060  0.49810  Biso   1.000  C
  C6       1.0000 0.02800  0.87060  0.00190  Biso   1.000  C
  C7       1.0000 0.02800  0.62940  0.50190  Biso   1.000  C
  C8       1.0000 0.97200  0.12940  0.99810  Biso   1.000  C
  C9       1.0000 0.98750  0.57340  0.43290  Biso   1.000  C
  C10      1.0000 0.01250  0.07340  0.06710  Biso   1.000  C
  C11      1.0000 0.01250  0.42660  0.56710  Biso   1.000  C
  C12      1.0000 0.98750  0.92660  0.93290  Biso   1.000  C
  C13      1.0000 0.92280  0.38100  0.35600  Biso   1.000  C
  C14      1.0000 0.07720  0.88100  0.14400  Biso   1.000  C
  C15      1.0000 0.07720  0.61900  0.64400  Biso   1.000  C
  C16      1.0000 0.92280  0.11900  0.85600  Biso   1.000  C
  H1       1.0000 0.96170  0.40610  0.31840  Biso   1.000  H
  H2       1.0000 0.03830  0.90610  0.18160  Biso   1.000  H
  H3       1.0000 0.03830  0.59390  0.68160  Biso   1.000  H
  H4       1.0000 0.96170  0.09390  0.81840  Biso   1.000  H
  H5       1.0000 0.92780  0.28840  0.36200  Biso   1.000  H
  H6       1.0000 0.07220  0.78840  0.13800  Biso   1.000  H
  H7       1.0000 0.07220  0.71160  0.63800  Biso   1.000  H
  H8       1.0000 0.92780  0.21160  0.86200  Biso   1.000  H
  N1       1.0000 0.82500  0.41370  0.32690  Biso   1.000  N
  N2       1.0000 0.17500  0.91370  0.17310  Biso   1.000  N
  N3       1.0000 0.17500  0.58630  0.67310  Biso   1.000  N
  N4       1.0000 0.82500  0.08630  0.82690  Biso   1.000  N
  C17      1.0000 0.79520  0.40000  0.25100  Biso   1.000  C
  C18      1.0000 0.20480  0.90000  0.24900  Biso   1.000  C
  C19      1.0000 0.20480  0.60000  0.74900  Biso   1.000  C
  C20      1.0000 0.79520  0.10000  0.75100  Biso   1.000  C
  H9       1.0000 0.83610  0.36630  0.22030  Biso   1.000  H
  H10      1.0000 0.16390  0.86630  0.27970  Biso   1.000  H
  H11      1.0000 0.16390  0.63370  0.77970  Biso   1.000  H
  H12      1.0000 0.83610  0.13370  0.72030  Biso   1.000  H
  C21      1.0000 0.70950  0.43330  0.21930  Biso   1.000  C
  C22      1.0000 0.29050  0.93330  0.28070  Biso   1.000  C
  C23      1.0000 0.29050  0.56670  0.78070  Biso   1.000  C
  C24      1.0000 0.70950  0.06670  0.71930  Biso   1.000  C
  H13      1.0000 0.69140  0.41940  0.16770  Biso   1.000  H
  H14      1.0000 0.30860  0.91940  0.33230  Biso   1.000  H
  H15      1.0000 0.30860  0.58060  0.83230  Biso   1.000  H
  H16      1.0000 0.69140  0.08060  0.66770  Biso   1.000  H
  C25      1.0000 0.64560  0.49000  0.26380  Biso   1.000  C
  C26      1.0000 0.35440  0.99000  0.23620  Biso   1.000  C
  C27      1.0000 0.35440  0.51000  0.73620  Biso   1.000  C
  C28      1.0000 0.64560  0.01000  0.76380  Biso   1.000  C
  O1       1.0000 0.56630  0.53840  0.23660  Biso   1.000  O
  O2       1.0000 0.43370  0.03840  0.26340  Biso   1.000  O
  O3       1.0000 0.43370  0.46160  0.76340  Biso   1.000  O
  O4       1.0000 0.56630  0.96160  0.73660  Biso   1.000  O
  C29      1.0000 0.67520  0.49210  0.34310  Biso   1.000  C
  C30      1.0000 0.32480  0.99210  0.15690  Biso   1.000  C
  C31      1.0000 0.32480  0.50790  0.65690  Biso   1.000  C
  C32      1.0000 0.67520  0.00790  0.84310  Biso   1.000  C
  H17      1.0000 0.63390  0.51790  0.37570  Biso   1.000  H
  H18      1.0000 0.36610  0.01790  0.12430  Biso   1.000  H
  H19      1.0000 0.36610  0.48210  0.62430  Biso   1.000  H
  H20      1.0000 0.63390  0.98210  0.87570  Biso   1.000  H
  C33      1.0000 0.76370  0.45680  0.37230  Biso   1.000  C
  C34      1.0000 0.23630  0.95680  0.12770  Biso   1.000  C
  C35      1.0000 0.23630  0.54320  0.62770  Biso   1.000  C
  C36      1.0000 0.76370  0.04320  0.87230  Biso   1.000  C
  H21      1.0000 0.78240  0.46240  0.42440  Biso   1.000  H
  H22      1.0000 0.21760  0.96240  0.07560  Biso   1.000  H
  H23      1.0000 0.21760  0.53760  0.57560  Biso   1.000  H
  H24      1.0000 0.78240  0.03760  0.92440  Biso   1.000  H
  C37      1.0000 0.94440  0.22790  0.49560  Biso   1.000  C
  C38      1.0000 0.05560  0.72790  0.00440  Biso   1.000  C
  C39      1.0000 0.05560  0.77210  0.50440  Biso   1.000  C
  C40      1.0000 0.94440  0.27210  0.99560  Biso   1.000  C
  H25      1.0000 0.97050  0.18590  0.45460  Biso   1.000  H
  H26      1.0000 0.02950  0.68590  0.04540  Biso   1.000  H
  H27      1.0000 0.02950  0.81410  0.54540  Biso   1.000  H
  H28      1.0000 0.97050  0.31410  0.95460  Biso   1.000  H
  H29      1.0000 0.97070  0.18710  0.54280  Biso   1.000  H
  H30      1.0000 0.02930  0.68710  0.95720  Biso   1.000  H
  H31      1.0000 0.02930  0.81290  0.45720  Biso   1.000  H
  H32      1.0000 0.97070  0.31290  0.04280  Biso   1.000  H
  N5       1.0000 0.84180  0.20970  0.48410  Biso   1.000  N
  N6       1.0000 0.15820  0.70970  0.01590  Biso   1.000  N
  N7       1.0000 0.15820  0.79030  0.51590  Biso   1.000  N
  N8       1.0000 0.84180  0.29030  0.98410  Biso   1.000  N
  C41      1.0000 0.78870  0.25510  0.53630  Biso   1.000  C
  C42      1.0000 0.21130  0.75510  0.96370  Biso   1.000  C
  C43      1.0000 0.21130  0.74490  0.46370  Biso   1.000  C
  C44      1.0000 0.78870  0.24490  0.03630  Biso   1.000  C
  H33      1.0000 0.81760  0.29930  0.57860  Biso   1.000  H
  H34      1.0000 0.18240  0.79930  0.92140  Biso   1.000  H
  H35      1.0000 0.18240  0.70070  0.42140  Biso   1.000  H
  H36      1.0000 0.81760  0.20070  0.07860  Biso   1.000  H
  C45      1.0000 0.69670  0.23740  0.52810  Biso   1.000  C
  C46      1.0000 0.30330  0.73740  0.97190  Biso   1.000  C
  C47      1.0000 0.30330  0.76260  0.47190  Biso   1.000  C
  C48      1.0000 0.69670  0.26260  0.02810  Biso   1.000  C
  H37      1.0000 0.66330  0.27070  0.56460  Biso   1.000  H
  H38      1.0000 0.33670  0.77070  0.93540  Biso   1.000  H
  H39      1.0000 0.33670  0.72930  0.43540  Biso   1.000  H
  H40      1.0000 0.66330  0.22930  0.06460  Biso   1.000  H
  C49      1.0000 0.70480  0.12410  0.41210  Biso   1.000  C
  C50      1.0000 0.29520  0.62410  0.08790  Biso   1.000  C
  C51      1.0000 0.29520  0.87590  0.58790  Biso   1.000  C
  C52      1.0000 0.70480  0.37590  0.91210  Biso   1.000  C
  H41      1.0000 0.67730  0.08110  0.36890  Biso   1.000  H
  H42      1.0000 0.32270  0.58110  0.13110  Biso   1.000  H
  H43      1.0000 0.32270  0.91890  0.63110  Biso   1.000  H
  H44      1.0000 0.67730  0.41890  0.86890  Biso   1.000  H
  C53      1.0000 0.64790  0.16910  0.46510  Biso   1.000  C
  C54      1.0000 0.35210  0.66910  0.03490  Biso   1.000  C
  C55      1.0000 0.35210  0.83090  0.53490  Biso   1.000  C
  C56      1.0000 0.64790  0.33090  0.96510  Biso   1.000  C
  O5       1.0000 0.55980  0.15260  0.45780  Biso   1.000  O
  O6       1.0000 0.44020  0.65260  0.04220  Biso   1.000  O
  O7       1.0000 0.44020  0.84740  0.54220  Biso   1.000  O
  O8       1.0000 0.55980  0.34740  0.95780  Biso   1.000  O
  C57      1.0000 0.79920  0.14220  0.42290  Biso   1.000  C
  C58      1.0000 0.20080  0.64220  0.07710  Biso   1.000  C
  C59      1.0000 0.20080  0.85780  0.57710  Biso   1.000  C
  C60      1.0000 0.79920  0.35780  0.92290  Biso   1.000  C
  H45      1.0000 0.83480  0.10820  0.38810  Biso   1.000  H
  H46      1.0000 0.16520  0.60820  0.11190  Biso   1.000  H
  H47      1.0000 0.16520  0.89180  0.61190  Biso   1.000  H
  H48      1.0000 0.83480  0.39180  0.88810  Biso   1.000  H
  C61      1.0000 0.97260  0.65300  0.36080  Biso   1.000  C
  C62      1.0000 0.02740  0.15300  0.13920  Biso   1.000  C
  C63      1.0000 0.02740  0.34700  0.63920  Biso   1.000  C
  C64      1.0000 0.97260  0.84700  0.86080  Biso   1.000  C
  H49      1.0000 0.01760  0.72240  0.36500  Biso   1.000  H
  H50      1.0000 0.98240  0.22240  0.13500  Biso   1.000  H
  H51      1.0000 0.98240  0.27760  0.63500  Biso   1.000  H
  H52      1.0000 0.01760  0.77760  0.86500  Biso   1.000  H
  H53      1.0000 0.98370  0.59930  0.31830  Biso   1.000  H
  H54      1.0000 0.01630  0.09930  0.18170  Biso   1.000  H
  H55      1.0000 0.01630  0.40070  0.68170  Biso   1.000  H
  H56      1.0000 0.98370  0.90070  0.81830  Biso   1.000  H
  N9       1.0000 0.87830  0.70770  0.34500  Biso   1.000  N
  N10      1.0000 0.12170  0.20770  0.15500  Biso   1.000  N
  N11      1.0000 0.12170  0.29230  0.65500  Biso   1.000  N
  N12      1.0000 0.87830  0.79230  0.84500  Biso   1.000  N
  C65      1.0000 0.83350  0.75550  0.40130  Biso   1.000  C
  C66      1.0000 0.16650  0.25550  0.09870  Biso   1.000  C
  C67      1.0000 0.16650  0.24450  0.59870  Biso   1.000  C
  C68      1.0000 0.83350  0.74450  0.90130  Biso   1.000  C
  H57      1.0000 0.86390  0.75410  0.45090  Biso   1.000  H
  H58      1.0000 0.13610  0.25410  0.04910  Biso   1.000  H
  H59      1.0000 0.13610  0.24590  0.54910  Biso   1.000  H
  H60      1.0000 0.86390  0.74590  0.95090  Biso   1.000  H
  C69      1.0000 0.74680  0.80450  0.38800  Biso   1.000  C
  C70      1.0000 0.25320  0.30450  0.11200  Biso   1.000  C
  C71      1.0000 0.25320  0.19550  0.61200  Biso   1.000  C
  C72      1.0000 0.74680  0.69550  0.88800  Biso   1.000  C
  H61      1.0000 0.71860  0.83550  0.42820  Biso   1.000  H
  H62      1.0000 0.28140  0.33550  0.07180  Biso   1.000  H
  H63      1.0000 0.28140  0.16450  0.57180  Biso   1.000  H
  H64      1.0000 0.71860  0.66450  0.92820  Biso   1.000  H
  C73      1.0000 0.69820  0.80920  0.31280  Biso   1.000  C
  C74      1.0000 0.30180  0.30920  0.18720  Biso   1.000  C
  C75      1.0000 0.30180  0.19080  0.68720  Biso   1.000  C
  C76      1.0000 0.69820  0.69080  0.81280  Biso   1.000  C
  O9       1.0000 0.61320  0.84660  0.29860  Biso   1.000  O
  O10      1.0000 0.38680  0.34660  0.20140  Biso   1.000  O
  O11      1.0000 0.38680  0.15340  0.70140  Biso   1.000  O
  O12      1.0000 0.61320  0.65340  0.79860  Biso   1.000  O
  C77      1.0000 0.75030  0.76940  0.25400  Biso   1.000  C
  C78      1.0000 0.24970  0.26940  0.24600  Biso   1.000  C
  C79      1.0000 0.24970  0.23060  0.74600  Biso   1.000  C
  C80      1.0000 0.75030  0.73060  0.75400  Biso   1.000  C
  H65      1.0000 0.72450  0.77810  0.20330  Biso   1.000  H
  H66      1.0000 0.27550  0.27810  0.29670  Biso   1.000  H
  H67      1.0000 0.27550  0.22190  0.79670  Biso   1.000  H
  H68      1.0000 0.72450  0.72190  0.70330  Biso   1.000  H
  C81      1.0000 0.83620  0.71970  0.27160  Biso   1.000  C
  C82      1.0000 0.16380  0.21970  0.22840  Biso   1.000  C
  C83      1.0000 0.16380  0.28030  0.72840  Biso   1.000  C
  C84      1.0000 0.83620  0.78030  0.77160  Biso   1.000  C
  H69      1.0000 0.86800  0.69260  0.23250  Biso   1.000  H
  H70      1.0000 0.13200  0.19260  0.26750  Biso   1.000  H
  H71      1.0000 0.13200  0.30740  0.76750  Biso   1.000  H
  H72      1.0000 0.86800  0.80740  0.73250  Biso   1.000  H
  O13      1.0000 0.50120  0.40850  0.10520  Biso   1.000  O
  O14      1.0000 0.49880  0.90850  0.39480  Biso   1.000  O
  O15      1.0000 0.49880  0.59150  0.89480  Biso   1.000  O
  O16      1.0000 0.50120  0.09150  0.60520  Biso   1.000  O
  H73      1.0000 0.49230  0.39930  0.05440  Biso   1.000  H
  H74      1.0000 0.50770  0.89930  0.44560  Biso   1.000  H
  H75      1.0000 0.50770  0.60070  0.94560  Biso   1.000  H
  H76      1.0000 0.49230  0.10070  0.55440  Biso   1.000  H
  H77      1.0000 0.44390  0.38270  0.11260  Biso   1.000  H
  H78      1.0000 0.55610  0.88270  0.38740  Biso   1.000  H
  H79      1.0000 0.55610  0.61730  0.88740  Biso   1.000  H
  H80      1.0000 0.44390  0.11730  0.61260  Biso   1.000  H
  O17      1.0000 0.50450  0.76350  0.17590  Biso   1.000  O
  O18      1.0000 0.49550  0.26350  0.32410  Biso   1.000  O
  O19      1.0000 0.49550  0.23650  0.82410  Biso   1.000  O
  O20      1.0000 0.50450  0.73650  0.67590  Biso   1.000  O
  H81      1.0000 0.51450  0.82510  0.14240  Biso   1.000  H
  H82      1.0000 0.48550  0.32510  0.35760  Biso   1.000  H
  H83      1.0000 0.48550  0.17490  0.85760  Biso   1.000  H
  H84      1.0000 0.51450  0.67490  0.64240  Biso   1.000  H
  H85      1.0000 0.55400  0.78440  0.21010  Biso   1.000  H
  H86      1.0000 0.44600  0.28440  0.28990  Biso   1.000  H
  H87      1.0000 0.44600  0.21560  0.78990  Biso   1.000  H
  H88      1.0000 0.55400  0.71560  0.71010  Biso   1.000  H
  Br1      1.0000 0.01186  0.49998  0.17340  Biso   1.000  Br
  Br2      1.0000 0.98814  0.99998  0.32660  Biso   1.000  Br
  Br3      1.0000 0.98814  0.50002  0.82660  Biso   1.000  Br
  Br4      1.0000 0.01186  0.00002  0.67340  Biso   1.000  Br
  O21      1.0000 0.78710  0.91660  0.06380  Biso   1.000  O
  O22      1.0000 0.21290  0.41660  0.43620  Biso   1.000  O
  O23      1.0000 0.21290  0.08340  0.93620  Biso   1.000  O
  O24      1.0000 0.78710  0.58340  0.56380  Biso   1.000  O
  O25      1.0000 0.57920  0.92430  0.04500  Biso   1.000  O
  O26      1.0000 0.42080  0.42430  0.45500  Biso   1.000  O
  O27      1.0000 0.42080  0.07570  0.95500  Biso   1.000  O
  O28      1.0000 0.57920  0.57570  0.54500  Biso   1.000  O
  O29      1.0000 0.85910  0.68450  0.08090  Biso   1.000  O
  O30      1.0000 0.14090  0.18450  0.41910  Biso   1.000  O
  O31      1.0000 0.14090  0.31550  0.91910  Biso   1.000  O
  O32      1.0000 0.85910  0.81550  0.58090  Biso   1.000  O
  O33      1.0000 0.37990  0.61890  0.29680  Biso   1.000  O
  O34      1.0000 0.62010  0.11890  0.20320  Biso   1.000  O
  O35      1.0000 0.62010  0.38110  0.70320  Biso   1.000  O
  O36      1.0000 0.37990  0.88110  0.79680  Biso   1.000  O
  O37      1.0000 0.18700  0.58540  0.30500  Biso   1.000  O
  O38      1.0000 0.81300  0.08540  0.19500  Biso   1.000  O
  O39      1.0000 0.81300  0.41460  0.69500  Biso   1.000  O
  O40      1.0000 0.18700  0.91460  0.80500  Biso   1.000  O
  O41      1.0000 0.54060  0.95360  0.07570  Biso   1.000  O
  O42      1.0000 0.45940  0.45360  0.42430  Biso   1.000  O
  O43      1.0000 0.45940  0.04640  0.92430  Biso   1.000  O
  O44      1.0000 0.54060  0.54640  0.57570  Biso   1.000  O
  O45      1.0000 0.85200  0.58570  0.05940  Biso   1.000  O
  O46      1.0000 0.14800  0.08570  0.44060  Biso   1.000  O
  O47      1.0000 0.14800  0.41430  0.94060  Biso   1.000  O
  O48      1.0000 0.85200  0.91430  0.55940  Biso   1.000  O
