data_image0
_cell_length_a       8.161
_cell_length_b       10.797
_cell_length_c       15.335
_cell_angle_alpha    105.34
_cell_angle_beta     93.9
_cell_angle_gamma    107.15

_symmetry_space_group_name_H-M    "P 1"
_symmetry_int_tables_number       1

loop_
  _symmetry_equiv_pos_as_xyz
  'x, y, z'

loop_
  _atom_site_label
  _atom_site_occupancy
  _atom_site_fract_x
  _atom_site_fract_y
  _atom_site_fract_z
  _atom_site_thermal_displace_type
  _atom_site_B_iso_or_equiv
  _atom_site_type_symbol
  Cu1      1.0000 0.70813  0.03846  0.31067  Biso   1.000  Cu
  Cu2      1.0000 0.29187  0.96154  0.68933  Biso   1.000  Cu
  Cu3      1.0000 0.12254  0.12006  0.27155  Biso   1.000  Cu
  Cu4      1.0000 0.87746  0.87994  0.72845  Biso   1.000  Cu
  P1       1.0000 0.86510  0.81738  0.21823  Biso   1.000  P
  P2       1.0000 0.13490  0.18262  0.78177  Biso   1.000  P
  O1       1.0000 0.89520  0.14220  0.25948  Biso   1.000  O
  O2       1.0000 0.10480  0.85780  0.74052  Biso   1.000  O
  O3       1.0000 0.76740  0.27710  0.20136  Biso   1.000  O
  O4       1.0000 0.23260  0.72290  0.79864  Biso   1.000  O
  O5       1.0000 0.86120  0.69660  0.25984  Biso   1.000  O
  O6       1.0000 0.13880  0.30340  0.74016  Biso   1.000  O
  H1       1.0000 0.84820  0.71300  0.30710  Biso   1.000  H
  H2       1.0000 0.15180  0.28700  0.69290  Biso   1.000  H
  O7       1.0000 0.04020  0.92730  0.25500  Biso   1.000  O
  O8       1.0000 0.95980  0.07270  0.74500  Biso   1.000  O
  O9       1.0000 0.71240  0.86460  0.24090  Biso   1.000  O
  O10      1.0000 0.28760  0.13540  0.75910  Biso   1.000  O
  O11      1.0000 0.58580  0.95380  0.39820  Biso   1.000  O
  O12      1.0000 0.41420  0.04620  0.60180  Biso   1.000  O
  H3       1.0000 0.49290  0.92890  0.39330  Biso   1.000  H
  H4       1.0000 0.50710  0.07110  0.60670  Biso   1.000  H
  H5       1.0000 0.61610  0.89980  0.40320  Biso   1.000  H
  H6       1.0000 0.38390  0.10020  0.59680  Biso   1.000  H
  O13      1.0000 0.49410  0.99260  0.18550  Biso   1.000  O
  O14      1.0000 0.50590  0.00740  0.81450  Biso   1.000  O
  O15      1.0000 0.35790  0.10210  0.27603  Biso   1.000  O
  O16      1.0000 0.64210  0.89790  0.72397  Biso   1.000  O
  O17      1.0000 0.21130  0.16990  0.42990  Biso   1.000  O
  O18      1.0000 0.78870  0.83010  0.57010  Biso   1.000  O
  O19      1.0000 0.21720  0.21430  0.57540  Biso   1.000  O
  O20      1.0000 0.78280  0.78570  0.42460  Biso   1.000  O
  O21      1.0000 0.97200  0.13700  0.48230  Biso   1.000  O
  O22      1.0000 0.02800  0.86300  0.51770  Biso   1.000  O
  N1       1.0000 0.71520  0.22220  0.38130  Biso   1.000  N
  N2       1.0000 0.28480  0.77780  0.61870  Biso   1.000  N
  N3       1.0000 0.20210  0.31040  0.26980  Biso   1.000  N
  N4       1.0000 0.79790  0.68960  0.73020  Biso   1.000  N
  N5       1.0000 0.13140  0.17270  0.49480  Biso   1.000  N
  N6       1.0000 0.86860  0.82730  0.50520  Biso   1.000  N
  C1       1.0000 0.36440  0.38090  0.26410  Biso   1.000  C
  C2       1.0000 0.63560  0.61910  0.73590  Biso   1.000  C
  H7       1.0000 0.45230  0.34340  0.26920  Biso   1.000  H
  H8       1.0000 0.54770  0.65660  0.73080  Biso   1.000  H
  C3       1.0000 0.40520  0.50760  0.25090  Biso   1.000  C
  C4       1.0000 0.59480  0.49240  0.74910  Biso   1.000  C
  H9       1.0000 0.51880  0.55530  0.24770  Biso   1.000  H
  H10      1.0000 0.48120  0.44470  0.75230  Biso   1.000  H
  C5       1.0000 0.27200  0.56250  0.24250  Biso   1.000  C
  C6       1.0000 0.72800  0.43750  0.75750  Biso   1.000  C
  H11      1.0000 0.29520  0.64720  0.23300  Biso   1.000  H
  H12      1.0000 0.70480  0.35280  0.76700  Biso   1.000  H
  C7       1.0000 0.10540  0.48920  0.24840  Biso   1.000  C
  C8       1.0000 0.89460  0.51080  0.75160  Biso   1.000  C
  H13      1.0000 0.01510  0.52410  0.24290  Biso   1.000  H
  H14      1.0000 0.98490  0.47590  0.75710  Biso   1.000  H
  C9       1.0000 0.07340  0.36350  0.26260  Biso   1.000  C
  C10      1.0000 0.92660  0.63650  0.73740  Biso   1.000  C
  C11      1.0000 0.89350  0.27320  0.26830  Biso   1.000  C
  C12      1.0000 0.10650  0.72680  0.73170  Biso   1.000  C
  C13      1.0000 0.82130  0.32430  0.35660  Biso   1.000  C
  C14      1.0000 0.17870  0.67570  0.64340  Biso   1.000  C
  C15      1.0000 0.84490  0.45830  0.40210  Biso   1.000  C
  C16      1.0000 0.15510  0.54170  0.59790  Biso   1.000  C
  H15      1.0000 0.91970  0.52800  0.38490  Biso   1.000  H
  H16      1.0000 0.08030  0.47200  0.61510  Biso   1.000  H
  C17      1.0000 0.75350  0.48650  0.47460  Biso   1.000  C
  C18      1.0000 0.24650  0.51350  0.52540  Biso   1.000  C
  H17      1.0000 0.76780  0.57600  0.50690  Biso   1.000  H
  H18      1.0000 0.23220  0.42400  0.49310  Biso   1.000  H
  C19      1.0000 0.64240  0.38150  0.49810  Biso   1.000  C
  C20      1.0000 0.35760  0.61850  0.50190  Biso   1.000  C
  H19      1.0000 0.57840  0.39870  0.54510  Biso   1.000  H
  H20      1.0000 0.42160  0.60130  0.45490  Biso   1.000  H
  C21      1.0000 0.62790  0.25050  0.45060  Biso   1.000  C
  C22      1.0000 0.37210  0.74950  0.54940  Biso   1.000  C
  H21      1.0000 0.55500  0.17930  0.46720  Biso   1.000  H
  H22      1.0000 0.44500  0.82070  0.53280  Biso   1.000  H
  C23      1.0000 0.84300  0.73940  0.09660  Biso   1.000  C
  C24      1.0000 0.15700  0.26060  0.90340  Biso   1.000  C
  C25      1.0000 0.85280  0.84810  0.04850  Biso   1.000  C
  C26      1.0000 0.14720  0.15190  0.95150  Biso   1.000  C
  H23      1.0000 0.83410  0.80710  0.98340  Biso   1.000  H
  H24      1.0000 0.16590  0.19290  0.01660  Biso   1.000  H
  H25      1.0000 0.96520  0.91630  0.06730  Biso   1.000  H
  H26      1.0000 0.03480  0.08370  0.93270  Biso   1.000  H
  H27      1.0000 0.76510  0.88900  0.06460  Biso   1.000  H
  H28      1.0000 0.23490  0.11100  0.93540  Biso   1.000  H
  C27      1.0000 0.98890  0.67830  0.07630  Biso   1.000  C
  C28      1.0000 0.01110  0.32170  0.92370  Biso   1.000  C
  H29      1.0000 0.97960  0.64040  0.01130  Biso   1.000  H
  H30      1.0000 0.02040  0.35960  0.98870  Biso   1.000  H
  H31      1.0000 0.97900  0.60830  0.10520  Biso   1.000  H
  H32      1.0000 0.02100  0.39170  0.89480  Biso   1.000  H
  H33      1.0000 0.09940  0.74810  0.09960  Biso   1.000  H
  H34      1.0000 0.90060  0.25190  0.90040  Biso   1.000  H
  C29      1.0000 0.66670  0.62790  0.06360  Biso   1.000  C
  C30      1.0000 0.33330  0.37210  0.93640  Biso   1.000  C
  H35      1.0000 0.57610  0.66660  0.07710  Biso   1.000  H
  H36      1.0000 0.42390  0.33340  0.92290  Biso   1.000  H
  H37      1.0000 0.65990  0.56010  0.09430  Biso   1.000  H
  H38      1.0000 0.34010  0.43990  0.90570  Biso   1.000  H
  H39      1.0000 0.65330  0.58700  0.99870  Biso   1.000  H
  H40      1.0000 0.34670  0.41300  0.00130  Biso   1.000  H
  C31      1.0000 0.77310  0.20570  0.10820  Biso   1.000  C
  C32      1.0000 0.22690  0.79430  0.89180  Biso   1.000  C
  H41      1.0000 0.74250  0.10900  0.10000  Biso   1.000  H
  H42      1.0000 0.25750  0.89100  0.90000  Biso   1.000  H
  H43      1.0000 0.88900  0.23780  0.09360  Biso   1.000  H
  H44      1.0000 0.11100  0.76220  0.90640  Biso   1.000  H
  C33      1.0000 0.64500  0.23320  0.04710  Biso   1.000  C
  C34      1.0000 0.35500  0.76680  0.95290  Biso   1.000  C
  H45      1.0000 0.53310  0.20910  0.06600  Biso   1.000  H
  H46      1.0000 0.46690  0.79090  0.93400  Biso   1.000  H
  H47      1.0000 0.63720  0.18020  0.98490  Biso   1.000  H
  H48      1.0000 0.36280  0.81980  0.01510  Biso   1.000  H
  H49      1.0000 0.68290  0.32790  0.05130  Biso   1.000  H
  H50      1.0000 0.31710  0.67210  0.94870  Biso   1.000  H
  N7       1.0000 0.37910  0.04530  0.19410  Biso   1.000  N
  N8       1.0000 0.62090  0.95470  0.80590  Biso   1.000  N
  O23      1.0000 0.28340  0.04600  0.12820  Biso   1.000  O
  O24      1.0000 0.71660  0.95400  0.87180  Biso   1.000  O
  O25      1.0000 0.24710  0.85850  0.37520  Biso   1.000  O
  O26      1.0000 0.75290  0.14150  0.62480  Biso   1.000  O
  H51      1.0000 0.20220  0.86280  0.41660  Biso   1.000  H
  H52      1.0000 0.79780  0.13720  0.58340  Biso   1.000  H
  H53      1.0000 0.20910  0.89070  0.34480  Biso   1.000  H
  H54      1.0000 0.79090  0.10930  0.65520  Biso   1.000  H
