data_image0
_cell_length_a       7.3673
_cell_length_b       10.8514
_cell_length_c       14.722
_cell_angle_alpha    108.477
_cell_angle_beta     93.848
_cell_angle_gamma    103.809

_symmetry_space_group_name_H-M    "P 1"
_symmetry_int_tables_number       1

loop_
  _symmetry_equiv_pos_as_xyz
  'x, y, z'

loop_
  _atom_site_label
  _atom_site_occupancy
  _atom_site_fract_x
  _atom_site_fract_y
  _atom_site_fract_z
  _atom_site_thermal_displace_type
  _atom_site_B_iso_or_equiv
  _atom_site_type_symbol
  Cu1      1.0000 0.21518  0.43173  0.22785  Biso   1.000  Cu
  Cu2      1.0000 0.78482  0.56827  0.77215  Biso   1.000  Cu
  O1       1.0000 0.00640  0.26450  0.18550  Biso   1.000  O
  O2       1.0000 0.99360  0.73550  0.81450  Biso   1.000  O
  O3       1.0000 0.82590  0.40230  0.23250  Biso   1.000  O
  O4       1.0000 0.17410  0.59770  0.76750  Biso   1.000  O
  O5       1.0000 0.46900  0.31200  0.20410  Biso   1.000  O
  O6       1.0000 0.53100  0.68800  0.79590  Biso   1.000  O
  O7       1.0000 0.42580  0.59900  0.27250  Biso   1.000  O
  O8       1.0000 0.57420  0.40100  0.72750  Biso   1.000  O
  O9       1.0000 0.19290  0.69660  0.28690  Biso   1.000  O
  O10      1.0000 0.80710  0.30340  0.71310  Biso   1.000  O
  O11      1.0000 0.26010  0.95240  0.34930  Biso   1.000  O
  O12      1.0000 0.73990  0.04760  0.65070  Biso   1.000  O
  N1       1.0000 0.22600  0.42730  0.36450  Biso   1.000  N
  N2       1.0000 0.77400  0.57270  0.63550  Biso   1.000  N
  N3       1.0000 0.21010  0.42500  0.08760  Biso   1.000  N
  N4       1.0000 0.78990  0.57500  0.91240  Biso   1.000  N
  C1       1.0000 0.84560  0.28580  0.19730  Biso   1.000  C
  C2       1.0000 0.15440  0.71420  0.80270  Biso   1.000  C
  C3       1.0000 0.67540  0.16750  0.16680  Biso   1.000  C
  C4       1.0000 0.32460  0.83250  0.83320  Biso   1.000  C
  C5       1.0000 0.49420  0.18600  0.17150  Biso   1.000  C
  C6       1.0000 0.50580  0.81400  0.82850  Biso   1.000  C
  C7       1.0000 0.33580  0.07620  0.14350  Biso   1.000  C
  C8       1.0000 0.66420  0.92380  0.85650  Biso   1.000  C
  C9       1.0000 0.35650  0.94770  0.11060  Biso   1.000  C
  C10      1.0000 0.64350  0.05230  0.88940  Biso   1.000  C
  C11      1.0000 0.53340  0.92660  0.10540  Biso   1.000  C
  C12      1.0000 0.46660  0.07340  0.89460  Biso   1.000  C
  C13      1.0000 0.69100  0.03640  0.13310  Biso   1.000  C
  C14      1.0000 0.30900  0.96360  0.86690  Biso   1.000  C
  C15      1.0000 0.36440  0.70350  0.29650  Biso   1.000  C
  C16      1.0000 0.63560  0.29650  0.70350  Biso   1.000  C
  C17      1.0000 0.50590  0.83840  0.33250  Biso   1.000  C
  C18      1.0000 0.49410  0.16160  0.66750  Biso   1.000  C
  C19      1.0000 0.44400  0.95560  0.35820  Biso   1.000  C
  C20      1.0000 0.55600  0.04440  0.64180  Biso   1.000  C
  C21      1.0000 0.57680  0.08130  0.39480  Biso   1.000  C
  C22      1.0000 0.42320  0.91870  0.60520  Biso   1.000  C
  C23      1.0000 0.76420  0.09070  0.40480  Biso   1.000  C
  C24      1.0000 0.23580  0.90930  0.59520  Biso   1.000  C
  C25      1.0000 0.83020  0.97710  0.37870  Biso   1.000  C
  C26      1.0000 0.16980  0.02290  0.62130  Biso   1.000  C
  C27      1.0000 0.70030  0.85160  0.34240  Biso   1.000  C
  C28      1.0000 0.29970  0.14840  0.65760  Biso   1.000  C
  C29      1.0000 0.23040  0.31290  0.38100  Biso   1.000  C
  C30      1.0000 0.76960  0.68710  0.61900  Biso   1.000  C
  C31      1.0000 0.24450  0.30420  0.47190  Biso   1.000  C
  C32      1.0000 0.75550  0.69580  0.52810  Biso   1.000  C
  C33      1.0000 0.25270  0.41650  0.55050  Biso   1.000  C
  C34      1.0000 0.74730  0.58350  0.44950  Biso   1.000  C
  C35      1.0000 0.24800  0.53440  0.53440  Biso   1.000  C
  C36      1.0000 0.75200  0.46560  0.46560  Biso   1.000  C
  C37      1.0000 0.23420  0.53610  0.44180  Biso   1.000  C
  C38      1.0000 0.76580  0.46390  0.55820  Biso   1.000  C
  C39      1.0000 0.15920  0.30590  0.01430  Biso   1.000  C
  C40      1.0000 0.84080  0.69410  0.98570  Biso   1.000  C
  C41      1.0000 0.15280  0.29500  0.91920  Biso   1.000  C
  C42      1.0000 0.84720  0.70500  0.08080  Biso   1.000  C
  C43      1.0000 0.19870  0.40960  0.89450  Biso   1.000  C
  C44      1.0000 0.80130  0.59040  0.10550  Biso   1.000  C
  C45      1.0000 0.25320  0.53260  0.96940  Biso   1.000  C
  C46      1.0000 0.74680  0.46740  0.03060  Biso   1.000  C
  C47      1.0000 0.25670  0.53640  0.06280  Biso   1.000  C
  C48      1.0000 0.74330  0.46360  0.93720  Biso   1.000  C
  H1       1.0000 0.56900  0.36100  0.21200  Biso   1.000  H
  H2       1.0000 0.43100  0.63900  0.78800  Biso   1.000  H
  H3       1.0000 0.20600  0.09600  0.14400  Biso   1.000  H
  H4       1.0000 0.79400  0.90400  0.85600  Biso   1.000  H
  H5       1.0000 0.26600  0.87300  0.09400  Biso   1.000  H
  H6       1.0000 0.73400  0.12700  0.90600  Biso   1.000  H
  H7       1.0000 0.54400  0.84300  0.08200  Biso   1.000  H
  H8       1.0000 0.45600  0.15700  0.91800  Biso   1.000  H
  H9       1.0000 0.78400  0.02000  0.12600  Biso   1.000  H
  H10      1.0000 0.21600  0.98000  0.87400  Biso   1.000  H
  H11      1.0000 0.20700  0.88300  0.33300  Biso   1.000  H
  H12      1.0000 0.79300  0.11700  0.66700  Biso   1.000  H
  H13      1.0000 0.53300  0.15200  0.41100  Biso   1.000  H
  H14      1.0000 0.46700  0.84800  0.58900  Biso   1.000  H
  H15      1.0000 0.85100  0.17300  0.43000  Biso   1.000  H
  H16      1.0000 0.14900  0.82700  0.57000  Biso   1.000  H
  H17      1.0000 0.95800  0.99600  0.38900  Biso   1.000  H
  H18      1.0000 0.04200  0.00400  0.61100  Biso   1.000  H
  H19      1.0000 0.74600  0.76800  0.32400  Biso   1.000  H
  H20      1.0000 0.25400  0.23200  0.67600  Biso   1.000  H
  H21      1.0000 0.21300  0.24100  0.32400  Biso   1.000  H
  H22      1.0000 0.78700  0.75900  0.67600  Biso   1.000  H
  H23      1.0000 0.24700  0.22900  0.47100  Biso   1.000  H
  H24      1.0000 0.75300  0.77100  0.52900  Biso   1.000  H
  H25      1.0000 0.26100  0.41400  0.60900  Biso   1.000  H
  H26      1.0000 0.73900  0.58600  0.39100  Biso   1.000  H
  H27      1.0000 0.25100  0.60600  0.57900  Biso   1.000  H
  H28      1.0000 0.74900  0.39400  0.42100  Biso   1.000  H
  H29      1.0000 0.22700  0.61500  0.42900  Biso   1.000  H
  H30      1.0000 0.77300  0.38500  0.57100  Biso   1.000  H
  H31      1.0000 0.13800  0.23000  0.03400  Biso   1.000  H
  H32      1.0000 0.86200  0.77000  0.96600  Biso   1.000  H
  H33      1.0000 0.11800  0.21700  0.87800  Biso   1.000  H
  H34      1.0000 0.88200  0.78300  0.12200  Biso   1.000  H
  H35      1.0000 0.20300  0.40600  0.83500  Biso   1.000  H
  H36      1.0000 0.79700  0.59400  0.16500  Biso   1.000  H
  H37      1.0000 0.29000  0.60900  0.95400  Biso   1.000  H
  H38      1.0000 0.71000  0.39100  0.04600  Biso   1.000  H
  H39      1.0000 0.28900  0.61500  0.11000  Biso   1.000  H
  H40      1.0000 0.71100  0.38500  0.89000  Biso   1.000  H
