data_image0
_cell_length_a       14.693
_cell_length_b       14.693
_cell_length_c       15.125
_cell_angle_alpha    90
_cell_angle_beta     90
_cell_angle_gamma    120

_symmetry_space_group_name_H-M    "P 1"
_symmetry_int_tables_number       1

loop_
  _symmetry_equiv_pos_as_xyz
  'x, y, z'

loop_
  _atom_site_label
  _atom_site_occupancy
  _atom_site_fract_x
  _atom_site_fract_y
  _atom_site_fract_z
  _atom_site_thermal_displace_type
  _atom_site_B_iso_or_equiv
  _atom_site_type_symbol
  O1       1.0000 0.80505  0.41773  0.35607  Biso   1.000  O
  O2       1.0000 0.38732  0.80505  0.35607  Biso   1.000  O
  O3       1.0000 0.58227  0.19495  0.14393  Biso   1.000  O
  O4       1.0000 0.58227  0.38732  0.35607  Biso   1.000  O
  O5       1.0000 0.38732  0.58227  0.14393  Biso   1.000  O
  O6       1.0000 0.19495  0.58227  0.35607  Biso   1.000  O
  O7       1.0000 0.80505  0.38732  0.14393  Biso   1.000  O
  O8       1.0000 0.61268  0.19495  0.35607  Biso   1.000  O
  O9       1.0000 0.41773  0.80505  0.14393  Biso   1.000  O
  O10      1.0000 0.41773  0.61268  0.35607  Biso   1.000  O
  O11      1.0000 0.61268  0.41773  0.14393  Biso   1.000  O
  O12      1.0000 0.19495  0.61268  0.14393  Biso   1.000  O
  O13      1.0000 0.19495  0.58227  0.64393  Biso   1.000  O
  O14      1.0000 0.61268  0.19495  0.64393  Biso   1.000  O
  O15      1.0000 0.41773  0.80505  0.85607  Biso   1.000  O
  O16      1.0000 0.41773  0.61268  0.64393  Biso   1.000  O
  O17      1.0000 0.61268  0.41773  0.85607  Biso   1.000  O
  O18      1.0000 0.80505  0.41773  0.64393  Biso   1.000  O
  O19      1.0000 0.19495  0.61268  0.85607  Biso   1.000  O
  O20      1.0000 0.38732  0.80505  0.64393  Biso   1.000  O
  O21      1.0000 0.58227  0.19495  0.85607  Biso   1.000  O
  O22      1.0000 0.58227  0.38732  0.64393  Biso   1.000  O
  O23      1.0000 0.38732  0.58227  0.85607  Biso   1.000  O
  O24      1.0000 0.80505  0.38732  0.85607  Biso   1.000  O
  O25      1.0000 0.94784  0.55754  0.40994  Biso   1.000  O
  O26      1.0000 0.39030  0.94784  0.40994  Biso   1.000  O
  O27      1.0000 0.44246  0.05216  0.09006  Biso   1.000  O
  O28      1.0000 0.44246  0.39030  0.40994  Biso   1.000  O
  O29      1.0000 0.39030  0.44246  0.09006  Biso   1.000  O
  O30      1.0000 0.05216  0.44246  0.40994  Biso   1.000  O
  O31      1.0000 0.94784  0.39030  0.09006  Biso   1.000  O
  O32      1.0000 0.60970  0.05216  0.40994  Biso   1.000  O
  O33      1.0000 0.55754  0.94784  0.09006  Biso   1.000  O
  O34      1.0000 0.55754  0.60970  0.40994  Biso   1.000  O
  O35      1.0000 0.60970  0.55754  0.09006  Biso   1.000  O
  O36      1.0000 0.05216  0.60970  0.09006  Biso   1.000  O
  O37      1.0000 0.05216  0.44246  0.59006  Biso   1.000  O
  O38      1.0000 0.60970  0.05216  0.59006  Biso   1.000  O
  O39      1.0000 0.55754  0.94784  0.90994  Biso   1.000  O
  O40      1.0000 0.55754  0.60970  0.59006  Biso   1.000  O
  O41      1.0000 0.60970  0.55754  0.90994  Biso   1.000  O
  O42      1.0000 0.94784  0.55754  0.59006  Biso   1.000  O
  O43      1.0000 0.05216  0.60970  0.90994  Biso   1.000  O
  O44      1.0000 0.39030  0.94784  0.59006  Biso   1.000  O
  O45      1.0000 0.44246  0.05216  0.90994  Biso   1.000  O
  O46      1.0000 0.44246  0.39030  0.59006  Biso   1.000  O
  O47      1.0000 0.39030  0.44246  0.90994  Biso   1.000  O
  O48      1.0000 0.94784  0.39030  0.90994  Biso   1.000  O
  O49      1.0000 0.76376  0.52750  0.25000  Biso   1.000  O
  O50      1.0000 0.23626  0.76376  0.25000  Biso   1.000  O
  O51      1.0000 0.47250  0.23624  0.25000  Biso   1.000  O
  O52      1.0000 0.23626  0.47250  0.25000  Biso   1.000  O
  O53      1.0000 0.76376  0.23626  0.25000  Biso   1.000  O
  O54      1.0000 0.52750  0.76376  0.25000  Biso   1.000  O
  O55      1.0000 0.23624  0.47250  0.75000  Biso   1.000  O
  O56      1.0000 0.76374  0.23624  0.75000  Biso   1.000  O
  O57      1.0000 0.52750  0.76376  0.75000  Biso   1.000  O
  O58      1.0000 0.76374  0.52750  0.75000  Biso   1.000  O
  O59      1.0000 0.23624  0.76374  0.75000  Biso   1.000  O
  O60      1.0000 0.47250  0.23624  0.75000  Biso   1.000  O
  C1       1.0000 0.86940  0.51400  0.36074  Biso   1.000  C
  C2       1.0000 0.35540  0.86940  0.36074  Biso   1.000  C
  C3       1.0000 0.48600  0.13060  0.13926  Biso   1.000  C
  C4       1.0000 0.48600  0.35540  0.36074  Biso   1.000  C
  C5       1.0000 0.35540  0.48600  0.13926  Biso   1.000  C
  C6       1.0000 0.13060  0.48600  0.36074  Biso   1.000  C
  C7       1.0000 0.86940  0.35540  0.13926  Biso   1.000  C
  C8       1.0000 0.64460  0.13060  0.36074  Biso   1.000  C
  C9       1.0000 0.51400  0.86940  0.13926  Biso   1.000  C
  C10      1.0000 0.51400  0.64460  0.36074  Biso   1.000  C
  C11      1.0000 0.64460  0.51400  0.13926  Biso   1.000  C
  C12      1.0000 0.13060  0.64460  0.13926  Biso   1.000  C
  C13      1.0000 0.13060  0.48600  0.63926  Biso   1.000  C
  C14      1.0000 0.64460  0.13060  0.63926  Biso   1.000  C
  C15      1.0000 0.51400  0.86940  0.86074  Biso   1.000  C
  C16      1.0000 0.51400  0.64460  0.63926  Biso   1.000  C
  C17      1.0000 0.64460  0.51400  0.86074  Biso   1.000  C
  C18      1.0000 0.86940  0.51400  0.63926  Biso   1.000  C
  C19      1.0000 0.13060  0.64460  0.86074  Biso   1.000  C
  C20      1.0000 0.35540  0.86940  0.63926  Biso   1.000  C
  C21      1.0000 0.48600  0.13060  0.86074  Biso   1.000  C
  C22      1.0000 0.48600  0.35540  0.63926  Biso   1.000  C
  C23      1.0000 0.35540  0.48600  0.86074  Biso   1.000  C
  C24      1.0000 0.86940  0.35540  0.86074  Biso   1.000  C
  C25      1.0000 0.85140  0.58700  0.30350  Biso   1.000  C
  C26      1.0000 0.26440  0.85140  0.30350  Biso   1.000  C
  C27      1.0000 0.41300  0.14860  0.19650  Biso   1.000  C
  C28      1.0000 0.41300  0.26440  0.30350  Biso   1.000  C
  C29      1.0000 0.26440  0.41300  0.19650  Biso   1.000  C
  C30      1.0000 0.14860  0.41300  0.30350  Biso   1.000  C
  C31      1.0000 0.85140  0.26440  0.19650  Biso   1.000  C
  C32      1.0000 0.73560  0.14860  0.30350  Biso   1.000  C
  C33      1.0000 0.58700  0.85140  0.19650  Biso   1.000  C
  C34      1.0000 0.58700  0.73560  0.30350  Biso   1.000  C
  C35      1.0000 0.73560  0.58700  0.19650  Biso   1.000  C
  C36      1.0000 0.14860  0.73560  0.19650  Biso   1.000  C
  C37      1.0000 0.14860  0.41300  0.69650  Biso   1.000  C
  C38      1.0000 0.73560  0.14860  0.69650  Biso   1.000  C
  C39      1.0000 0.58700  0.85140  0.80350  Biso   1.000  C
  C40      1.0000 0.58700  0.73560  0.69650  Biso   1.000  C
  C41      1.0000 0.73560  0.58700  0.80350  Biso   1.000  C
  C42      1.0000 0.85140  0.58700  0.69650  Biso   1.000  C
  C43      1.0000 0.14860  0.73560  0.80350  Biso   1.000  C
  C44      1.0000 0.26440  0.85140  0.69650  Biso   1.000  C
  C45      1.0000 0.41300  0.14860  0.80350  Biso   1.000  C
  C46      1.0000 0.41300  0.26440  0.69650  Biso   1.000  C
  C47      1.0000 0.26440  0.41300  0.80350  Biso   1.000  C
  C48      1.0000 0.85140  0.26440  0.80350  Biso   1.000  C
  H1       1.0000 0.83960  0.63430  0.34020  Biso   1.000  H
  H2       1.0000 0.20530  0.83960  0.34020  Biso   1.000  H
  H3       1.0000 0.36570  0.16040  0.15980  Biso   1.000  H
  H4       1.0000 0.36570  0.20530  0.34020  Biso   1.000  H
  H5       1.0000 0.20530  0.36570  0.15980  Biso   1.000  H
  H6       1.0000 0.16040  0.36570  0.34020  Biso   1.000  H
  H7       1.0000 0.83960  0.20530  0.15980  Biso   1.000  H
  H8       1.0000 0.79470  0.16040  0.34020  Biso   1.000  H
  H9       1.0000 0.63430  0.83960  0.15980  Biso   1.000  H
  H10      1.0000 0.63430  0.79470  0.34020  Biso   1.000  H
  H11      1.0000 0.79470  0.63430  0.15980  Biso   1.000  H
  H12      1.0000 0.16040  0.79470  0.15980  Biso   1.000  H
  H13      1.0000 0.16040  0.36570  0.65980  Biso   1.000  H
  H14      1.0000 0.79470  0.16040  0.65980  Biso   1.000  H
  H15      1.0000 0.63430  0.83960  0.84020  Biso   1.000  H
  H16      1.0000 0.63430  0.79470  0.65980  Biso   1.000  H
  H17      1.0000 0.79470  0.63430  0.84020  Biso   1.000  H
  H18      1.0000 0.83960  0.63430  0.65980  Biso   1.000  H
  H19      1.0000 0.16040  0.79470  0.84020  Biso   1.000  H
  H20      1.0000 0.20530  0.83960  0.65980  Biso   1.000  H
  H21      1.0000 0.36570  0.16040  0.84020  Biso   1.000  H
  H22      1.0000 0.36570  0.20530  0.65980  Biso   1.000  H
  H23      1.0000 0.20530  0.36570  0.84020  Biso   1.000  H
  H24      1.0000 0.83960  0.20530  0.84020  Biso   1.000  H
  H25      1.0000 0.91280  0.62880  0.26700  Biso   1.000  H
  H26      1.0000 0.28400  0.91280  0.26700  Biso   1.000  H
  H27      1.0000 0.37120  0.08720  0.23300  Biso   1.000  H
  H28      1.0000 0.37120  0.28400  0.26700  Biso   1.000  H
  H29      1.0000 0.28400  0.37120  0.23300  Biso   1.000  H
  H30      1.0000 0.08720  0.37120  0.26700  Biso   1.000  H
  H31      1.0000 0.91280  0.28400  0.23300  Biso   1.000  H
  H32      1.0000 0.71600  0.08720  0.26700  Biso   1.000  H
  H33      1.0000 0.62880  0.91280  0.23300  Biso   1.000  H
  H34      1.0000 0.62880  0.71600  0.26700  Biso   1.000  H
  H35      1.0000 0.71600  0.62880  0.23300  Biso   1.000  H
  H36      1.0000 0.08720  0.71600  0.23300  Biso   1.000  H
  H37      1.0000 0.08720  0.37120  0.73300  Biso   1.000  H
  H38      1.0000 0.71600  0.08720  0.73300  Biso   1.000  H
  H39      1.0000 0.62880  0.91280  0.76700  Biso   1.000  H
  H40      1.0000 0.62880  0.71600  0.73300  Biso   1.000  H
  H41      1.0000 0.71600  0.62880  0.76700  Biso   1.000  H
  H42      1.0000 0.91280  0.62880  0.73300  Biso   1.000  H
  H43      1.0000 0.08720  0.71600  0.76700  Biso   1.000  H
  H44      1.0000 0.28400  0.91280  0.73300  Biso   1.000  H
  H45      1.0000 0.37120  0.08720  0.76700  Biso   1.000  H
  H46      1.0000 0.37120  0.28400  0.73300  Biso   1.000  H
  H47      1.0000 0.28400  0.37120  0.76700  Biso   1.000  H
  H48      1.0000 0.91280  0.28400  0.76700  Biso   1.000  H
  O61      1.0000 0.84060  0.32080  0.50000  Biso   1.000  O
  O62      1.0000 0.51980  0.84060  0.50000  Biso   1.000  O
  O63      1.0000 0.67920  0.15940  0.00000  Biso   1.000  O
  O64      1.0000 0.67920  0.51980  0.50000  Biso   1.000  O
  O65      1.0000 0.51980  0.67920  0.00000  Biso   1.000  O
  O66      1.0000 0.15940  0.67920  0.50000  Biso   1.000  O
  O67      1.0000 0.84060  0.51980  0.00000  Biso   1.000  O
  O68      1.0000 0.48020  0.15940  0.50000  Biso   1.000  O
  O69      1.0000 0.32080  0.84060  0.00000  Biso   1.000  O
  O70      1.0000 0.32080  0.48020  0.50000  Biso   1.000  O
  O71      1.0000 0.48020  0.32080  0.00000  Biso   1.000  O
  O72      1.0000 0.15940  0.48020  0.00000  Biso   1.000  O
  H49      1.0000 0.81600  0.34200  0.54400  Biso   1.000  H
  H50      1.0000 0.47400  0.81600  0.54400  Biso   1.000  H
  H51      1.0000 0.65800  0.18400  0.95600  Biso   1.000  H
  H52      1.0000 0.65800  0.47400  0.54400  Biso   1.000  H
  H53      1.0000 0.47400  0.65800  0.95600  Biso   1.000  H
  H54      1.0000 0.18400  0.65800  0.54400  Biso   1.000  H
  H55      1.0000 0.81600  0.47400  0.95600  Biso   1.000  H
  H56      1.0000 0.52600  0.18400  0.54400  Biso   1.000  H
  H57      1.0000 0.34200  0.81600  0.95600  Biso   1.000  H
  H58      1.0000 0.34200  0.52600  0.54400  Biso   1.000  H
  H59      1.0000 0.52600  0.34200  0.95600  Biso   1.000  H
  H60      1.0000 0.18400  0.52600  0.95600  Biso   1.000  H
  H61      1.0000 0.18400  0.65800  0.45600  Biso   1.000  H
  H62      1.0000 0.52600  0.18400  0.45600  Biso   1.000  H
  H63      1.0000 0.34200  0.81600  0.04400  Biso   1.000  H
  H64      1.0000 0.34200  0.52600  0.45600  Biso   1.000  H
  H65      1.0000 0.52600  0.34200  0.04400  Biso   1.000  H
  H66      1.0000 0.81600  0.34200  0.45600  Biso   1.000  H
  H67      1.0000 0.18400  0.52600  0.04400  Biso   1.000  H
  H68      1.0000 0.47400  0.81600  0.45600  Biso   1.000  H
  H69      1.0000 0.65800  0.18400  0.04400  Biso   1.000  H
  H70      1.0000 0.65800  0.47400  0.45600  Biso   1.000  H
  H71      1.0000 0.47400  0.65800  0.04400  Biso   1.000  H
  H72      1.0000 0.81600  0.47400  0.04400  Biso   1.000  H
  O73      1.0000 0.84300  0.72600  0.50000  Biso   1.000  O
  O74      1.0000 0.11700  0.84300  0.50000  Biso   1.000  O
  O75      1.0000 0.27400  0.15700  0.00000  Biso   1.000  O
  O76      1.0000 0.27400  0.11700  0.50000  Biso   1.000  O
  O77      1.0000 0.11700  0.27400  0.00000  Biso   1.000  O
  O78      1.0000 0.15700  0.27400  0.50000  Biso   1.000  O
  O79      1.0000 0.84300  0.11700  0.00000  Biso   1.000  O
  O80      1.0000 0.88300  0.15700  0.50000  Biso   1.000  O
  O81      1.0000 0.72600  0.84300  0.00000  Biso   1.000  O
  O82      1.0000 0.72600  0.88300  0.50000  Biso   1.000  O
  O83      1.0000 0.88300  0.72600  0.00000  Biso   1.000  O
  O84      1.0000 0.15700  0.88300  0.00000  Biso   1.000  O
  O85      1.0000 0.76800  0.79800  0.50000  Biso   1.000  O
  O86      1.0000 0.97000  0.76800  0.50000  Biso   1.000  O
  O87      1.0000 0.20200  0.23200  0.00000  Biso   1.000  O
  O88      1.0000 0.20200  0.97000  0.50000  Biso   1.000  O
  O89      1.0000 0.97000  0.20200  0.00000  Biso   1.000  O
  O90      1.0000 0.23200  0.20200  0.50000  Biso   1.000  O
  O91      1.0000 0.76800  0.97000  0.00000  Biso   1.000  O
  O92      1.0000 0.03000  0.23200  0.50000  Biso   1.000  O
  O93      1.0000 0.79800  0.76800  0.00000  Biso   1.000  O
  O94      1.0000 0.79800  0.03000  0.50000  Biso   1.000  O
  O95      1.0000 0.03000  0.79800  0.00000  Biso   1.000  O
  O96      1.0000 0.23200  0.03000  0.00000  Biso   1.000  O
  O97      1.0000 0.83750  0.98670  0.30880  Biso   1.000  O
  O98      1.0000 0.85080  0.83750  0.30880  Biso   1.000  O
  O99      1.0000 0.01330  0.16250  0.19120  Biso   1.000  O
  O100     1.0000 0.01330  0.85080  0.30880  Biso   1.000  O
  O101     1.0000 0.85080  0.01330  0.19120  Biso   1.000  O
  O102     1.0000 0.16250  0.01330  0.30880  Biso   1.000  O
  O103     1.0000 0.83750  0.85080  0.19120  Biso   1.000  O
  O104     1.0000 0.14920  0.16250  0.30880  Biso   1.000  O
  O105     1.0000 0.98670  0.83750  0.19120  Biso   1.000  O
  O106     1.0000 0.98670  0.14920  0.30880  Biso   1.000  O
  O107     1.0000 0.14920  0.98670  0.19120  Biso   1.000  O
  O108     1.0000 0.16250  0.14920  0.19120  Biso   1.000  O
  O109     1.0000 0.16250  0.01330  0.69120  Biso   1.000  O
  O110     1.0000 0.14920  0.16250  0.69120  Biso   1.000  O
  O111     1.0000 0.98670  0.83750  0.80880  Biso   1.000  O
  O112     1.0000 0.98670  0.14920  0.69120  Biso   1.000  O
  O113     1.0000 0.14920  0.98670  0.80880  Biso   1.000  O
  O114     1.0000 0.83750  0.98670  0.69120  Biso   1.000  O
  O115     1.0000 0.16250  0.14920  0.80880  Biso   1.000  O
  O116     1.0000 0.85080  0.83750  0.69120  Biso   1.000  O
  O117     1.0000 0.01330  0.16250  0.80880  Biso   1.000  O
  O118     1.0000 0.01330  0.85080  0.69120  Biso   1.000  O
  O119     1.0000 0.85080  0.01330  0.80880  Biso   1.000  O
  O120     1.0000 0.83750  0.85080  0.80880  Biso   1.000  O
  O121     1.0000 0.84400  0.87100  0.42400  Biso   1.000  O
  O122     1.0000 0.97300  0.84400  0.42400  Biso   1.000  O
  O123     1.0000 0.12900  0.15600  0.07600  Biso   1.000  O
  O124     1.0000 0.12900  0.97300  0.42400  Biso   1.000  O
  O125     1.0000 0.97300  0.12900  0.07600  Biso   1.000  O
  O126     1.0000 0.15600  0.12900  0.42400  Biso   1.000  O
  O127     1.0000 0.84400  0.97300  0.07600  Biso   1.000  O
  O128     1.0000 0.02700  0.15600  0.42400  Biso   1.000  O
  O129     1.0000 0.87100  0.84400  0.07600  Biso   1.000  O
  O130     1.0000 0.87100  0.02700  0.42400  Biso   1.000  O
  O131     1.0000 0.02700  0.87100  0.07600  Biso   1.000  O
  O132     1.0000 0.15600  0.02700  0.07600  Biso   1.000  O
  O133     1.0000 0.15600  0.12900  0.57600  Biso   1.000  O
  O134     1.0000 0.02700  0.15600  0.57600  Biso   1.000  O
  O135     1.0000 0.87100  0.84400  0.92400  Biso   1.000  O
  O136     1.0000 0.87100  0.02700  0.57600  Biso   1.000  O
  O137     1.0000 0.02700  0.87100  0.92400  Biso   1.000  O
  O138     1.0000 0.84400  0.87100  0.57600  Biso   1.000  O
  O139     1.0000 0.15600  0.02700  0.92400  Biso   1.000  O
  O140     1.0000 0.97300  0.84400  0.57600  Biso   1.000  O
  O141     1.0000 0.12900  0.15600  0.92400  Biso   1.000  O
  O142     1.0000 0.12900  0.97300  0.57600  Biso   1.000  O
  O143     1.0000 0.97300  0.12900  0.92400  Biso   1.000  O
  O144     1.0000 0.84400  0.97300  0.92400  Biso   1.000  O
  O145     1.0000 0.80060  0.74710  0.47210  Biso   1.000  O
  O146     1.0000 0.05350  0.80060  0.47210  Biso   1.000  O
  O147     1.0000 0.25290  0.19940  0.02790  Biso   1.000  O
  O148     1.0000 0.25290  0.05350  0.47210  Biso   1.000  O
  O149     1.0000 0.05350  0.25290  0.02790  Biso   1.000  O
  O150     1.0000 0.19940  0.25290  0.47210  Biso   1.000  O
  O151     1.0000 0.80060  0.05350  0.02790  Biso   1.000  O
  O152     1.0000 0.94650  0.19940  0.47210  Biso   1.000  O
  O153     1.0000 0.74710  0.80060  0.02790  Biso   1.000  O
  O154     1.0000 0.74710  0.94650  0.47210  Biso   1.000  O
  O155     1.0000 0.94650  0.74710  0.02790  Biso   1.000  O
  O156     1.0000 0.19940  0.94650  0.02790  Biso   1.000  O
  O157     1.0000 0.19940  0.25290  0.52790  Biso   1.000  O
  O158     1.0000 0.94650  0.19940  0.52790  Biso   1.000  O
  O159     1.0000 0.74710  0.80060  0.97210  Biso   1.000  O
  O160     1.0000 0.74710  0.94650  0.52790  Biso   1.000  O
  O161     1.0000 0.94650  0.74710  0.97210  Biso   1.000  O
  O162     1.0000 0.80060  0.74710  0.52790  Biso   1.000  O
  O163     1.0000 0.19940  0.94650  0.97210  Biso   1.000  O
  O164     1.0000 0.05350  0.80060  0.52790  Biso   1.000  O
  O165     1.0000 0.25290  0.19940  0.97210  Biso   1.000  O
  O166     1.0000 0.25290  0.05350  0.52790  Biso   1.000  O
  O167     1.0000 0.05350  0.25290  0.97210  Biso   1.000  O
  O168     1.0000 0.80060  0.05350  0.97210  Biso   1.000  O
  O169     1.0000 0.84500  0.91600  0.36500  Biso   1.000  O
  O170     1.0000 0.92900  0.84500  0.36500  Biso   1.000  O
  O171     1.0000 0.08400  0.15500  0.13500  Biso   1.000  O
  O172     1.0000 0.08400  0.92900  0.36500  Biso   1.000  O
  O173     1.0000 0.92900  0.08400  0.13500  Biso   1.000  O
  O174     1.0000 0.15500  0.08400  0.36500  Biso   1.000  O
  O175     1.0000 0.84500  0.92900  0.13500  Biso   1.000  O
  O176     1.0000 0.07100  0.15500  0.36500  Biso   1.000  O
  O177     1.0000 0.91600  0.84500  0.13500  Biso   1.000  O
  O178     1.0000 0.91600  0.07100  0.36500  Biso   1.000  O
  O179     1.0000 0.07100  0.91600  0.13500  Biso   1.000  O
  O180     1.0000 0.15500  0.07100  0.13500  Biso   1.000  O
  O181     1.0000 0.15500  0.08400  0.63500  Biso   1.000  O
  O182     1.0000 0.07100  0.15500  0.63500  Biso   1.000  O
  O183     1.0000 0.91600  0.84500  0.86500  Biso   1.000  O
  O184     1.0000 0.91600  0.07100  0.63500  Biso   1.000  O
  O185     1.0000 0.07100  0.91600  0.86500  Biso   1.000  O
  O186     1.0000 0.84500  0.91600  0.63500  Biso   1.000  O
  O187     1.0000 0.15500  0.07100  0.86500  Biso   1.000  O
  O188     1.0000 0.92900  0.84500  0.63500  Biso   1.000  O
  O189     1.0000 0.08400  0.15500  0.86500  Biso   1.000  O
  O190     1.0000 0.08400  0.92900  0.63500  Biso   1.000  O
  O191     1.0000 0.92900  0.08400  0.86500  Biso   1.000  O
  O192     1.0000 0.84500  0.92900  0.86500  Biso   1.000  O
  Tb1      1.0000 0.66670  0.33330  0.25000  Biso   1.000  Tb
  Tb2      1.0000 0.33340  0.66670  0.25000  Biso   1.000  Tb
  Tb3      1.0000 0.33330  0.66670  0.75000  Biso   1.000  Tb
  Tb4      1.0000 0.66660  0.33330  0.75000  Biso   1.000  Tb
  Cu1      1.0000 0.00000  0.50000  0.50000  Biso   1.000  Cu
  Cu2      1.0000 0.50000  0.00000  0.50000  Biso   1.000  Cu
  Cu3      1.0000 0.50000  0.00000  0.00000  Biso   1.000  Cu
  Cu4      1.0000 0.50000  0.50000  0.50000  Biso   1.000  Cu
  Cu5      1.0000 0.50000  0.50000  0.00000  Biso   1.000  Cu
  Cu6      1.0000 0.00000  0.50000  0.00000  Biso   1.000  Cu
