data_image0
_cell_length_a       18.221
_cell_length_b       11.985
_cell_length_c       22.525
_cell_angle_alpha    90
_cell_angle_beta     115.68
_cell_angle_gamma    90

_symmetry_space_group_name_H-M    "P 1"
_symmetry_int_tables_number       1

loop_
  _symmetry_equiv_pos_as_xyz
  'x, y, z'

loop_
  _atom_site_label
  _atom_site_occupancy
  _atom_site_fract_x
  _atom_site_fract_y
  _atom_site_fract_z
  _atom_site_thermal_displace_type
  _atom_site_B_iso_or_equiv
  _atom_site_type_symbol
  O1       1.0000 0.52690  0.51930  0.72240  Biso   1.000  O
  O2       1.0000 0.47310  0.01930  0.77760  Biso   1.000  O
  O3       1.0000 0.47310  0.48070  0.27760  Biso   1.000  O
  O4       1.0000 0.52690  0.98070  0.22240  Biso   1.000  O
  C1       1.0000 0.03840  0.71140  0.73470  Biso   1.000  C
  C2       1.0000 0.96160  0.21140  0.76530  Biso   1.000  C
  C3       1.0000 0.96160  0.28860  0.26530  Biso   1.000  C
  C4       1.0000 0.03840  0.78860  0.23470  Biso   1.000  C
  C5       1.0000 0.03820  0.63240  0.68560  Biso   1.000  C
  C6       1.0000 0.96180  0.13240  0.81440  Biso   1.000  C
  C7       1.0000 0.96180  0.36760  0.31440  Biso   1.000  C
  C8       1.0000 0.03820  0.86760  0.18560  Biso   1.000  C
  H1       1.0000 0.99250  0.58800  0.66370  Biso   1.000  H
  H2       1.0000 0.00750  0.08800  0.83630  Biso   1.000  H
  H3       1.0000 0.00750  0.41200  0.33630  Biso   1.000  H
  H4       1.0000 0.99250  0.91200  0.16370  Biso   1.000  H
  C9       1.0000 0.10630  0.62070  0.67000  Biso   1.000  C
  C10      1.0000 0.89370  0.12070  0.83000  Biso   1.000  C
  C11      1.0000 0.89370  0.37930  0.33000  Biso   1.000  C
  C12      1.0000 0.10630  0.87930  0.17000  Biso   1.000  C
  H5       1.0000 0.10440  0.56930  0.63840  Biso   1.000  H
  H6       1.0000 0.89560  0.06930  0.86160  Biso   1.000  H
  H7       1.0000 0.89560  0.43070  0.36160  Biso   1.000  H
  H8       1.0000 0.10440  0.93070  0.13840  Biso   1.000  H
  C13      1.0000 0.04730  0.88370  0.56400  Biso   1.000  C
  C14      1.0000 0.95270  0.38370  0.93600  Biso   1.000  C
  C15      1.0000 0.95270  0.11630  0.43600  Biso   1.000  C
  C16      1.0000 0.04730  0.61630  0.06400  Biso   1.000  C
  Cu1      1.0000 0.50491  0.89926  0.55765  Biso   1.000  Cu
  Cu2      1.0000 0.49509  0.39926  0.94235  Biso   1.000  Cu
  Cu3      1.0000 0.49509  0.10074  0.44235  Biso   1.000  Cu
  Cu4      1.0000 0.50491  0.60074  0.05765  Biso   1.000  Cu
  Cu5      1.0000 0.50902  0.67588  0.75541  Biso   1.000  Cu
  Cu6      1.0000 0.49098  0.17588  0.74459  Biso   1.000  Cu
  Cu7      1.0000 0.49098  0.32412  0.24459  Biso   1.000  Cu
  Cu8      1.0000 0.50902  0.82412  0.25541  Biso   1.000  Cu
  O5       1.0000 0.51440  0.72730  0.55390  Biso   1.000  O
  O6       1.0000 0.48560  0.22730  0.94610  Biso   1.000  O
  O7       1.0000 0.48560  0.27270  0.44610  Biso   1.000  O
  O8       1.0000 0.51440  0.77270  0.05390  Biso   1.000  O
  O9       1.0000 0.50750  0.74960  0.65250  Biso   1.000  O
  O10      1.0000 0.49250  0.24960  0.84750  Biso   1.000  O
  O11      1.0000 0.49250  0.25040  0.34750  Biso   1.000  O
  O12      1.0000 0.50750  0.75040  0.15250  Biso   1.000  O
  O13      1.0000 0.50390  0.57130  0.95110  Biso   1.000  O
  O14      1.0000 0.49610  0.07130  0.54890  Biso   1.000  O
  O15      1.0000 0.49610  0.42870  0.04890  Biso   1.000  O
  O16      1.0000 0.50390  0.92870  0.45110  Biso   1.000  O
  O17      1.0000 0.51260  0.58210  0.85250  Biso   1.000  O
  O18      1.0000 0.48740  0.08210  0.64750  Biso   1.000  O
  O19      1.0000 0.48740  0.41790  0.14750  Biso   1.000  O
  O20      1.0000 0.51260  0.91790  0.35250  Biso   1.000  O
  O21      1.0000 0.51040  0.33050  0.71100  Biso   1.000  O
  O22      1.0000 0.48960  0.83050  0.78900  Biso   1.000  O
  O23      1.0000 0.48960  0.66950  0.28900  Biso   1.000  O
  O24      1.0000 0.51040  0.16950  0.21100  Biso   1.000  O
  N1       1.0000 0.38200  0.87960  0.52080  Biso   1.000  N
  N2       1.0000 0.61800  0.37960  0.97920  Biso   1.000  N
  N3       1.0000 0.61800  0.12040  0.47920  Biso   1.000  N
  N4       1.0000 0.38200  0.62040  0.02080  Biso   1.000  N
  N5       1.0000 0.25440  0.86330  0.51450  Biso   1.000  N
  N6       1.0000 0.74560  0.36330  0.98550  Biso   1.000  N
  N7       1.0000 0.74560  0.13670  0.48550  Biso   1.000  N
  N8       1.0000 0.25440  0.63670  0.01450  Biso   1.000  N
  N9       1.0000 0.62880  0.91050  0.60750  Biso   1.000  N
  N10      1.0000 0.37120  0.41050  0.89250  Biso   1.000  N
  N11      1.0000 0.37120  0.08950  0.39250  Biso   1.000  N
  N12      1.0000 0.62880  0.58950  0.10750  Biso   1.000  N
  N13      1.0000 0.76110  0.91290  0.62400  Biso   1.000  N
  N14      1.0000 0.23890  0.41290  0.87600  Biso   1.000  N
  N15      1.0000 0.23890  0.08710  0.37600  Biso   1.000  N
  N16      1.0000 0.76110  0.58710  0.12400  Biso   1.000  N
  N17      1.0000 0.63450  0.70490  0.80020  Biso   1.000  N
  N18      1.0000 0.36550  0.20490  0.69980  Biso   1.000  N
  N19      1.0000 0.36550  0.29510  0.19980  Biso   1.000  N
  N20      1.0000 0.63450  0.79510  0.30020  Biso   1.000  N
  N21      1.0000 0.76290  0.72510  0.80930  Biso   1.000  N
  N22      1.0000 0.23710  0.22510  0.69070  Biso   1.000  N
  N23      1.0000 0.23710  0.27490  0.19070  Biso   1.000  N
  N24      1.0000 0.76290  0.77490  0.30930  Biso   1.000  N
  N25      1.0000 0.38310  0.65880  0.70820  Biso   1.000  N
  N26      1.0000 0.61690  0.15880  0.79180  Biso   1.000  N
  N27      1.0000 0.61690  0.34120  0.29180  Biso   1.000  N
  N28      1.0000 0.38310  0.84120  0.20820  Biso   1.000  N
  N29      1.0000 0.25050  0.66930  0.69080  Biso   1.000  N
  N30      1.0000 0.74950  0.16930  0.80920  Biso   1.000  N
  N31      1.0000 0.74950  0.33070  0.30920  Biso   1.000  N
  N32      1.0000 0.25050  0.83070  0.19080  Biso   1.000  N
  C17      1.0000 0.51080  0.68970  0.60740  Biso   1.000  C
  C18      1.0000 0.48920  0.18970  0.89260  Biso   1.000  C
  C19      1.0000 0.48920  0.31030  0.39260  Biso   1.000  C
  C20      1.0000 0.51080  0.81030  0.10740  Biso   1.000  C
  H9       1.0000 0.51060  0.61270  0.61250  Biso   1.000  H
  H10      1.0000 0.48940  0.11270  0.88750  Biso   1.000  H
  H11      1.0000 0.48940  0.38730  0.38750  Biso   1.000  H
  H12      1.0000 0.51060  0.88730  0.11250  Biso   1.000  H
  C21      1.0000 0.50990  0.62610  0.90290  Biso   1.000  C
  C22      1.0000 0.49010  0.12610  0.59710  Biso   1.000  C
  C23      1.0000 0.49010  0.37390  0.09710  Biso   1.000  C
  C24      1.0000 0.50990  0.87390  0.40290  Biso   1.000  C
  H13      1.0000 0.51250  0.70350  0.90590  Biso   1.000  H
  H14      1.0000 0.48750  0.20350  0.59410  Biso   1.000  H
  H15      1.0000 0.48750  0.29650  0.09410  Biso   1.000  H
  H16      1.0000 0.51250  0.79650  0.40590  Biso   1.000  H
  C25      1.0000 0.50380  0.42440  0.73540  Biso   1.000  C
  C26      1.0000 0.49620  0.92440  0.76460  Biso   1.000  C
  C27      1.0000 0.49620  0.57560  0.26460  Biso   1.000  C
  C28      1.0000 0.50380  0.07560  0.23540  Biso   1.000  C
  H17      1.0000 0.48050  0.42410  0.76490  Biso   1.000  H
  H18      1.0000 0.51950  0.92410  0.73510  Biso   1.000  H
  H19      1.0000 0.51950  0.57590  0.23510  Biso   1.000  H
  H20      1.0000 0.48050  0.07590  0.26490  Biso   1.000  H
  C29      1.0000 0.33230  0.90280  0.55080  Biso   1.000  C
  C30      1.0000 0.66770  0.40280  0.94920  Biso   1.000  C
  C31      1.0000 0.66770  0.09720  0.44920  Biso   1.000  C
  C32      1.0000 0.33230  0.59720  0.05080  Biso   1.000  C
  H21      1.0000 0.34900  0.94040  0.59070  Biso   1.000  H
  H22      1.0000 0.65100  0.44040  0.90930  Biso   1.000  H
  H23      1.0000 0.65100  0.05960  0.40930  Biso   1.000  H
  H24      1.0000 0.34900  0.55960  0.09070  Biso   1.000  H
  C33      1.0000 0.33130  0.82370  0.46140  Biso   1.000  C
  C34      1.0000 0.66870  0.32370  0.03860  Biso   1.000  C
  C35      1.0000 0.66870  0.17630  0.53860  Biso   1.000  C
  C36      1.0000 0.33130  0.67630  0.96140  Biso   1.000  C
  H25      1.0000 0.34750  0.79840  0.42990  Biso   1.000  H
  H26      1.0000 0.65250  0.29840  0.07010  Biso   1.000  H
  H27      1.0000 0.65250  0.20160  0.57010  Biso   1.000  H
  H28      1.0000 0.34750  0.70160  0.92990  Biso   1.000  H
  C37      1.0000 0.25400  0.81290  0.45810  Biso   1.000  C
  C38      1.0000 0.74600  0.31290  0.04190  Biso   1.000  C
  C39      1.0000 0.74600  0.18710  0.54190  Biso   1.000  C
  C40      1.0000 0.25400  0.68710  0.95810  Biso   1.000  C
  H29      1.0000 0.20970  0.77830  0.42460  Biso   1.000  H
  H30      1.0000 0.79030  0.27830  0.07540  Biso   1.000  H
  H31      1.0000 0.79030  0.22170  0.57540  Biso   1.000  H
  H32      1.0000 0.20970  0.72170  0.92460  Biso   1.000  H
  C41      1.0000 0.18430  0.87040  0.53200  Biso   1.000  C
  C42      1.0000 0.81570  0.37040  0.96800  Biso   1.000  C
  C43      1.0000 0.81570  0.12960  0.46800  Biso   1.000  C
  C44      1.0000 0.18430  0.62960  0.03200  Biso   1.000  C
  C45      1.0000 0.12050  0.79160  0.50650  Biso   1.000  C
  C46      1.0000 0.87950  0.29160  0.99350  Biso   1.000  C
  C47      1.0000 0.87950  0.20840  0.49350  Biso   1.000  C
  C48      1.0000 0.12050  0.70840  0.00650  Biso   1.000  C
  H33      1.0000 0.12270  0.73480  0.47920  Biso   1.000  H
  H34      1.0000 0.87730  0.23480  0.02080  Biso   1.000  H
  H35      1.0000 0.87730  0.26520  0.52080  Biso   1.000  H
  H36      1.0000 0.12270  0.76520  0.97920  Biso   1.000  H
  C49      1.0000 0.17990  0.95620  0.57330  Biso   1.000  C
  C50      1.0000 0.82010  0.45620  0.92670  Biso   1.000  C
  C51      1.0000 0.82010  0.04380  0.42670  Biso   1.000  C
  C52      1.0000 0.17990  0.54380  0.07330  Biso   1.000  C
  H37      1.0000 0.22110  0.00930  0.58950  Biso   1.000  H
  H38      1.0000 0.77890  0.50930  0.91050  Biso   1.000  H
  H39      1.0000 0.77890  0.99070  0.41050  Biso   1.000  H
  H40      1.0000 0.22110  0.49070  0.08950  Biso   1.000  H
  C53      1.0000 0.68280  0.88860  0.58160  Biso   1.000  C
  C54      1.0000 0.31720  0.38860  0.91840  Biso   1.000  C
  C55      1.0000 0.31720  0.11140  0.41840  Biso   1.000  C
  C56      1.0000 0.68280  0.61140  0.08160  Biso   1.000  C
  H41      1.0000 0.66760  0.86020  0.53940  Biso   1.000  H
  H42      1.0000 0.33240  0.36020  0.96060  Biso   1.000  H
  H43      1.0000 0.33240  0.13980  0.46060  Biso   1.000  H
  H44      1.0000 0.66760  0.63980  0.03940  Biso   1.000  H
  C57      1.0000 0.67760  0.95220  0.67180  Biso   1.000  C
  C58      1.0000 0.32240  0.45220  0.82820  Biso   1.000  C
  C59      1.0000 0.32240  0.04780  0.32820  Biso   1.000  C
  C60      1.0000 0.67760  0.54780  0.17180  Biso   1.000  C
  H45      1.0000 0.65850  0.97480  0.70200  Biso   1.000  H
  H46      1.0000 0.34150  0.47480  0.79800  Biso   1.000  H
  H47      1.0000 0.34150  0.02520  0.29800  Biso   1.000  H
  H48      1.0000 0.65850  0.52520  0.20200  Biso   1.000  H
  C61      1.0000 0.75890  0.95360  0.68240  Biso   1.000  C
  C62      1.0000 0.24110  0.45360  0.81760  Biso   1.000  C
  C63      1.0000 0.24110  0.04640  0.31760  Biso   1.000  C
  C64      1.0000 0.75890  0.54640  0.18240  Biso   1.000  C
  H49      1.0000 0.80330  0.97690  0.72040  Biso   1.000  H
  H50      1.0000 0.19670  0.47690  0.77960  Biso   1.000  H
  H51      1.0000 0.19670  0.02310  0.27960  Biso   1.000  H
  H52      1.0000 0.80330  0.52310  0.22040  Biso   1.000  H
  C65      1.0000 0.83270  0.90400  0.60960  Biso   1.000  C
  C66      1.0000 0.16730  0.40400  0.89040  Biso   1.000  C
  C67      1.0000 0.16730  0.09600  0.39040  Biso   1.000  C
  C68      1.0000 0.83270  0.59600  0.10960  Biso   1.000  C
  C69      1.0000 0.90050  0.97940  0.64050  Biso   1.000  C
  C70      1.0000 0.09950  0.47940  0.85950  Biso   1.000  C
  C71      1.0000 0.09950  0.02060  0.35950  Biso   1.000  C
  C72      1.0000 0.90050  0.52060  0.14050  Biso   1.000  C
  H53      1.0000 0.89970  0.03310  0.67000  Biso   1.000  H
  H54      1.0000 0.10030  0.53310  0.83000  Biso   1.000  H
  H55      1.0000 0.10030  0.96690  0.33000  Biso   1.000  H
  H56      1.0000 0.89970  0.46690  0.17000  Biso   1.000  H
  C73      1.0000 0.96840  0.97110  0.62560  Biso   1.000  C
  C74      1.0000 0.03160  0.47110  0.87440  Biso   1.000  C
  C75      1.0000 0.03160  0.02890  0.37440  Biso   1.000  C
  C76      1.0000 0.96840  0.52890  0.12560  Biso   1.000  C
  H57      1.0000 0.01170  0.02010  0.64610  Biso   1.000  H
  H58      1.0000 0.98830  0.52010  0.85390  Biso   1.000  H
  H59      1.0000 0.98830  0.97990  0.35390  Biso   1.000  H
  H60      1.0000 0.01170  0.47990  0.14610  Biso   1.000  H
  C77      1.0000 0.97320  0.89110  0.58050  Biso   1.000  C
  C78      1.0000 0.02680  0.39110  0.91950  Biso   1.000  C
  C79      1.0000 0.02680  0.10890  0.41950  Biso   1.000  C
  C80      1.0000 0.97320  0.60890  0.08050  Biso   1.000  C
  C81      1.0000 0.90560  0.81490  0.55100  Biso   1.000  C
  C82      1.0000 0.09440  0.31490  0.94900  Biso   1.000  C
  C83      1.0000 0.09440  0.18510  0.44900  Biso   1.000  C
  C84      1.0000 0.90560  0.68510  0.05100  Biso   1.000  C
  H61      1.0000 0.90650  0.76050  0.52190  Biso   1.000  H
  H62      1.0000 0.09350  0.26050  0.97810  Biso   1.000  H
  H63      1.0000 0.09350  0.23950  0.47810  Biso   1.000  H
  H64      1.0000 0.90650  0.73950  0.02190  Biso   1.000  H
  C85      1.0000 0.83710  0.82240  0.56620  Biso   1.000  C
  C86      1.0000 0.16290  0.32240  0.93380  Biso   1.000  C
  C87      1.0000 0.16290  0.17760  0.43380  Biso   1.000  C
  C88      1.0000 0.83710  0.67760  0.06620  Biso   1.000  C
  H65      1.0000 0.79440  0.77210  0.54680  Biso   1.000  H
  H66      1.0000 0.20560  0.27210  0.95320  Biso   1.000  H
  H67      1.0000 0.20560  0.22790  0.45320  Biso   1.000  H
  H68      1.0000 0.79440  0.72790  0.04680  Biso   1.000  H
  C89      1.0000 0.11310  0.96270  0.59050  Biso   1.000  C
  C90      1.0000 0.88690  0.46270  0.90950  Biso   1.000  C
  C91      1.0000 0.88690  0.03730  0.40950  Biso   1.000  C
  C92      1.0000 0.11310  0.53730  0.09050  Biso   1.000  C
  H69      1.0000 0.11220  0.01830  0.61900  Biso   1.000  H
  H70      1.0000 0.88780  0.51830  0.88100  Biso   1.000  H
  H71      1.0000 0.88780  0.98170  0.38100  Biso   1.000  H
  H72      1.0000 0.11220  0.48170  0.11900  Biso   1.000  H
  C93      1.0000 0.05300  0.79810  0.52200  Biso   1.000  C
  C94      1.0000 0.94700  0.29810  0.97800  Biso   1.000  C
  C95      1.0000 0.94700  0.20190  0.47800  Biso   1.000  C
  C96      1.0000 0.05300  0.70190  0.02200  Biso   1.000  C
  H73      1.0000 0.01160  0.74550  0.50450  Biso   1.000  H
  H74      1.0000 0.98840  0.24550  0.99550  Biso   1.000  H
  H75      1.0000 0.98840  0.25450  0.49550  Biso   1.000  H
  H76      1.0000 0.01160  0.75450  0.00450  Biso   1.000  H
  C97      1.0000 0.68440  0.68030  0.77190  Biso   1.000  C
  C98      1.0000 0.31560  0.18030  0.72810  Biso   1.000  C
  C99      1.0000 0.31560  0.31970  0.22810  Biso   1.000  C
  C100     1.0000 0.68440  0.81970  0.27190  Biso   1.000  C
  H77      1.0000 0.66930  0.63960  0.73330  Biso   1.000  H
  H78      1.0000 0.33070  0.13960  0.76670  Biso   1.000  H
  H79      1.0000 0.33070  0.36040  0.26670  Biso   1.000  H
  H80      1.0000 0.66930  0.86040  0.23330  Biso   1.000  H
  C101     1.0000 0.68050  0.76670  0.85770  Biso   1.000  C
  C102     1.0000 0.31950  0.26670  0.64230  Biso   1.000  C
  C103     1.0000 0.31950  0.23330  0.14230  Biso   1.000  C
  C104     1.0000 0.68050  0.73330  0.35770  Biso   1.000  C
  H81      1.0000 0.66090  0.79440  0.88670  Biso   1.000  H
  H82      1.0000 0.33910  0.29440  0.61330  Biso   1.000  H
  H83      1.0000 0.33910  0.20560  0.11330  Biso   1.000  H
  H84      1.0000 0.66090  0.70560  0.38670  Biso   1.000  H
  C105     1.0000 0.76030  0.77990  0.86460  Biso   1.000  C
  C106     1.0000 0.23970  0.27990  0.63540  Biso   1.000  C
  C107     1.0000 0.23970  0.22010  0.13540  Biso   1.000  C
  C108     1.0000 0.76030  0.72010  0.36460  Biso   1.000  C
  H85      1.0000 0.80290  0.81690  0.89840  Biso   1.000  H
  H86      1.0000 0.19710  0.31690  0.60160  Biso   1.000  H
  H87      1.0000 0.19710  0.18310  0.10160  Biso   1.000  H
  H88      1.0000 0.80290  0.68310  0.39840  Biso   1.000  H
  C109     1.0000 0.83300  0.72070  0.79140  Biso   1.000  C
  C110     1.0000 0.16700  0.22070  0.70860  Biso   1.000  C
  C111     1.0000 0.16700  0.27930  0.20860  Biso   1.000  C
  C112     1.0000 0.83300  0.77930  0.29140  Biso   1.000  C
  C113     1.0000 0.82770  0.65500  0.73720  Biso   1.000  C
  C114     1.0000 0.17230  0.15500  0.76280  Biso   1.000  C
  C115     1.0000 0.17230  0.34500  0.26280  Biso   1.000  C
  C116     1.0000 0.82770  0.84500  0.23720  Biso   1.000  C
  H89      1.0000 0.78130  0.61280  0.71350  Biso   1.000  H
  H90      1.0000 0.21870  0.11280  0.78650  Biso   1.000  H
  H91      1.0000 0.21870  0.38720  0.28650  Biso   1.000  H
  H92      1.0000 0.78130  0.88720  0.21350  Biso   1.000  H
  C117     1.0000 0.89410  0.65380  0.71880  Biso   1.000  C
  C118     1.0000 0.10590  0.15380  0.78120  Biso   1.000  C
  C119     1.0000 0.10590  0.34620  0.28120  Biso   1.000  C
  C120     1.0000 0.89410  0.84620  0.21880  Biso   1.000  C
  H93      1.0000 0.88930  0.61100  0.68280  Biso   1.000  H
  H94      1.0000 0.11070  0.11100  0.81720  Biso   1.000  H
  H95      1.0000 0.11070  0.38900  0.31720  Biso   1.000  H
  H96      1.0000 0.88930  0.88900  0.18280  Biso   1.000  H
  C121     1.0000 0.96810  0.71670  0.75440  Biso   1.000  C
  C122     1.0000 0.03190  0.21670  0.74560  Biso   1.000  C
  C123     1.0000 0.03190  0.28330  0.24560  Biso   1.000  C
  C124     1.0000 0.96810  0.78330  0.25440  Biso   1.000  C
  C125     1.0000 0.97210  0.78100  0.80990  Biso   1.000  C
  C126     1.0000 0.02790  0.28100  0.69010  Biso   1.000  C
  C127     1.0000 0.02790  0.21900  0.19010  Biso   1.000  C
  C128     1.0000 0.97210  0.71900  0.30990  Biso   1.000  C
  H97      1.0000 0.01910  0.82170  0.83450  Biso   1.000  H
  H98      1.0000 0.98090  0.32170  0.66550  Biso   1.000  H
  H99      1.0000 0.98090  0.17830  0.16550  Biso   1.000  H
  H100     1.0000 0.01910  0.67830  0.33450  Biso   1.000  H
  C129     1.0000 0.90560  0.78410  0.82850  Biso   1.000  C
  C130     1.0000 0.09440  0.28410  0.67150  Biso   1.000  C
  C131     1.0000 0.09440  0.21590  0.17150  Biso   1.000  C
  C132     1.0000 0.90560  0.71590  0.32850  Biso   1.000  C
  H101     1.0000 0.90970  0.82680  0.86430  Biso   1.000  H
  H102     1.0000 0.09030  0.32680  0.63570  Biso   1.000  H
  H103     1.0000 0.09030  0.17320  0.13570  Biso   1.000  H
  H104     1.0000 0.90970  0.67320  0.36430  Biso   1.000  H
  C133     1.0000 0.11000  0.78170  0.76590  Biso   1.000  C
  C134     1.0000 0.89000  0.28170  0.73410  Biso   1.000  C
  C135     1.0000 0.89000  0.21830  0.23410  Biso   1.000  C
  C136     1.0000 0.11000  0.71830  0.26590  Biso   1.000  C
  H105     1.0000 0.11180  0.83450  0.79680  Biso   1.000  H
  H106     1.0000 0.88820  0.33450  0.70320  Biso   1.000  H
  H107     1.0000 0.88820  0.16550  0.20320  Biso   1.000  H
  H108     1.0000 0.11180  0.66550  0.29680  Biso   1.000  H
  C137     1.0000 0.33110  0.69810  0.73200  Biso   1.000  C
  C138     1.0000 0.66890  0.19810  0.76800  Biso   1.000  C
  C139     1.0000 0.66890  0.30190  0.26800  Biso   1.000  C
  C140     1.0000 0.33110  0.80190  0.23200  Biso   1.000  C
  H109     1.0000 0.34700  0.73880  0.77080  Biso   1.000  H
  H110     1.0000 0.65300  0.23880  0.72920  Biso   1.000  H
  H111     1.0000 0.65300  0.26120  0.22920  Biso   1.000  H
  H112     1.0000 0.34700  0.76120  0.27080  Biso   1.000  H
  C141     1.0000 0.33500  0.60350  0.64930  Biso   1.000  C
  C142     1.0000 0.66500  0.10350  0.85070  Biso   1.000  C
  C143     1.0000 0.66500  0.39650  0.35070  Biso   1.000  C
  C144     1.0000 0.33500  0.89650  0.14930  Biso   1.000  C
  H113     1.0000 0.35440  0.56860  0.62210  Biso   1.000  H
  H114     1.0000 0.64560  0.06860  0.87790  Biso   1.000  H
  H115     1.0000 0.64560  0.43140  0.37790  Biso   1.000  H
  H116     1.0000 0.35440  0.93140  0.12210  Biso   1.000  H
  C145     1.0000 0.25320  0.60860  0.63760  Biso   1.000  C
  C146     1.0000 0.74680  0.10860  0.86240  Biso   1.000  C
  C147     1.0000 0.74680  0.39140  0.36240  Biso   1.000  C
  C148     1.0000 0.25320  0.89140  0.13760  Biso   1.000  C
  H117     1.0000 0.20910  0.57820  0.60190  Biso   1.000  H
  H118     1.0000 0.79090  0.07820  0.89810  Biso   1.000  H
  H119     1.0000 0.79090  0.42180  0.39810  Biso   1.000  H
  H120     1.0000 0.20910  0.92180  0.10190  Biso   1.000  H
  C149     1.0000 0.17710  0.68840  0.70310  Biso   1.000  C
  C150     1.0000 0.82290  0.18840  0.79690  Biso   1.000  C
  C151     1.0000 0.82290  0.31160  0.29690  Biso   1.000  C
  C152     1.0000 0.17710  0.81160  0.20310  Biso   1.000  C
  C153     1.0000 0.17920  0.77090  0.74970  Biso   1.000  C
  C154     1.0000 0.82080  0.27090  0.75030  Biso   1.000  C
  C155     1.0000 0.82080  0.22910  0.25030  Biso   1.000  C
  C156     1.0000 0.17920  0.72910  0.24970  Biso   1.000  C
  H121     1.0000 0.22420  0.81730  0.76950  Biso   1.000  H
  H122     1.0000 0.77580  0.31730  0.73050  Biso   1.000  H
  H123     1.0000 0.77580  0.18270  0.23050  Biso   1.000  H
  H124     1.0000 0.22420  0.68270  0.26950  Biso   1.000  H
  O25      1.0000 0.63820  0.41800  0.65200  Biso   1.000  O
  O26      1.0000 0.36180  0.91800  0.84800  Biso   1.000  O
  O27      1.0000 0.36180  0.58200  0.34800  Biso   1.000  O
  O28      1.0000 0.63820  0.08200  0.15200  Biso   1.000  O
  H125     1.0000 0.64690  0.45650  0.68100  Biso   1.000  H
  H126     1.0000 0.35310  0.95650  0.81900  Biso   1.000  H
  H127     1.0000 0.35310  0.54350  0.31900  Biso   1.000  H
  H128     1.0000 0.64690  0.04350  0.18100  Biso   1.000  H
  H129     1.0000 0.58640  0.38490  0.62500  Biso   1.000  H
  H130     1.0000 0.41360  0.88490  0.87500  Biso   1.000  H
  H131     1.0000 0.41360  0.61510  0.37500  Biso   1.000  H
  H132     1.0000 0.58640  0.11510  0.12500  Biso   1.000  H
  O29      1.0000 0.38580  0.36830  0.51590  Biso   1.000  O
  O30      1.0000 0.61420  0.86830  0.98410  Biso   1.000  O
  O31      1.0000 0.61420  0.63170  0.48410  Biso   1.000  O
  O32      1.0000 0.38580  0.13170  0.01590  Biso   1.000  O
  H133     1.0000 0.41780  0.42120  0.53380  Biso   1.000  H
  H134     1.0000 0.58220  0.92120  0.96620  Biso   1.000  H
  H135     1.0000 0.58220  0.57880  0.46620  Biso   1.000  H
  H136     1.0000 0.41780  0.07880  0.03380  Biso   1.000  H
  H137     1.0000 0.34280  0.38220  0.52120  Biso   1.000  H
  H138     1.0000 0.65720  0.88220  0.97880  Biso   1.000  H
  H139     1.0000 0.65720  0.61780  0.47880  Biso   1.000  H
  H140     1.0000 0.34280  0.11780  0.02120  Biso   1.000  H
  O33      1.0000 0.13370  0.53630  0.42770  Biso   1.000  O
  O34      1.0000 0.86630  0.03630  0.07230  Biso   1.000  O
  O35      1.0000 0.86630  0.46370  0.57230  Biso   1.000  O
  O36      1.0000 0.13370  0.96370  0.92770  Biso   1.000  O
  H141     1.0000 0.24780  0.45350  0.48510  Biso   1.000  H
  H142     1.0000 0.75220  0.95350  0.01490  Biso   1.000  H
  H143     1.0000 0.75220  0.54650  0.51490  Biso   1.000  H
  H144     1.0000 0.24780  0.04650  0.98510  Biso   1.000  H
  C157     1.0000 0.21000  0.49760  0.44930  Biso   1.000  C
  C158     1.0000 0.79000  0.99760  0.05070  Biso   1.000  C
  C159     1.0000 0.79000  0.50240  0.55070  Biso   1.000  C
  C160     1.0000 0.21000  0.00240  0.94930  Biso   1.000  C
  O37      1.0000 0.26050  0.50150  0.41040  Biso   1.000  O
  O38      1.0000 0.73950  0.00150  0.08960  Biso   1.000  O
  O39      1.0000 0.73950  0.49850  0.58960  Biso   1.000  O
  O40      1.0000 0.26050  0.99850  0.91040  Biso   1.000  O
  O41      1.0000 0.08260  0.45820  0.51980  Biso   1.000  O
  O42      1.0000 0.91740  0.95820  0.98020  Biso   1.000  O
  O43      1.0000 0.91740  0.54180  0.48020  Biso   1.000  O
  O44      1.0000 0.08260  0.04180  0.01980  Biso   1.000  O
  C161     1.0000 0.13540  0.47200  0.48410  Biso   1.000  C
  C162     1.0000 0.86460  0.97200  0.01590  Biso   1.000  C
  C163     1.0000 0.86460  0.52800  0.51590  Biso   1.000  C
  C164     1.0000 0.13540  0.02800  0.98410  Biso   1.000  C
