data_image0
_cell_length_a       7.7216
_cell_length_b       9.3835
_cell_length_c       13.1827
_cell_angle_alpha    75.752
_cell_angle_beta     76.215
_cell_angle_gamma    78.194

_symmetry_space_group_name_H-M    "P 1"
_symmetry_int_tables_number       1

loop_
  _symmetry_equiv_pos_as_xyz
  'x, y, z'

loop_
  _atom_site_label
  _atom_site_occupancy
  _atom_site_fract_x
  _atom_site_fract_y
  _atom_site_fract_z
  _atom_site_thermal_displace_type
  _atom_site_B_iso_or_equiv
  _atom_site_type_symbol
  Eu1      1.0000 0.55122  0.55242  0.70217  Biso   1.000  Eu
  Eu2      1.0000 0.44878  0.44758  0.29783  Biso   1.000  Eu
  Cu1      1.0000 0.50000  0.00000  0.00000  Biso   1.000  Cu
  O1       1.0000 0.30150  0.73380  0.75630  Biso   1.000  O
  O2       1.0000 0.69850  0.26620  0.24370  Biso   1.000  O
  O3       1.0000 0.04500  0.69710  0.72420  Biso   1.000  O
  O4       1.0000 0.95500  0.30290  0.27580  Biso   1.000  O
  O5       1.0000 0.55270  0.18150  0.02400  Biso   1.000  O
  O6       1.0000 0.44730  0.81850  0.97600  Biso   1.000  O
  O7       1.0000 0.76100  0.32940  0.97330  Biso   1.000  O
  O8       1.0000 0.23900  0.67060  0.02670  Biso   1.000  O
  O9       1.0000 0.70150  0.60940  0.52144  Biso   1.000  O
  O10      1.0000 0.29850  0.39060  0.47856  Biso   1.000  O
  O11      1.0000 0.89090  0.73240  0.39200  Biso   1.000  O
  O12      1.0000 0.10910  0.26760  0.60800  Biso   1.000  O
  O13      1.0000 0.61850  0.30430  0.68120  Biso   1.000  O
  O14      1.0000 0.38150  0.69570  0.31880  Biso   1.000  O
  O15      1.0000 0.46500  0.14550  0.80740  Biso   1.000  O
  O16      1.0000 0.53500  0.85450  0.19260  Biso   1.000  O
  O17      1.0000 0.61510  0.59770  0.86231  Biso   1.000  O
  O18      1.0000 0.38490  0.40230  0.13769  Biso   1.000  O
  H1       1.0000 0.66570  0.51930  0.89880  Biso   1.000  H
  H2       1.0000 0.33430  0.48070  0.10120  Biso   1.000  H
  H3       1.0000 0.53640  0.65480  0.89730  Biso   1.000  H
  H4       1.0000 0.46360  0.34520  0.10270  Biso   1.000  H
  O19      1.0000 0.86640  0.47250  0.71220  Biso   1.000  O
  O20      1.0000 0.13360  0.52750  0.28780  Biso   1.000  O
  H5       1.0000 0.91600  0.53090  0.73170  Biso   1.000  H
  H6       1.0000 0.08400  0.46910  0.26830  Biso   1.000  H
  H7       1.0000 0.93250  0.41430  0.67390  Biso   1.000  H
  H8       1.0000 0.06750  0.58570  0.32610  Biso   1.000  H
  O21      1.0000 0.32340  0.55440  0.60900  Biso   1.000  O
  O22      1.0000 0.67660  0.44560  0.39100  Biso   1.000  O
  H9       1.0000 0.22420  0.58090  0.64930  Biso   1.000  H
  H10      1.0000 0.77580  0.41910  0.35070  Biso   1.000  H
  H11      1.0000 0.32060  0.49460  0.57010  Biso   1.000  H
  H12      1.0000 0.67940  0.50540  0.42990  Biso   1.000  H
  O23      1.0000 0.35600  0.41400  0.84910  Biso   1.000  O
  O24      1.0000 0.64400  0.58600  0.15090  Biso   1.000  O
  H13      1.0000 0.37190  0.32890  0.83400  Biso   1.000  H
  H14      1.0000 0.62810  0.67110  0.16600  Biso   1.000  H
  H15      1.0000 0.25830  0.44740  0.88180  Biso   1.000  H
  H16      1.0000 0.74170  0.55260  0.11820  Biso   1.000  H
  N1       1.0000 0.64570  0.81290  0.63710  Biso   1.000  N
  N2       1.0000 0.35430  0.18710  0.36290  Biso   1.000  N
  N3       1.0000 0.75740  0.97550  0.92830  Biso   1.000  N
  N4       1.0000 0.24260  0.02450  0.07170  Biso   1.000  N
  C1       1.0000 0.78330  0.72000  0.47730  Biso   1.000  C
  C2       1.0000 0.21670  0.28000  0.52270  Biso   1.000  C
  C3       1.0000 0.73860  0.84510  0.53740  Biso   1.000  C
  C4       1.0000 0.26140  0.15490  0.46260  Biso   1.000  C
  C5       1.0000 0.78570  0.98430  0.49130  Biso   1.000  C
  C6       1.0000 0.21430  0.01570  0.50870  Biso   1.000  C
  H17      1.0000 0.85290  0.00290  0.42210  Biso   1.000  H
  H18      1.0000 0.14710  0.99710  0.57790  Biso   1.000  H
  C7       1.0000 0.73220  0.09480  0.54870  Biso   1.000  C
  C8       1.0000 0.26780  0.90520  0.45130  Biso   1.000  C
  H19      1.0000 0.76040  0.18980  0.51850  Biso   1.000  H
  H20      1.0000 0.23960  0.81020  0.48150  Biso   1.000  H
  C9       1.0000 0.63580  0.06280  0.65230  Biso   1.000  C
  C10      1.0000 0.36420  0.93720  0.34770  Biso   1.000  C
  C11      1.0000 0.59780  0.91980  0.69330  Biso   1.000  C
  C12      1.0000 0.40220  0.08020  0.30670  Biso   1.000  C
  H21      1.0000 0.53580  0.89700  0.76350  Biso   1.000  H
  H22      1.0000 0.46420  0.10300  0.23650  Biso   1.000  H
  C13      1.0000 0.56820  0.17980  0.71940  Biso   1.000  C
  C14      1.0000 0.43180  0.82020  0.28060  Biso   1.000  C
  C15      1.0000 0.13460  0.74840  0.77350  Biso   1.000  C
  C16      1.0000 0.86540  0.25160  0.22650  Biso   1.000  C
  C17      1.0000 0.03000  0.87450  0.82580  Biso   1.000  C
  C18      1.0000 0.97000  0.12550  0.17420  Biso   1.000  C
  C19      1.0000 0.10350  0.99880  0.81750  Biso   1.000  C
  C20      1.0000 0.89650  0.00120  0.18250  Biso   1.000  C
  H23      1.0000 0.22130  0.00590  0.78070  Biso   1.000  H
  H24      1.0000 0.77870  0.99410  0.21930  Biso   1.000  H
  C21      1.0000 0.00130  0.11370  0.86410  Biso   1.000  C
  C22      1.0000 0.99870  0.88630  0.13590  Biso   1.000  C
  H25      1.0000 0.04810  0.19990  0.85800  Biso   1.000  H
  H26      1.0000 0.95190  0.80010  0.14200  Biso   1.000  H
  C23      1.0000 0.82980  0.09810  0.91950  Biso   1.000  C
  C24      1.0000 0.17020  0.90190  0.08050  Biso   1.000  C
  C25      1.0000 0.85400  0.86750  0.88150  Biso   1.000  C
  C26      1.0000 0.14600  0.13250  0.11850  Biso   1.000  C
  H27      1.0000 0.80260  0.78410  0.88600  Biso   1.000  H
  H28      1.0000 0.19740  0.21590  0.11400  Biso   1.000  H
  C27      1.0000 0.70810  0.21390  0.97540  Biso   1.000  C
  C28      1.0000 0.29190  0.78610  0.02460  Biso   1.000  C
  O25      1.0000 0.97290  0.50160  0.03180  Biso   1.000  O
  O26      1.0000 0.02710  0.49840  0.96820  Biso   1.000  O
  H29      1.0000 0.04520  0.57830  0.98130  Biso   1.000  H
  H30      1.0000 0.95480  0.42170  0.01870  Biso   1.000  H
  H31      1.0000 0.06680  0.41770  0.00710  Biso   1.000  H
  H32      1.0000 0.93320  0.58230  0.99290  Biso   1.000  H
  O27      1.0000 0.94370  0.36400  0.21600  Biso   1.000  O
  O28      1.0000 0.05630  0.63600  0.78400  Biso   1.000  O
