data_image0
_cell_length_a       7.9977
_cell_length_b       10.9472
_cell_length_c       20.722
_cell_angle_alpha    90
_cell_angle_beta     93.796
_cell_angle_gamma    90

_symmetry_space_group_name_H-M    "P 1"
_symmetry_int_tables_number       1

loop_
  _symmetry_equiv_pos_as_xyz
  'x, y, z'

loop_
  _atom_site_label
  _atom_site_occupancy
  _atom_site_fract_x
  _atom_site_fract_y
  _atom_site_fract_z
  _atom_site_thermal_displace_type
  _atom_site_B_iso_or_equiv
  _atom_site_type_symbol
  Pr1      1.0000 0.00000  0.24421  0.25000  Biso   1.000  Pr
  Pr2      1.0000 0.00000  0.75579  0.75000  Biso   1.000  Pr
  Cu1      1.0000 0.39970  0.33933  0.02378  Biso   1.000  Cu
  Cu2      1.0000 0.60030  0.33933  0.47622  Biso   1.000  Cu
  Cu3      1.0000 0.60030  0.66067  0.97622  Biso   1.000  Cu
  Cu4      1.0000 0.39970  0.66067  0.52378  Biso   1.000  Cu
  K1       1.0000 0.50000  0.72553  0.25000  Biso   1.000  K
  K2       1.0000 0.50000  0.27447  0.75000  Biso   1.000  K
  O1       1.0000 0.97980  0.32140  0.13469  Biso   1.000  O
  O2       1.0000 0.02020  0.32140  0.36531  Biso   1.000  O
  O3       1.0000 0.02020  0.67860  0.86531  Biso   1.000  O
  O4       1.0000 0.97980  0.67860  0.63469  Biso   1.000  O
  O5       1.0000 0.15880  0.24440  0.06677  Biso   1.000  O
  O6       1.0000 0.84120  0.24440  0.43323  Biso   1.000  O
  O7       1.0000 0.84120  0.75560  0.93323  Biso   1.000  O
  O8       1.0000 0.15880  0.75560  0.56677  Biso   1.000  O
  O9       1.0000 0.38990  0.52690  0.18425  Biso   1.000  O
  O10      1.0000 0.61010  0.52690  0.31575  Biso   1.000  O
  O11      1.0000 0.61010  0.47310  0.81575  Biso   1.000  O
  O12      1.0000 0.38990  0.47310  0.68425  Biso   1.000  O
  O13      1.0000 0.46570  0.39400  0.11016  Biso   1.000  O
  O14      1.0000 0.53430  0.39400  0.38984  Biso   1.000  O
  O15      1.0000 0.53430  0.60600  0.88984  Biso   1.000  O
  O16      1.0000 0.46570  0.60600  0.61016  Biso   1.000  O
  O17      1.0000 0.36680  0.29420  0.93346  Biso   1.000  O
  O18      1.0000 0.63320  0.29420  0.56654  Biso   1.000  O
  O19      1.0000 0.63320  0.70580  0.06654  Biso   1.000  O
  O20      1.0000 0.36680  0.70580  0.43346  Biso   1.000  O
  O21      1.0000 0.54720  0.84010  0.13797  Biso   1.000  O
  O22      1.0000 0.45280  0.84010  0.36203  Biso   1.000  O
  O23      1.0000 0.45280  0.15990  0.86203  Biso   1.000  O
  O24      1.0000 0.54720  0.15990  0.63797  Biso   1.000  O
  O25      1.0000 0.96640  0.93290  0.12501  Biso   1.000  O
  O26      1.0000 0.03360  0.93290  0.37499  Biso   1.000  O
  O27      1.0000 0.03360  0.06710  0.87499  Biso   1.000  O
  O28      1.0000 0.96640  0.06710  0.62501  Biso   1.000  O
  O29      1.0000 0.86090  0.07970  0.18460  Biso   1.000  O
  O30      1.0000 0.13910  0.07970  0.31540  Biso   1.000  O
  O31      1.0000 0.13910  0.92030  0.81540  Biso   1.000  O
  O32      1.0000 0.86090  0.92030  0.68460  Biso   1.000  O
  O33      1.0000 0.22880  0.15390  0.18699  Biso   1.000  O
  O34      1.0000 0.77120  0.15390  0.31301  Biso   1.000  O
  O35      1.0000 0.77120  0.84610  0.81301  Biso   1.000  O
  O36      1.0000 0.22880  0.84610  0.68699  Biso   1.000  O
  O37      1.0000 0.00000  0.46890  0.25000  Biso   1.000  O
  O38      1.0000 0.00000  0.53110  0.75000  Biso   1.000  O
  H1       1.0000 0.09100  0.50780  0.25830  Biso   1.000  H
  H2       1.0000 0.90900  0.50780  0.24170  Biso   1.000  H
  H3       1.0000 0.90900  0.49220  0.74170  Biso   1.000  H
  H4       1.0000 0.09100  0.49220  0.75830  Biso   1.000  H
  O39      1.0000 0.29810  0.33870  0.27710  Biso   1.000  O
  O40      1.0000 0.70190  0.33870  0.22290  Biso   1.000  O
  O41      1.0000 0.70190  0.66130  0.72290  Biso   1.000  O
  O42      1.0000 0.29810  0.66130  0.77710  Biso   1.000  O
  H5       1.0000 0.32300  0.36850  0.31440  Biso   1.000  H
  H6       1.0000 0.67700  0.36850  0.18560  Biso   1.000  H
  H7       1.0000 0.67700  0.63150  0.68560  Biso   1.000  H
  H8       1.0000 0.32300  0.63150  0.81440  Biso   1.000  H
  H9       1.0000 0.36970  0.33960  0.24850  Biso   1.000  H
  H10      1.0000 0.63030  0.33960  0.25150  Biso   1.000  H
  H11      1.0000 0.63030  0.66040  0.75150  Biso   1.000  H
  H12      1.0000 0.36970  0.66040  0.74850  Biso   1.000  H
  O43      1.0000 0.20200  0.41400  0.26520  Biso   1.000  O
  O44      1.0000 0.79800  0.41400  0.23480  Biso   1.000  O
  O45      1.0000 0.79800  0.58600  0.73480  Biso   1.000  O
  O46      1.0000 0.20200  0.58600  0.76520  Biso   1.000  O
  H13      1.0000 0.30410  0.39800  0.27590  Biso   1.000  H
  H14      1.0000 0.69590  0.39800  0.22410  Biso   1.000  H
  H15      1.0000 0.69590  0.60200  0.72410  Biso   1.000  H
  H16      1.0000 0.30410  0.60200  0.77590  Biso   1.000  H
  H17      1.0000 0.17010  0.48730  0.25980  Biso   1.000  H
  H18      1.0000 0.82990  0.48730  0.24020  Biso   1.000  H
  H19      1.0000 0.82990  0.51270  0.74020  Biso   1.000  H
  H20      1.0000 0.17010  0.51270  0.75980  Biso   1.000  H
  O47      1.0000 0.83110  0.65580  0.18680  Biso   1.000  O
  O48      1.0000 0.16890  0.65580  0.31320  Biso   1.000  O
  O49      1.0000 0.16890  0.34420  0.81320  Biso   1.000  O
  O50      1.0000 0.83110  0.34420  0.68680  Biso   1.000  O
  H21      1.0000 0.91920  0.69800  0.19480  Biso   1.000  H
  H22      1.0000 0.08080  0.69800  0.30520  Biso   1.000  H
  H23      1.0000 0.08080  0.30200  0.80520  Biso   1.000  H
  H24      1.0000 0.91920  0.30200  0.69480  Biso   1.000  H
  H25      1.0000 0.83290  0.59450  0.16160  Biso   1.000  H
  H26      1.0000 0.16710  0.59450  0.33840  Biso   1.000  H
  H27      1.0000 0.16710  0.40550  0.83840  Biso   1.000  H
  H28      1.0000 0.83290  0.40550  0.66160  Biso   1.000  H
  O51      1.0000 0.80640  0.86110  0.27330  Biso   1.000  O
  O52      1.0000 0.19360  0.86110  0.22670  Biso   1.000  O
  O53      1.0000 0.19360  0.13890  0.72670  Biso   1.000  O
  O54      1.0000 0.80640  0.13890  0.77330  Biso   1.000  O
  H29      1.0000 0.89390  0.83930  0.25520  Biso   1.000  H
  H30      1.0000 0.10610  0.83930  0.24480  Biso   1.000  H
  H31      1.0000 0.10610  0.16070  0.74480  Biso   1.000  H
  H32      1.0000 0.89390  0.16070  0.75520  Biso   1.000  H
  H33      1.0000 0.80940  0.92290  0.29820  Biso   1.000  H
  H34      1.0000 0.19060  0.92290  0.20180  Biso   1.000  H
  H35      1.0000 0.19060  0.07710  0.70180  Biso   1.000  H
  H36      1.0000 0.80940  0.07710  0.79820  Biso   1.000  H
  N1       1.0000 0.27840  0.49880  0.01781  Biso   1.000  N
  N2       1.0000 0.72160  0.49880  0.48219  Biso   1.000  N
  N3       1.0000 0.72160  0.50120  0.98219  Biso   1.000  N
  N4       1.0000 0.27840  0.50120  0.51781  Biso   1.000  N
  N5       1.0000 0.55570  0.19890  0.02851  Biso   1.000  N
  N6       1.0000 0.44430  0.19890  0.47149  Biso   1.000  N
  N7       1.0000 0.44430  0.80110  0.97149  Biso   1.000  N
  N8       1.0000 0.55570  0.80110  0.52851  Biso   1.000  N
  C1       1.0000 0.02850  0.30250  0.07970  Biso   1.000  C
  C2       1.0000 0.97150  0.30250  0.42030  Biso   1.000  C
  C3       1.0000 0.97150  0.69750  0.92030  Biso   1.000  C
  C4       1.0000 0.02850  0.69750  0.57970  Biso   1.000  C
  C5       1.0000 0.92280  0.35410  0.02280  Biso   1.000  C
  C6       1.0000 0.07720  0.35410  0.47720  Biso   1.000  C
  C7       1.0000 0.07720  0.64590  0.97720  Biso   1.000  C
  C8       1.0000 0.92280  0.64590  0.52280  Biso   1.000  C
  C9       1.0000 0.93520  0.30860  0.96070  Biso   1.000  C
  C10      1.0000 0.06480  0.30860  0.53930  Biso   1.000  C
  C11      1.0000 0.06480  0.69140  0.03930  Biso   1.000  C
  C12      1.0000 0.93520  0.69140  0.46070  Biso   1.000  C
  H37      1.0000 0.00980  0.24580  0.95330  Biso   1.000  H
  H38      1.0000 0.99020  0.24580  0.54670  Biso   1.000  H
  H39      1.0000 0.99020  0.75420  0.04670  Biso   1.000  H
  H40      1.0000 0.00980  0.75420  0.45330  Biso   1.000  H
  C13      1.0000 0.83580  0.35740  0.91030  Biso   1.000  C
  C14      1.0000 0.16420  0.35740  0.58970  Biso   1.000  C
  C15      1.0000 0.16420  0.64260  0.08970  Biso   1.000  C
  C16      1.0000 0.83580  0.64260  0.41030  Biso   1.000  C
  H41      1.0000 0.83930  0.32630  0.86870  Biso   1.000  H
  H42      1.0000 0.16070  0.32630  0.63130  Biso   1.000  H
  H43      1.0000 0.16070  0.67370  0.13130  Biso   1.000  H
  H44      1.0000 0.83930  0.67370  0.36870  Biso   1.000  H
  C17      1.0000 0.26890  0.54650  0.07720  Biso   1.000  C
  C18      1.0000 0.73110  0.54650  0.42280  Biso   1.000  C
  C19      1.0000 0.73110  0.45350  0.92280  Biso   1.000  C
  C20      1.0000 0.26890  0.45350  0.57720  Biso   1.000  C
  C21      1.0000 0.38260  0.48580  0.12930  Biso   1.000  C
  C22      1.0000 0.61740  0.48580  0.37070  Biso   1.000  C
  C23      1.0000 0.61740  0.51420  0.87070  Biso   1.000  C
  C24      1.0000 0.38260  0.51420  0.62930  Biso   1.000  C
  C25      1.0000 0.18620  0.54930  0.96800  Biso   1.000  C
  C26      1.0000 0.81380  0.54930  0.53200  Biso   1.000  C
  C27      1.0000 0.81380  0.45070  0.03200  Biso   1.000  C
  C28      1.0000 0.18620  0.45070  0.46800  Biso   1.000  C
  H45      1.0000 0.19570  0.51900  0.92650  Biso   1.000  H
  H46      1.0000 0.80430  0.51900  0.57350  Biso   1.000  H
  H47      1.0000 0.80430  0.48100  0.07350  Biso   1.000  H
  H48      1.0000 0.19570  0.48100  0.42650  Biso   1.000  H
  C29      1.0000 0.45610  0.20230  0.91650  Biso   1.000  C
  C30      1.0000 0.54390  0.20230  0.58350  Biso   1.000  C
  C31      1.0000 0.54390  0.79770  0.08350  Biso   1.000  C
  C32      1.0000 0.45610  0.79770  0.41650  Biso   1.000  C
  C33      1.0000 0.56920  0.14820  0.96970  Biso   1.000  C
  C34      1.0000 0.43080  0.14820  0.53030  Biso   1.000  C
  C35      1.0000 0.43080  0.85180  0.03030  Biso   1.000  C
  C36      1.0000 0.56920  0.85180  0.46970  Biso   1.000  C
  C37      1.0000 0.68250  0.05560  0.96060  Biso   1.000  C
  C38      1.0000 0.31750  0.05560  0.53940  Biso   1.000  C
  C39      1.0000 0.31750  0.94440  0.03940  Biso   1.000  C
  C40      1.0000 0.68250  0.94440  0.46060  Biso   1.000  C
  H49      1.0000 0.69240  0.02230  0.91970  Biso   1.000  H
  H50      1.0000 0.30760  0.02230  0.58030  Biso   1.000  H
  H51      1.0000 0.30760  0.97770  0.08030  Biso   1.000  H
  H52      1.0000 0.69240  0.97770  0.41970  Biso   1.000  H
  C41      1.0000 0.78130  0.01300  0.01330  Biso   1.000  C
  C42      1.0000 0.21870  0.01300  0.48670  Biso   1.000  C
  C43      1.0000 0.21870  0.98700  0.98670  Biso   1.000  C
  C44      1.0000 0.78130  0.98700  0.51330  Biso   1.000  C
  H53      1.0000 0.85760  0.95020  0.00810  Biso   1.000  H
  H54      1.0000 0.14240  0.95020  0.49190  Biso   1.000  H
  H55      1.0000 0.14240  0.04980  0.99190  Biso   1.000  H
  H56      1.0000 0.85760  0.04980  0.50810  Biso   1.000  H
  C45      1.0000 0.76670  0.06370  0.07360  Biso   1.000  C
  C46      1.0000 0.23330  0.06370  0.42640  Biso   1.000  C
  C47      1.0000 0.23330  0.93630  0.92640  Biso   1.000  C
  C48      1.0000 0.76670  0.93630  0.57360  Biso   1.000  C
  C49      1.0000 0.64990  0.15820  0.07920  Biso   1.000  C
  C50      1.0000 0.35010  0.15820  0.42080  Biso   1.000  C
  C51      1.0000 0.35010  0.84180  0.92080  Biso   1.000  C
  C52      1.0000 0.64990  0.84180  0.57920  Biso   1.000  C
  H57      1.0000 0.63810  0.19320  0.11960  Biso   1.000  H
  H58      1.0000 0.36190  0.19320  0.38040  Biso   1.000  H
  H59      1.0000 0.36190  0.80680  0.88040  Biso   1.000  H
  H60      1.0000 0.63810  0.80680  0.61960  Biso   1.000  H
  C53      1.0000 0.87440  0.02080  0.13230  Biso   1.000  C
  C54      1.0000 0.12560  0.02080  0.36770  Biso   1.000  C
  C55      1.0000 0.12560  0.97920  0.86770  Biso   1.000  C
  C56      1.0000 0.87440  0.97920  0.63230  Biso   1.000  C
  O55      1.0000 0.50000  0.96020  0.75000  Biso   1.000  O
  O56      1.0000 0.50000  0.03980  0.25000  Biso   1.000  O
  H61      1.0000 0.45730  0.96650  0.78970  Biso   1.000  H
  H62      1.0000 0.54270  0.96650  0.71030  Biso   1.000  H
  H63      1.0000 0.54270  0.03350  0.21030  Biso   1.000  H
  H64      1.0000 0.45730  0.03350  0.28970  Biso   1.000  H
  H65      1.0000 0.58160  0.90050  0.74400  Biso   1.000  H
  H66      1.0000 0.41840  0.90050  0.75600  Biso   1.000  H
  H67      1.0000 0.41840  0.09950  0.25600  Biso   1.000  H
  H68      1.0000 0.58160  0.09950  0.24400  Biso   1.000  H
