data_image0
_cell_length_a       7.7642
_cell_length_b       9.4384
_cell_length_c       13.219
_cell_angle_alpha    75.781
_cell_angle_beta     76.272
_cell_angle_gamma    78.024

_symmetry_space_group_name_H-M    "P 1"
_symmetry_int_tables_number       1

loop_
  _symmetry_equiv_pos_as_xyz
  'x, y, z'

loop_
  _atom_site_label
  _atom_site_occupancy
  _atom_site_fract_x
  _atom_site_fract_y
  _atom_site_fract_z
  _atom_site_thermal_displace_type
  _atom_site_B_iso_or_equiv
  _atom_site_type_symbol
  Sm1      1.0000 0.05130  0.55209  0.20243  Biso   1.000  Sm
  Sm2      1.0000 0.94870  0.44791  0.79757  Biso   1.000  Sm
  Cu1      1.0000 0.00000  0.00000  0.50000  Biso   1.000  Cu
  O1       1.0000 0.20130  0.61020  0.02147  Biso   1.000  O
  O2       1.0000 0.79870  0.38980  0.97853  Biso   1.000  O
  O3       1.0000 0.39080  0.73410  0.89160  Biso   1.000  O
  O4       1.0000 0.60920  0.26590  0.10840  Biso   1.000  O
  O5       1.0000 0.96290  0.14510  0.30760  Biso   1.000  O
  O6       1.0000 0.03710  0.85490  0.69240  Biso   1.000  O
  O7       1.0000 0.11800  0.30300  0.18190  Biso   1.000  O
  O8       1.0000 0.88200  0.69700  0.81810  Biso   1.000  O
  O9       1.0000 0.80040  0.73390  0.25670  Biso   1.000  O
  O10      1.0000 0.19960  0.26610  0.74330  Biso   1.000  O
  O11      1.0000 0.55490  0.63790  0.28320  Biso   1.000  O
  O12      1.0000 0.44510  0.36210  0.71680  Biso   1.000  O
  O13      1.0000 0.26010  0.32880  0.47360  Biso   1.000  O
  O14      1.0000 0.73990  0.67120  0.52640  Biso   1.000  O
  O15      1.0000 0.05290  0.18040  0.52410  Biso   1.000  O
  O16      1.0000 0.94710  0.81960  0.47590  Biso   1.000  O
  O17      1.0000 0.11570  0.59740  0.36385  Biso   1.000  O
  O18      1.0000 0.88430  0.40260  0.63615  Biso   1.000  O
  H1       1.0000 0.03860  0.65130  0.39990  Biso   1.000  H
  H2       1.0000 0.96140  0.34870  0.60010  Biso   1.000  H
  H3       1.0000 0.16590  0.51560  0.40360  Biso   1.000  H
  H4       1.0000 0.83410  0.48440  0.59640  Biso   1.000  H
  O19      1.0000 0.36790  0.47150  0.21250  Biso   1.000  O
  O20      1.0000 0.63210  0.52850  0.78750  Biso   1.000  O
  H5       1.0000 0.43550  0.41310  0.17940  Biso   1.000  H
  H6       1.0000 0.56450  0.58690  0.82060  Biso   1.000  H
  H7       1.0000 0.41600  0.53430  0.23210  Biso   1.000  H
  H8       1.0000 0.58400  0.46570  0.76790  Biso   1.000  H
  O21      1.0000 0.82210  0.55420  0.10870  Biso   1.000  O
  O22      1.0000 0.17790  0.44580  0.89130  Biso   1.000  O
  H9       1.0000 0.72780  0.59020  0.14550  Biso   1.000  H
  H10      1.0000 0.27220  0.40980  0.85450  Biso   1.000  H
  H11      1.0000 0.81470  0.50130  0.06700  Biso   1.000  H
  H12      1.0000 0.18530  0.49870  0.93300  Biso   1.000  H
  O23      1.0000 0.85470  0.41380  0.35060  Biso   1.000  O
  O24      1.0000 0.14530  0.58620  0.64940  Biso   1.000  O
  H13      1.0000 0.88240  0.31850  0.35460  Biso   1.000  H
  H14      1.0000 0.11760  0.68150  0.64540  Biso   1.000  H
  H15      1.0000 0.74850  0.45120  0.35440  Biso   1.000  H
  H16      1.0000 0.25150  0.54880  0.64560  Biso   1.000  H
  N1       1.0000 0.14550  0.81330  0.13760  Biso   1.000  N
  N2       1.0000 0.85450  0.18670  0.86240  Biso   1.000  N
  N3       1.0000 0.25670  0.97550  0.42860  Biso   1.000  N
  N4       1.0000 0.74330  0.02450  0.57140  Biso   1.000  N
  C1       1.0000 0.28370  0.72120  0.97700  Biso   1.000  C
  C2       1.0000 0.71630  0.27880  0.02300  Biso   1.000  C
  C3       1.0000 0.23800  0.84590  0.03710  Biso   1.000  C
  C4       1.0000 0.76200  0.15410  0.96290  Biso   1.000  C
  C5       1.0000 0.28400  0.98380  0.99130  Biso   1.000  C
  C6       1.0000 0.71600  0.01620  0.00870  Biso   1.000  C
  H17      1.0000 0.34920  0.00270  0.92190  Biso   1.000  H
  H18      1.0000 0.65080  0.99730  0.07810  Biso   1.000  H
  C7       1.0000 0.23190  0.09410  0.04990  Biso   1.000  C
  C8       1.0000 0.76810  0.90590  0.95010  Biso   1.000  C
  H19      1.0000 0.26210  0.18800  0.02040  Biso   1.000  H
  H20      1.0000 0.73790  0.81200  0.97960  Biso   1.000  H
  C9       1.0000 0.13470  0.06310  0.15250  Biso   1.000  C
  C10      1.0000 0.86530  0.93690  0.84750  Biso   1.000  C
  C11      1.0000 0.09710  0.92020  0.19360  Biso   1.000  C
  C12      1.0000 0.90290  0.07980  0.80640  Biso   1.000  C
  H21      1.0000 0.03520  0.89790  0.26350  Biso   1.000  H
  H22      1.0000 0.96480  0.10210  0.73650  Biso   1.000  H
  C13      1.0000 0.06670  0.17990  0.21960  Biso   1.000  C
  C14      1.0000 0.93330  0.82010  0.78040  Biso   1.000  C
  C15      1.0000 0.63470  0.74860  0.27360  Biso   1.000  C
  C16      1.0000 0.36530  0.25140  0.72640  Biso   1.000  C
  C17      1.0000 0.52920  0.87380  0.32560  Biso   1.000  C
  C18      1.0000 0.47080  0.12620  0.67440  Biso   1.000  C
  C19      1.0000 0.60220  0.99930  0.31770  Biso   1.000  C
  C20      1.0000 0.39780  0.00070  0.68230  Biso   1.000  C
  H23      1.0000 0.71920  0.00650  0.28120  Biso   1.000  H
  H24      1.0000 0.28080  0.99350  0.71880  Biso   1.000  H
  C21      1.0000 0.50040  0.11360  0.36440  Biso   1.000  C
  C22      1.0000 0.49960  0.88640  0.63560  Biso   1.000  C
  H25      1.0000 0.54660  0.19920  0.35870  Biso   1.000  H
  H26      1.0000 0.45340  0.80080  0.64130  Biso   1.000  H
  C23      1.0000 0.32910  0.09760  0.41950  Biso   1.000  C
  C24      1.0000 0.67090  0.90240  0.58050  Biso   1.000  C
  C25      1.0000 0.35390  0.86710  0.38150  Biso   1.000  C
  C26      1.0000 0.64610  0.13290  0.61850  Biso   1.000  C
  H27      1.0000 0.30300  0.78430  0.38600  Biso   1.000  H
  H28      1.0000 0.69700  0.21570  0.61400  Biso   1.000  H
  C27      1.0000 0.20840  0.21280  0.47530  Biso   1.000  C
  C28      1.0000 0.79160  0.78720  0.52470  Biso   1.000  C
  O25      1.0000 0.52540  0.49620  0.47130  Biso   1.000  O
  O26      1.0000 0.47460  0.50380  0.52870  Biso   1.000  O
  O27      1.0000 0.45690  0.30340  0.77530  Biso   1.000  O
  O28      1.0000 0.54310  0.69660  0.22470  Biso   1.000  O
