data_image0
_cell_length_a       7.9928
_cell_length_b       10.9734
_cell_length_c       20.816
_cell_angle_alpha    90
_cell_angle_beta     93.657
_cell_angle_gamma    90

_symmetry_space_group_name_H-M    "P 1"
_symmetry_int_tables_number       1

loop_
  _symmetry_equiv_pos_as_xyz
  'x, y, z'

loop_
  _atom_site_label
  _atom_site_occupancy
  _atom_site_fract_x
  _atom_site_fract_y
  _atom_site_fract_z
  _atom_site_thermal_displace_type
  _atom_site_B_iso_or_equiv
  _atom_site_type_symbol
  La1      1.0000 0.00000  0.24510  0.25000  Biso   1.000  La
  La2      1.0000 0.00000  0.75490  0.75000  Biso   1.000  La
  Cu1      1.0000 0.40027  0.33956  0.02431  Biso   1.000  Cu
  Cu2      1.0000 0.59973  0.33956  0.47569  Biso   1.000  Cu
  Cu3      1.0000 0.59973  0.66044  0.97569  Biso   1.000  Cu
  Cu4      1.0000 0.40027  0.66044  0.52431  Biso   1.000  Cu
  K1       1.0000 0.50000  0.27464  0.75000  Biso   1.000  K
  K2       1.0000 0.50000  0.72536  0.25000  Biso   1.000  K
  O1       1.0000 0.97770  0.32090  0.13298  Biso   1.000  O
  O2       1.0000 0.02230  0.32090  0.36702  Biso   1.000  O
  O3       1.0000 0.02230  0.67910  0.86702  Biso   1.000  O
  O4       1.0000 0.97770  0.67910  0.63298  Biso   1.000  O
  O5       1.0000 0.15850  0.24470  0.06537  Biso   1.000  O
  O6       1.0000 0.84150  0.24470  0.43463  Biso   1.000  O
  O7       1.0000 0.84150  0.75530  0.93463  Biso   1.000  O
  O8       1.0000 0.15850  0.75530  0.56537  Biso   1.000  O
  O9       1.0000 0.61110  0.47440  0.81553  Biso   1.000  O
  O10      1.0000 0.38890  0.47440  0.68447  Biso   1.000  O
  O11      1.0000 0.38890  0.52560  0.18447  Biso   1.000  O
  O12      1.0000 0.61110  0.52560  0.31553  Biso   1.000  O
  O13      1.0000 0.53470  0.60660  0.88918  Biso   1.000  O
  O14      1.0000 0.46530  0.60660  0.61082  Biso   1.000  O
  O15      1.0000 0.46530  0.39340  0.11082  Biso   1.000  O
  O16      1.0000 0.53470  0.39340  0.38918  Biso   1.000  O
  O17      1.0000 0.36960  0.29550  0.93407  Biso   1.000  O
  O18      1.0000 0.63040  0.29550  0.56593  Biso   1.000  O
  O19      1.0000 0.63040  0.70450  0.06593  Biso   1.000  O
  O20      1.0000 0.36960  0.70450  0.43407  Biso   1.000  O
  O21      1.0000 0.45640  0.16230  0.86295  Biso   1.000  O
  O22      1.0000 0.54360  0.16230  0.63705  Biso   1.000  O
  O23      1.0000 0.54360  0.83770  0.13705  Biso   1.000  O
  O24      1.0000 0.45640  0.83770  0.36295  Biso   1.000  O
  O25      1.0000 0.96350  0.93030  0.12448  Biso   1.000  O
  O26      1.0000 0.03650  0.93030  0.37552  Biso   1.000  O
  O27      1.0000 0.03650  0.06970  0.87552  Biso   1.000  O
  O28      1.0000 0.96350  0.06970  0.62448  Biso   1.000  O
  O29      1.0000 0.85760  0.07650  0.18441  Biso   1.000  O
  O30      1.0000 0.14240  0.07650  0.31559  Biso   1.000  O
  O31      1.0000 0.14240  0.92350  0.81559  Biso   1.000  O
  O32      1.0000 0.85760  0.92350  0.68441  Biso   1.000  O
  O33      1.0000 0.22840  0.15070  0.18454  Biso   1.000  O
  O34      1.0000 0.77160  0.15070  0.31546  Biso   1.000  O
  O35      1.0000 0.77160  0.84930  0.81546  Biso   1.000  O
  O36      1.0000 0.22840  0.84930  0.68454  Biso   1.000  O
  O37      1.0000 0.00000  0.47250  0.25000  Biso   1.000  O
  O38      1.0000 0.00000  0.52750  0.75000  Biso   1.000  O
  H1       1.0000 0.09100  0.51130  0.25830  Biso   1.000  H
  H2       1.0000 0.90900  0.51130  0.24170  Biso   1.000  H
  H3       1.0000 0.90900  0.48870  0.74170  Biso   1.000  H
  H4       1.0000 0.09100  0.48870  0.75830  Biso   1.000  H
  O39      1.0000 0.30230  0.33850  0.27880  Biso   1.000  O
  O40      1.0000 0.69770  0.33850  0.22120  Biso   1.000  O
  O41      1.0000 0.69770  0.66150  0.72120  Biso   1.000  O
  O42      1.0000 0.30230  0.66150  0.77880  Biso   1.000  O
  H5       1.0000 0.32720  0.36830  0.31610  Biso   1.000  H
  H6       1.0000 0.67280  0.36830  0.18390  Biso   1.000  H
  H7       1.0000 0.67280  0.63170  0.68390  Biso   1.000  H
  H8       1.0000 0.32720  0.63170  0.81610  Biso   1.000  H
  H9       1.0000 0.37390  0.33940  0.25030  Biso   1.000  H
  H10      1.0000 0.62610  0.33940  0.24970  Biso   1.000  H
  H11      1.0000 0.62610  0.66060  0.74970  Biso   1.000  H
  H12      1.0000 0.37390  0.66060  0.75030  Biso   1.000  H
  O43      1.0000 0.28800  0.36000  0.27100  Biso   1.000  O
  O44      1.0000 0.71200  0.36000  0.22900  Biso   1.000  O
  O45      1.0000 0.71200  0.64000  0.72900  Biso   1.000  O
  O46      1.0000 0.28800  0.64000  0.77100  Biso   1.000  O
  H13      1.0000 0.39070  0.34430  0.28190  Biso   1.000  H
  H14      1.0000 0.60930  0.34430  0.21810  Biso   1.000  H
  H15      1.0000 0.60930  0.65570  0.71810  Biso   1.000  H
  H16      1.0000 0.39070  0.65570  0.78190  Biso   1.000  H
  H17      1.0000 0.25670  0.43360  0.26580  Biso   1.000  H
  H18      1.0000 0.74330  0.43360  0.23420  Biso   1.000  H
  H19      1.0000 0.74330  0.56640  0.73420  Biso   1.000  H
  H20      1.0000 0.25670  0.56640  0.76580  Biso   1.000  H
  O47      1.0000 0.17260  0.34170  0.81314  Biso   1.000  O
  O48      1.0000 0.82740  0.34170  0.68686  Biso   1.000  O
  O49      1.0000 0.82740  0.65830  0.18686  Biso   1.000  O
  O50      1.0000 0.17260  0.65830  0.31314  Biso   1.000  O
  H21      1.0000 0.08440  0.29950  0.80520  Biso   1.000  H
  H22      1.0000 0.91560  0.29950  0.69480  Biso   1.000  H
  H23      1.0000 0.91560  0.70050  0.19480  Biso   1.000  H
  H24      1.0000 0.08440  0.70050  0.30520  Biso   1.000  H
  H25      1.0000 0.17080  0.40290  0.83830  Biso   1.000  H
  H26      1.0000 0.82920  0.40290  0.66170  Biso   1.000  H
  H27      1.0000 0.82920  0.59710  0.16170  Biso   1.000  H
  H28      1.0000 0.17080  0.59710  0.33830  Biso   1.000  H
  O51      1.0000 0.19370  0.13680  0.72711  Biso   1.000  O
  O52      1.0000 0.80630  0.13680  0.77289  Biso   1.000  O
  O53      1.0000 0.80630  0.86320  0.27289  Biso   1.000  O
  O54      1.0000 0.19370  0.86320  0.22711  Biso   1.000  O
  H29      1.0000 0.10620  0.15860  0.74520  Biso   1.000  H
  H30      1.0000 0.89380  0.15860  0.75480  Biso   1.000  H
  H31      1.0000 0.89380  0.84140  0.25480  Biso   1.000  H
  H32      1.0000 0.10620  0.84140  0.24520  Biso   1.000  H
  H33      1.0000 0.19070  0.07500  0.70220  Biso   1.000  H
  H34      1.0000 0.80930  0.07500  0.79780  Biso   1.000  H
  H35      1.0000 0.80930  0.92500  0.29780  Biso   1.000  H
  H36      1.0000 0.19070  0.92500  0.20220  Biso   1.000  H
  N1       1.0000 0.72150  0.50100  0.98152  Biso   1.000  N
  N2       1.0000 0.27850  0.50100  0.51848  Biso   1.000  N
  N3       1.0000 0.27850  0.49900  0.01848  Biso   1.000  N
  N4       1.0000 0.72150  0.49900  0.48152  Biso   1.000  N
  N5       1.0000 0.55490  0.19840  0.02903  Biso   1.000  N
  N6       1.0000 0.44510  0.19840  0.47097  Biso   1.000  N
  N7       1.0000 0.44510  0.80160  0.97097  Biso   1.000  N
  N8       1.0000 0.55490  0.80160  0.52903  Biso   1.000  N
  C1       1.0000 0.02830  0.30220  0.07804  Biso   1.000  C
  C2       1.0000 0.97170  0.30220  0.42196  Biso   1.000  C
  C3       1.0000 0.97170  0.69780  0.92196  Biso   1.000  C
  C4       1.0000 0.02830  0.69780  0.57804  Biso   1.000  C
  C5       1.0000 0.92240  0.35420  0.02162  Biso   1.000  C
  C6       1.0000 0.07760  0.35420  0.47838  Biso   1.000  C
  C7       1.0000 0.07760  0.64580  0.97838  Biso   1.000  C
  C8       1.0000 0.92240  0.64580  0.52162  Biso   1.000  C
  C9       1.0000 0.93570  0.30930  0.95963  Biso   1.000  C
  C10      1.0000 0.06430  0.30930  0.54037  Biso   1.000  C
  C11      1.0000 0.06430  0.69070  0.04037  Biso   1.000  C
  C12      1.0000 0.93570  0.69070  0.45963  Biso   1.000  C
  H37      1.0000 0.01080  0.24700  0.95210  Biso   1.000  H
  H38      1.0000 0.98920  0.24700  0.54790  Biso   1.000  H
  H39      1.0000 0.98920  0.75300  0.04790  Biso   1.000  H
  H40      1.0000 0.01080  0.75300  0.45210  Biso   1.000  H
  C13      1.0000 0.83580  0.35840  0.90911  Biso   1.000  C
  C14      1.0000 0.16420  0.35840  0.59089  Biso   1.000  C
  C15      1.0000 0.16420  0.64160  0.09089  Biso   1.000  C
  C16      1.0000 0.83580  0.64160  0.40911  Biso   1.000  C
  H41      1.0000 0.83960  0.32760  0.86760  Biso   1.000  H
  H42      1.0000 0.16040  0.32760  0.63240  Biso   1.000  H
  H43      1.0000 0.16040  0.67240  0.13240  Biso   1.000  H
  H44      1.0000 0.83960  0.67240  0.36760  Biso   1.000  H
  C17      1.0000 0.73080  0.45370  0.92184  Biso   1.000  C
  C18      1.0000 0.26920  0.45370  0.57816  Biso   1.000  C
  C19      1.0000 0.26920  0.54630  0.07816  Biso   1.000  C
  C20      1.0000 0.73080  0.54630  0.42184  Biso   1.000  C
  C21      1.0000 0.61840  0.51450  0.87025  Biso   1.000  C
  C22      1.0000 0.38160  0.51450  0.62975  Biso   1.000  C
  C23      1.0000 0.38160  0.48550  0.12975  Biso   1.000  C
  C24      1.0000 0.61840  0.48550  0.37025  Biso   1.000  C
  C25      1.0000 0.81290  0.45040  0.03070  Biso   1.000  C
  C26      1.0000 0.18710  0.45040  0.46930  Biso   1.000  C
  C27      1.0000 0.18710  0.54960  0.96930  Biso   1.000  C
  C28      1.0000 0.81290  0.54960  0.53070  Biso   1.000  C
  H45      1.0000 0.80290  0.48040  0.07210  Biso   1.000  H
  H46      1.0000 0.19710  0.48040  0.42790  Biso   1.000  H
  H47      1.0000 0.19710  0.51960  0.92790  Biso   1.000  H
  H48      1.0000 0.80290  0.51960  0.57210  Biso   1.000  H
  C29      1.0000 0.45880  0.20440  0.91692  Biso   1.000  C
  C30      1.0000 0.54120  0.20440  0.58308  Biso   1.000  C
  C31      1.0000 0.54120  0.79560  0.08308  Biso   1.000  C
  C32      1.0000 0.45880  0.79560  0.41692  Biso   1.000  C
  C33      1.0000 0.57130  0.14860  0.97053  Biso   1.000  C
  C34      1.0000 0.42870  0.14860  0.52947  Biso   1.000  C
  C35      1.0000 0.42870  0.85140  0.02947  Biso   1.000  C
  C36      1.0000 0.57130  0.85140  0.47053  Biso   1.000  C
  C37      1.0000 0.68260  0.05590  0.96073  Biso   1.000  C
  C38      1.0000 0.31740  0.05590  0.53927  Biso   1.000  C
  C39      1.0000 0.31740  0.94410  0.03927  Biso   1.000  C
  C40      1.0000 0.68260  0.94410  0.46073  Biso   1.000  C
  H49      1.0000 0.69210  0.02330  0.91990  Biso   1.000  H
  H50      1.0000 0.30790  0.02330  0.58010  Biso   1.000  H
  H51      1.0000 0.30790  0.97670  0.08010  Biso   1.000  H
  H52      1.0000 0.69210  0.97670  0.41990  Biso   1.000  H
  C41      1.0000 0.78030  0.01230  0.01327  Biso   1.000  C
  C42      1.0000 0.21970  0.01230  0.48673  Biso   1.000  C
  C43      1.0000 0.21970  0.98770  0.98673  Biso   1.000  C
  C44      1.0000 0.78030  0.98770  0.51327  Biso   1.000  C
  H53      1.0000 0.85620  0.94940  0.00790  Biso   1.000  H
  H54      1.0000 0.14380  0.94940  0.49210  Biso   1.000  H
  H55      1.0000 0.14380  0.05060  0.99210  Biso   1.000  H
  H56      1.0000 0.85620  0.05060  0.50790  Biso   1.000  H
  C45      1.0000 0.76460  0.06260  0.07373  Biso   1.000  C
  C46      1.0000 0.23540  0.06260  0.42627  Biso   1.000  C
  C47      1.0000 0.23540  0.93740  0.92627  Biso   1.000  C
  C48      1.0000 0.76460  0.93740  0.57373  Biso   1.000  C
  C49      1.0000 0.64980  0.15670  0.07933  Biso   1.000  C
  C50      1.0000 0.35020  0.15670  0.42067  Biso   1.000  C
  C51      1.0000 0.35020  0.84330  0.92067  Biso   1.000  C
  C52      1.0000 0.64980  0.84330  0.57933  Biso   1.000  C
  H57      1.0000 0.63890  0.19180  0.11950  Biso   1.000  H
  H58      1.0000 0.36110  0.19180  0.38050  Biso   1.000  H
  H59      1.0000 0.36110  0.80820  0.88050  Biso   1.000  H
  H60      1.0000 0.63890  0.80820  0.61950  Biso   1.000  H
  C53      1.0000 0.87250  0.01850  0.13202  Biso   1.000  C
  C54      1.0000 0.12750  0.01850  0.36798  Biso   1.000  C
  C55      1.0000 0.12750  0.98150  0.86798  Biso   1.000  C
  C56      1.0000 0.87250  0.98150  0.63202  Biso   1.000  C
  O55      1.0000 0.49270  0.95580  0.76880  Biso   1.000  O
  O56      1.0000 0.50730  0.95580  0.73120  Biso   1.000  O
  O57      1.0000 0.50730  0.04420  0.23120  Biso   1.000  O
  O58      1.0000 0.49270  0.04420  0.26880  Biso   1.000  O
