data_image0
_cell_length_a       7.7483
_cell_length_b       9.3676
_cell_length_c       13.239
_cell_angle_alpha    75.677
_cell_angle_beta     76.062
_cell_angle_gamma    78.296

_symmetry_space_group_name_H-M    "P 1"
_symmetry_int_tables_number       1

loop_
  _symmetry_equiv_pos_as_xyz
  'x, y, z'

loop_
  _atom_site_label
  _atom_site_occupancy
  _atom_site_fract_x
  _atom_site_fract_y
  _atom_site_fract_z
  _atom_site_thermal_displace_type
  _atom_site_B_iso_or_equiv
  _atom_site_type_symbol
  Tb1      1.0000 0.94955  0.44669  0.29812  Biso   1.000  Tb
  Tb2      1.0000 0.05045  0.55331  0.70188  Biso   1.000  Tb
  Cu1      1.0000 0.00000  0.00000  0.00000  Biso   1.000  Cu
  O1       1.0000 0.80120  0.39270  0.47750  Biso   1.000  O
  O2       1.0000 0.19880  0.60730  0.52250  Biso   1.000  O
  O3       1.0000 0.60940  0.27040  0.60810  Biso   1.000  O
  O4       1.0000 0.39060  0.72960  0.39190  Biso   1.000  O
  O5       1.0000 0.03300  0.85340  0.19340  Biso   1.000  O
  O6       1.0000 0.96700  0.14660  0.80660  Biso   1.000  O
  O7       1.0000 0.87990  0.69390  0.32020  Biso   1.000  O
  O8       1.0000 0.12010  0.30610  0.67980  Biso   1.000  O
  O9       1.0000 0.19670  0.26700  0.24350  Biso   1.000  O
  O10      1.0000 0.80330  0.73300  0.75650  Biso   1.000  O
  O11      1.0000 0.45490  0.30370  0.27520  Biso   1.000  O
  O12      1.0000 0.54510  0.69630  0.72480  Biso   1.000  O
  O13      1.0000 0.94700  0.81780  0.97590  Biso   1.000  O
  O14      1.0000 0.05300  0.18220  0.02410  Biso   1.000  O
  O15      1.0000 0.73830  0.66860  0.02720  Biso   1.000  O
  O16      1.0000 0.26170  0.33140  0.97280  Biso   1.000  O
  O17      1.0000 0.14230  0.58450  0.15300  Biso   1.000  O
  O18      1.0000 0.85770  0.41550  0.84700  Biso   1.000  O
  H1       1.0000 0.20480  0.54340  0.10270  Biso   1.000  H
  H2       1.0000 0.79520  0.45660  0.89730  Biso   1.000  H
  H3       1.0000 0.14810  0.67450  0.15200  Biso   1.000  H
  H4       1.0000 0.85190  0.32550  0.84800  Biso   1.000  H
  O19      1.0000 0.88710  0.40160  0.13980  Biso   1.000  O
  O20      1.0000 0.11290  0.59840  0.86020  Biso   1.000  O
  H5       1.0000 0.85230  0.32040  0.14160  Biso   1.000  H
  H6       1.0000 0.14770  0.67960  0.85840  Biso   1.000  H
  H7       1.0000 0.89980  0.46680  0.08220  Biso   1.000  H
  H8       1.0000 0.10020  0.53320  0.91780  Biso   1.000  H
  O21      1.0000 0.17360  0.44560  0.38950  Biso   1.000  O
  O22      1.0000 0.82640  0.55440  0.61050  Biso   1.000  O
  H9       1.0000 0.20630  0.36790  0.43370  Biso   1.000  H
  H10      1.0000 0.79370  0.63210  0.56630  Biso   1.000  H
  H11      1.0000 0.22230  0.52310  0.37850  Biso   1.000  H
  H12      1.0000 0.77770  0.47690  0.62150  Biso   1.000  H
  O23      1.0000 0.63750  0.52520  0.28940  Biso   1.000  O
  O24      1.0000 0.36250  0.47480  0.71060  Biso   1.000  O
  H13      1.0000 0.56610  0.46130  0.30680  Biso   1.000  H
  H14      1.0000 0.43390  0.53870  0.69320  Biso   1.000  H
  H15      1.0000 0.59840  0.61700  0.26890  Biso   1.000  H
  H16      1.0000 0.40160  0.38300  0.73110  Biso   1.000  H
  N1       1.0000 0.85460  0.18820  0.36230  Biso   1.000  N
  N2       1.0000 0.14540  0.81180  0.63770  Biso   1.000  N
  N3       1.0000 0.74230  0.02430  0.07130  Biso   1.000  N
  N4       1.0000 0.25770  0.97570  0.92870  Biso   1.000  N
  C1       1.0000 0.71820  0.28250  0.52250  Biso   1.000  C
  C2       1.0000 0.28180  0.71750  0.47750  Biso   1.000  C
  C3       1.0000 0.76120  0.15560  0.46310  Biso   1.000  C
  C4       1.0000 0.23880  0.84440  0.53690  Biso   1.000  C
  C5       1.0000 0.71330  0.01710  0.50920  Biso   1.000  C
  C6       1.0000 0.28670  0.98290  0.49080  Biso   1.000  C
  H17      1.0000 0.64610  0.99890  0.57830  Biso   1.000  H
  H18      1.0000 0.35390  0.00110  0.42170  Biso   1.000  H
  C7       1.0000 0.76600  0.90430  0.45200  Biso   1.000  C
  C8       1.0000 0.23400  0.09570  0.54800  Biso   1.000  C
  H19      1.0000 0.73720  0.80930  0.48240  Biso   1.000  H
  H20      1.0000 0.26280  0.19070  0.51760  Biso   1.000  H
  C9       1.0000 0.86210  0.93640  0.34880  Biso   1.000  C
  C10      1.0000 0.13790  0.06360  0.65120  Biso   1.000  C
  C11      1.0000 0.90120  0.08010  0.30670  Biso   1.000  C
  C12      1.0000 0.09880  0.91990  0.69330  Biso   1.000  C
  H21      1.0000 0.96260  0.10240  0.23650  Biso   1.000  H
  H22      1.0000 0.03740  0.89760  0.76350  Biso   1.000  H
  C13      1.0000 0.93020  0.81870  0.28130  Biso   1.000  C
  C14      1.0000 0.06980  0.18130  0.71870  Biso   1.000  C
  C15      1.0000 0.36470  0.25390  0.22510  Biso   1.000  C
  C16      1.0000 0.63530  0.74610  0.77490  Biso   1.000  C
  C17      1.0000 0.46970  0.12580  0.17380  Biso   1.000  C
  C18      1.0000 0.53030  0.87420  0.82620  Biso   1.000  C
  C19      1.0000 0.39510  0.00180  0.18230  Biso   1.000  C
  C20      1.0000 0.60490  0.99820  0.81770  Biso   1.000  C
  H23      1.0000 0.27730  0.99540  0.21870  Biso   1.000  H
  H24      1.0000 0.72270  0.00460  0.78130  Biso   1.000  H
  C21      1.0000 0.49680  0.88500  0.13600  Biso   1.000  C
  C22      1.0000 0.50320  0.11500  0.86400  Biso   1.000  C
  H25      1.0000 0.45000  0.79860  0.14230  Biso   1.000  H
  H26      1.0000 0.55000  0.20140  0.85770  Biso   1.000  H
  C23      1.0000 0.66940  0.90180  0.08040  Biso   1.000  C
  C24      1.0000 0.33060  0.09820  0.91960  Biso   1.000  C
  C25      1.0000 0.64470  0.13430  0.11790  Biso   1.000  C
  C26      1.0000 0.35530  0.86570  0.88210  Biso   1.000  C
  H27      1.0000 0.69530  0.21840  0.11280  Biso   1.000  H
  H28      1.0000 0.30470  0.78160  0.88720  Biso   1.000  H
  C27      1.0000 0.79070  0.78450  0.02510  Biso   1.000  C
  C28      1.0000 0.20930  0.21550  0.97490  Biso   1.000  C
  O25      1.0000 0.47130  0.49950  0.03260  Biso   1.000  O
  O26      1.0000 0.52870  0.50050  0.96740  Biso   1.000  O
  O27      1.0000 0.55560  0.63350  0.78510  Biso   1.000  O
  O28      1.0000 0.44440  0.36650  0.21490  Biso   1.000  O
