data_image0
_cell_length_a       13.681
_cell_length_b       14.016
_cell_length_c       23.383
_cell_angle_alpha    90
_cell_angle_beta     90
_cell_angle_gamma    90

_symmetry_space_group_name_H-M    "P 1"
_symmetry_int_tables_number       1

loop_
  _symmetry_equiv_pos_as_xyz
  'x, y, z'

loop_
  _atom_site_label
  _atom_site_occupancy
  _atom_site_fract_x
  _atom_site_fract_y
  _atom_site_fract_z
  _atom_site_thermal_displace_type
  _atom_site_B_iso_or_equiv
  _atom_site_type_symbol
  I1       1.0000 0.00090  0.26944  0.25330  Biso   1.000  I
  I2       1.0000 0.49910  0.73056  0.75330  Biso   1.000  I
  I3       1.0000 0.99910  0.76944  0.24670  Biso   1.000  I
  I4       1.0000 0.50090  0.23056  0.74670  Biso   1.000  I
  I5       1.0000 0.01370  0.51743  0.36736  Biso   1.000  I
  I6       1.0000 0.48630  0.48257  0.86736  Biso   1.000  I
  I7       1.0000 0.98630  0.01743  0.13264  Biso   1.000  I
  I8       1.0000 0.51370  0.98257  0.63264  Biso   1.000  I
  I9       1.0000 0.80733  0.52895  0.20648  Biso   1.000  I
  I10      1.0000 0.69267  0.47105  0.70648  Biso   1.000  I
  I11      1.0000 0.19267  0.02895  0.29352  Biso   1.000  I
  I12      1.0000 0.30733  0.97105  0.79352  Biso   1.000  I
  I13      1.0000 0.16863  0.52619  0.18939  Biso   1.000  I
  I14      1.0000 0.33137  0.47381  0.68939  Biso   1.000  I
  I15      1.0000 0.83137  0.02619  0.31061  Biso   1.000  I
  I16      1.0000 0.66863  0.97381  0.81061  Biso   1.000  I
  I17      1.0000 0.26200  0.22213  0.12122  Biso   1.000  I
  I18      1.0000 0.23800  0.77787  0.62122  Biso   1.000  I
  I19      1.0000 0.73800  0.72213  0.37878  Biso   1.000  I
  I20      1.0000 0.76200  0.27787  0.87878  Biso   1.000  I
  I21      1.0000 0.69660  0.21910  0.16630  Biso   1.000  I
  I22      1.0000 0.80340  0.78090  0.66630  Biso   1.000  I
  I23      1.0000 0.30340  0.71910  0.33370  Biso   1.000  I
  I24      1.0000 0.19660  0.28090  0.83370  Biso   1.000  I
  I25      1.0000 0.96202  0.36160  0.06119  Biso   1.000  I
  I26      1.0000 0.53798  0.63840  0.56119  Biso   1.000  I
  I27      1.0000 0.03798  0.86160  0.43881  Biso   1.000  I
  I28      1.0000 0.46202  0.13840  0.93881  Biso   1.000  I
  Ag1      1.0000 0.99290  0.47810  0.24443  Biso   1.000  Ag
  Ag2      1.0000 0.50710  0.52190  0.74443  Biso   1.000  Ag
  Ag3      1.0000 0.00710  0.97810  0.25557  Biso   1.000  Ag
  Ag4      1.0000 0.49290  0.02190  0.75557  Biso   1.000  Ag
  Ag5      1.0000 0.85810  0.33940  0.16313  Biso   1.000  Ag
  Ag6      1.0000 0.64190  0.66060  0.66313  Biso   1.000  Ag
  Ag7      1.0000 0.14190  0.83940  0.33687  Biso   1.000  Ag
  Ag8      1.0000 0.35810  0.16060  0.83687  Biso   1.000  Ag
  Ag9      1.0000 0.12570  0.13640  0.19154  Biso   1.000  Ag
  Ag10     1.0000 0.37430  0.86360  0.69154  Biso   1.000  Ag
  Ag11     1.0000 0.87430  0.63640  0.30846  Biso   1.000  Ag
  Ag12     1.0000 0.62570  0.36360  0.80846  Biso   1.000  Ag
  Ag13     1.0000 0.85890  0.12460  0.20219  Biso   1.000  Ag
  Ag14     1.0000 0.64110  0.87540  0.70219  Biso   1.000  Ag
  Ag15     1.0000 0.14110  0.62460  0.29781  Biso   1.000  Ag
  Ag16     1.0000 0.35890  0.37540  0.79781  Biso   1.000  Ag
  Ag17     1.0000 0.10680  0.34680  0.14331  Biso   1.000  Ag
  Ag18     1.0000 0.39320  0.65320  0.64331  Biso   1.000  Ag
  Ag19     1.0000 0.89320  0.84680  0.35669  Biso   1.000  Ag
  Ag20     1.0000 0.60680  0.15320  0.85669  Biso   1.000  Ag
  Cu1      1.0000 0.52780  0.14710  0.41543  Biso   1.000  Cu
  Cu2      1.0000 0.97220  0.85290  0.91543  Biso   1.000  Cu
  Cu3      1.0000 0.47220  0.64710  0.08457  Biso   1.000  Cu
  Cu4      1.0000 0.02780  0.35290  0.58457  Biso   1.000  Cu
  N1       1.0000 0.45820  0.03270  0.44550  Biso   1.000  N
  N2       1.0000 0.04180  0.96730  0.94550  Biso   1.000  N
  N3       1.0000 0.54180  0.53270  0.05450  Biso   1.000  N
  N4       1.0000 0.95820  0.46730  0.55450  Biso   1.000  N
  N5       1.0000 0.65400  0.05450  0.44870  Biso   1.000  N
  N6       1.0000 0.84600  0.94550  0.94870  Biso   1.000  N
  N7       1.0000 0.34600  0.55450  0.05130  Biso   1.000  N
  N8       1.0000 0.15400  0.44550  0.55130  Biso   1.000  N
  N9       1.0000 0.62000  0.25900  0.39660  Biso   1.000  N
  N10      1.0000 0.88000  0.74100  0.89660  Biso   1.000  N
  N11      1.0000 0.38000  0.75900  0.10340  Biso   1.000  N
  N12      1.0000 0.12000  0.24100  0.60340  Biso   1.000  N
  N13      1.0000 0.52620  0.22560  0.48950  Biso   1.000  N
  N14      1.0000 0.97380  0.77440  0.98950  Biso   1.000  N
  N15      1.0000 0.47380  0.72560  0.01050  Biso   1.000  N
  N16      1.0000 0.02620  0.27440  0.51050  Biso   1.000  N
  N17      1.0000 0.50700  0.10170  0.33480  Biso   1.000  N
  N18      1.0000 0.99300  0.89830  0.83480  Biso   1.000  N
  N19      1.0000 0.49300  0.60170  0.16520  Biso   1.000  N
  N20      1.0000 0.00700  0.39830  0.66520  Biso   1.000  N
  N21      1.0000 0.39400  0.23400  0.38310  Biso   1.000  N
  N22      1.0000 0.10600  0.76600  0.88310  Biso   1.000  N
  N23      1.0000 0.60600  0.73400  0.11690  Biso   1.000  N
  N24      1.0000 0.89400  0.26600  0.61690  Biso   1.000  N
  C1       1.0000 0.36700  0.02900  0.43740  Biso   1.000  C
  C2       1.0000 0.13300  0.97100  0.93740  Biso   1.000  C
  C3       1.0000 0.63300  0.52900  0.06260  Biso   1.000  C
  C4       1.0000 0.86700  0.47100  0.56260  Biso   1.000  C
  H1       1.0000 0.33220  0.07900  0.42090  Biso   1.000  H
  H2       1.0000 0.16780  0.92100  0.92090  Biso   1.000  H
  H3       1.0000 0.66780  0.57900  0.07910  Biso   1.000  H
  H4       1.0000 0.83220  0.42100  0.57910  Biso   1.000  H
  C5       1.0000 0.32000  0.94500  0.45470  Biso   1.000  C
  C6       1.0000 0.18000  0.05500  0.95470  Biso   1.000  C
  C7       1.0000 0.68000  0.44500  0.04530  Biso   1.000  C
  C8       1.0000 0.82000  0.55500  0.54530  Biso   1.000  C
  H5       1.0000 0.25270  0.94200  0.45130  Biso   1.000  H
  H6       1.0000 0.24730  0.05800  0.95130  Biso   1.000  H
  H7       1.0000 0.74730  0.44200  0.04870  Biso   1.000  H
  H8       1.0000 0.75270  0.55800  0.54870  Biso   1.000  H
  C9       1.0000 0.36700  0.87000  0.47550  Biso   1.000  C
  C10      1.0000 0.13300  0.13000  0.97550  Biso   1.000  C
  C11      1.0000 0.63300  0.37000  0.02450  Biso   1.000  C
  C12      1.0000 0.86700  0.63000  0.52450  Biso   1.000  C
  H9       1.0000 0.33280  0.81490  0.48560  Biso   1.000  H
  H10      1.0000 0.16720  0.18510  0.98560  Biso   1.000  H
  H11      1.0000 0.66720  0.31490  0.01440  Biso   1.000  H
  H12      1.0000 0.83280  0.68510  0.51440  Biso   1.000  H
  C13      1.0000 0.46800  0.87600  0.48190  Biso   1.000  C
  C14      1.0000 0.03200  0.12400  0.98190  Biso   1.000  C
  C15      1.0000 0.53200  0.37600  0.01810  Biso   1.000  C
  C16      1.0000 0.96800  0.62400  0.51810  Biso   1.000  C
  H13      1.0000 0.50450  0.82460  0.49550  Biso   1.000  H
  H14      1.0000 0.99550  0.17540  0.99550  Biso   1.000  H
  H15      1.0000 0.49550  0.32460  0.00450  Biso   1.000  H
  H16      1.0000 0.00450  0.67540  0.50450  Biso   1.000  H
  C17      1.0000 0.51300  0.96500  0.46610  Biso   1.000  C
  C18      1.0000 0.98700  0.03500  0.96610  Biso   1.000  C
  C19      1.0000 0.48700  0.46500  0.03390  Biso   1.000  C
  C20      1.0000 0.01300  0.53500  0.53390  Biso   1.000  C
  C21      1.0000 0.61400  0.97600  0.47350  Biso   1.000  C
  C22      1.0000 0.88600  0.02400  0.97350  Biso   1.000  C
  C23      1.0000 0.38600  0.47600  0.02650  Biso   1.000  C
  C24      1.0000 0.11400  0.52400  0.52650  Biso   1.000  C
  C25      1.0000 0.67900  0.91800  0.50340  Biso   1.000  C
  C26      1.0000 0.82100  0.08200  0.00340  Biso   1.000  C
  C27      1.0000 0.32100  0.41800  0.99660  Biso   1.000  C
  C28      1.0000 0.17900  0.58200  0.49660  Biso   1.000  C
  H17      1.0000 0.65720  0.86160  0.52030  Biso   1.000  H
  H18      1.0000 0.84280  0.13840  0.02030  Biso   1.000  H
  H19      1.0000 0.34280  0.36160  0.97970  Biso   1.000  H
  H20      1.0000 0.15720  0.63840  0.47970  Biso   1.000  H
  C29      1.0000 0.77600  0.94500  0.50760  Biso   1.000  C
  C30      1.0000 0.72400  0.05500  0.00760  Biso   1.000  C
  C31      1.0000 0.22400  0.44500  0.99240  Biso   1.000  C
  C32      1.0000 0.27600  0.55500  0.49240  Biso   1.000  C
  H21      1.0000 0.81850  0.90510  0.52740  Biso   1.000  H
  H22      1.0000 0.68150  0.09490  0.02740  Biso   1.000  H
  H23      1.0000 0.18150  0.40510  0.97260  Biso   1.000  H
  H24      1.0000 0.31850  0.59490  0.47260  Biso   1.000  H
  C33      1.0000 0.81200  0.02600  0.48450  Biso   1.000  C
  C34      1.0000 0.68800  0.97400  0.98450  Biso   1.000  C
  C35      1.0000 0.18800  0.52600  0.01550  Biso   1.000  C
  C36      1.0000 0.31200  0.47400  0.51550  Biso   1.000  C
  H25      1.0000 0.87700  0.04330  0.48870  Biso   1.000  H
  H26      1.0000 0.62300  0.95670  0.98870  Biso   1.000  H
  H27      1.0000 0.12300  0.54330  0.01130  Biso   1.000  H
  H28      1.0000 0.37700  0.45670  0.51130  Biso   1.000  H
  C37      1.0000 0.74600  0.08000  0.45430  Biso   1.000  C
  C38      1.0000 0.75400  0.92000  0.95430  Biso   1.000  C
  C39      1.0000 0.25400  0.58000  0.04570  Biso   1.000  C
  C40      1.0000 0.24600  0.42000  0.54570  Biso   1.000  C
  H29      1.0000 0.76720  0.13670  0.43740  Biso   1.000  H
  H30      1.0000 0.73280  0.86330  0.93740  Biso   1.000  H
  H31      1.0000 0.23280  0.63670  0.06260  Biso   1.000  H
  H32      1.0000 0.26720  0.36330  0.56260  Biso   1.000  H
  C41      1.0000 0.66000  0.26500  0.34980  Biso   1.000  C
  C42      1.0000 0.84000  0.73500  0.84980  Biso   1.000  C
  C43      1.0000 0.34000  0.76500  0.15020  Biso   1.000  C
  C44      1.0000 0.16000  0.23500  0.65020  Biso   1.000  C
  H33      1.0000 0.65090  0.21710  0.32290  Biso   1.000  H
  H34      1.0000 0.84910  0.78290  0.82290  Biso   1.000  H
  H35      1.0000 0.34910  0.71710  0.17710  Biso   1.000  H
  H36      1.0000 0.15090  0.28290  0.67710  Biso   1.000  H
  C45      1.0000 0.71600  0.34200  0.33690  Biso   1.000  C
  C46      1.0000 0.78400  0.65800  0.83690  Biso   1.000  C
  C47      1.0000 0.28400  0.84200  0.16310  Biso   1.000  C
  C48      1.0000 0.21600  0.15800  0.66310  Biso   1.000  C
  H37      1.0000 0.74440  0.34870  0.30090  Biso   1.000  H
  H38      1.0000 0.75560  0.65130  0.80090  Biso   1.000  H
  H39      1.0000 0.25560  0.84870  0.19910  Biso   1.000  H
  H40      1.0000 0.24440  0.15130  0.69910  Biso   1.000  H
  C49      1.0000 0.73100  0.41100  0.37840  Biso   1.000  C
  C50      1.0000 0.76900  0.58900  0.87840  Biso   1.000  C
  C51      1.0000 0.26900  0.91100  0.12160  Biso   1.000  C
  C52      1.0000 0.23100  0.08900  0.62160  Biso   1.000  C
  H41      1.0000 0.77570  0.46040  0.37270  Biso   1.000  H
  H42      1.0000 0.72430  0.53960  0.87270  Biso   1.000  H
  H43      1.0000 0.22430  0.96040  0.12730  Biso   1.000  H
  H44      1.0000 0.27570  0.03960  0.62730  Biso   1.000  H
  C53      1.0000 0.68100  0.40500  0.42610  Biso   1.000  C
  C54      1.0000 0.81900  0.59500  0.92610  Biso   1.000  C
  C55      1.0000 0.31900  0.90500  0.07390  Biso   1.000  C
  C56      1.0000 0.18100  0.09500  0.57390  Biso   1.000  C
  H45      1.0000 0.68530  0.45340  0.45330  Biso   1.000  H
  H46      1.0000 0.81470  0.54660  0.95330  Biso   1.000  H
  H47      1.0000 0.31470  0.95340  0.04670  Biso   1.000  H
  H48      1.0000 0.18530  0.04660  0.54670  Biso   1.000  H
  C57      1.0000 0.62000  0.32400  0.43590  Biso   1.000  C
  C58      1.0000 0.88000  0.67600  0.93590  Biso   1.000  C
  C59      1.0000 0.38000  0.82400  0.06410  Biso   1.000  C
  C60      1.0000 0.12000  0.17600  0.56410  Biso   1.000  C
  C61      1.0000 0.57700  0.30300  0.48590  Biso   1.000  C
  C62      1.0000 0.92300  0.69700  0.98590  Biso   1.000  C
  C63      1.0000 0.42300  0.80300  0.01410  Biso   1.000  C
  C64      1.0000 0.07700  0.19700  0.51410  Biso   1.000  C
  C65      1.0000 0.57700  0.35300  0.53390  Biso   1.000  C
  C66      1.0000 0.92300  0.64700  0.03390  Biso   1.000  C
  C67      1.0000 0.42300  0.85300  0.96610  Biso   1.000  C
  C68      1.0000 0.07700  0.14700  0.46610  Biso   1.000  C
  H49      1.0000 0.61710  0.40700  0.53440  Biso   1.000  H
  H50      1.0000 0.88290  0.59300  0.03440  Biso   1.000  H
  H51      1.0000 0.38290  0.90700  0.96560  Biso   1.000  H
  H52      1.0000 0.11710  0.09300  0.46560  Biso   1.000  H
  C69      1.0000 0.52800  0.33600  0.58100  Biso   1.000  C
  C70      1.0000 0.97200  0.66400  0.08100  Biso   1.000  C
  C71      1.0000 0.47200  0.83600  0.91900  Biso   1.000  C
  C72      1.0000 0.02800  0.16400  0.41900  Biso   1.000  C
  H53      1.0000 0.53060  0.37810  0.61170  Biso   1.000  H
  H54      1.0000 0.96940  0.62190  0.11170  Biso   1.000  H
  H55      1.0000 0.46940  0.87810  0.88830  Biso   1.000  H
  H56      1.0000 0.03060  0.12190  0.38830  Biso   1.000  H
  C73      1.0000 0.47200  0.25500  0.58390  Biso   1.000  C
  C74      1.0000 0.02800  0.74500  0.08390  Biso   1.000  C
  C75      1.0000 0.52800  0.75500  0.91610  Biso   1.000  C
  C76      1.0000 0.97200  0.24500  0.41610  Biso   1.000  C
  H57      1.0000 0.43660  0.23660  0.61610  Biso   1.000  H
  H58      1.0000 0.06340  0.76340  0.11610  Biso   1.000  H
  H59      1.0000 0.56340  0.73660  0.88390  Biso   1.000  H
  H60      1.0000 0.93660  0.26340  0.38390  Biso   1.000  H
  C77      1.0000 0.47400  0.20400  0.53400  Biso   1.000  C
  C78      1.0000 0.02600  0.79600  0.03400  Biso   1.000  C
  C79      1.0000 0.52600  0.70400  0.96600  Biso   1.000  C
  C80      1.0000 0.97400  0.29600  0.46600  Biso   1.000  C
  H61      1.0000 0.43480  0.15010  0.53170  Biso   1.000  H
  H62      1.0000 0.06520  0.84990  0.03170  Biso   1.000  H
  H63      1.0000 0.56520  0.65010  0.96830  Biso   1.000  H
  H64      1.0000 0.93480  0.34990  0.46830  Biso   1.000  H
  C81      1.0000 0.55500  0.03500  0.31880  Biso   1.000  C
  C82      1.0000 0.94500  0.96500  0.81880  Biso   1.000  C
  C83      1.0000 0.44500  0.53500  0.18120  Biso   1.000  C
  C84      1.0000 0.05500  0.46500  0.68120  Biso   1.000  C
  H65      1.0000 0.60040  0.00910  0.34430  Biso   1.000  H
  H66      1.0000 0.89960  0.99090  0.84430  Biso   1.000  H
  H67      1.0000 0.39960  0.50910  0.15570  Biso   1.000  H
  H68      1.0000 0.10040  0.49090  0.65570  Biso   1.000  H
  C85      1.0000 0.54700  0.99100  0.26040  Biso   1.000  C
  C86      1.0000 0.95300  0.00900  0.76040  Biso   1.000  C
  C87      1.0000 0.45300  0.49100  0.23960  Biso   1.000  C
  C88      1.0000 0.04700  0.50900  0.73960  Biso   1.000  C
  H69      1.0000 0.57850  0.93360  0.25100  Biso   1.000  H
  H70      1.0000 0.92150  0.06640  0.75100  Biso   1.000  H
  H71      1.0000 0.42150  0.43360  0.24900  Biso   1.000  H
  H72      1.0000 0.07850  0.56640  0.74900  Biso   1.000  H
  C89      1.0000 0.49100  0.04000  0.22160  Biso   1.000  C
  C90      1.0000 0.00900  0.96000  0.72160  Biso   1.000  C
  C91      1.0000 0.50900  0.54000  0.27840  Biso   1.000  C
  C92      1.0000 0.99100  0.46000  0.77840  Biso   1.000  C
  H73      1.0000 0.48820  0.02310  0.18320  Biso   1.000  H
  H74      1.0000 0.01180  0.97690  0.68320  Biso   1.000  H
  H75      1.0000 0.51180  0.52310  0.31680  Biso   1.000  H
  H76      1.0000 0.98820  0.47690  0.81680  Biso   1.000  H
  C93      1.0000 0.43800  0.11900  0.24400  Biso   1.000  C
  C94      1.0000 0.06200  0.88100  0.74400  Biso   1.000  C
  C95      1.0000 0.56200  0.61900  0.25600  Biso   1.000  C
  C96      1.0000 0.93800  0.38100  0.75600  Biso   1.000  C
  H77      1.0000 0.39720  0.15400  0.22030  Biso   1.000  H
  H78      1.0000 0.10280  0.84600  0.72030  Biso   1.000  H
  H79      1.0000 0.60280  0.65400  0.27970  Biso   1.000  H
  H80      1.0000 0.89720  0.34600  0.77970  Biso   1.000  H
  C97      1.0000 0.44800  0.14500  0.30340  Biso   1.000  C
  C98      1.0000 0.05200  0.85500  0.80340  Biso   1.000  C
  C99      1.0000 0.55200  0.64500  0.19660  Biso   1.000  C
  C100     1.0000 0.94800  0.35500  0.69660  Biso   1.000  C
  C101     1.0000 0.38300  0.21900  0.32850  Biso   1.000  C
  C102     1.0000 0.11700  0.78100  0.82850  Biso   1.000  C
  C103     1.0000 0.61700  0.71900  0.17150  Biso   1.000  C
  C104     1.0000 0.88300  0.28100  0.67150  Biso   1.000  C
  C105     1.0000 0.31600  0.27300  0.29800  Biso   1.000  C
  C106     1.0000 0.18400  0.72700  0.79800  Biso   1.000  C
  C107     1.0000 0.68400  0.77300  0.20200  Biso   1.000  C
  C108     1.0000 0.81600  0.22700  0.70200  Biso   1.000  C
  H81      1.0000 0.30820  0.26180  0.25900  Biso   1.000  H
  H82      1.0000 0.19180  0.73820  0.75900  Biso   1.000  H
  H83      1.0000 0.69180  0.76180  0.24100  Biso   1.000  H
  H84      1.0000 0.80820  0.23820  0.74100  Biso   1.000  H
  C109     1.0000 0.26000  0.34100  0.32400  Biso   1.000  C
  C110     1.0000 0.24000  0.65900  0.82400  Biso   1.000  C
  C111     1.0000 0.74000  0.84100  0.17600  Biso   1.000  C
  C112     1.0000 0.76000  0.15900  0.67600  Biso   1.000  C
  H85      1.0000 0.21950  0.38210  0.30380  Biso   1.000  H
  H86      1.0000 0.28050  0.61790  0.80380  Biso   1.000  H
  H87      1.0000 0.78050  0.88210  0.19620  Biso   1.000  H
  H88      1.0000 0.71950  0.11790  0.69620  Biso   1.000  H
  C113     1.0000 0.27000  0.34400  0.38470  Biso   1.000  C
  C114     1.0000 0.23000  0.65600  0.88470  Biso   1.000  C
  C115     1.0000 0.73000  0.84400  0.11530  Biso   1.000  C
  C116     1.0000 0.77000  0.15600  0.61530  Biso   1.000  C
  H89      1.0000 0.22840  0.38250  0.40640  Biso   1.000  H
  H90      1.0000 0.27160  0.61750  0.90640  Biso   1.000  H
  H91      1.0000 0.77160  0.88250  0.09360  Biso   1.000  H
  H92      1.0000 0.72840  0.11750  0.59360  Biso   1.000  H
  C117     1.0000 0.34100  0.29000  0.41080  Biso   1.000  C
  C118     1.0000 0.15900  0.71000  0.91080  Biso   1.000  C
  C119     1.0000 0.65900  0.79000  0.08920  Biso   1.000  C
  C120     1.0000 0.84100  0.21000  0.58920  Biso   1.000  C
  H93      1.0000 0.34940  0.29490  0.45010  Biso   1.000  H
  H94      1.0000 0.15060  0.70510  0.95010  Biso   1.000  H
  H95      1.0000 0.65060  0.79490  0.04990  Biso   1.000  H
  H96      1.0000 0.84940  0.20510  0.54990  Biso   1.000  H
