data_image0
_cell_length_a       7.0641
_cell_length_b       9.841
_cell_length_c       10.4885
_cell_angle_alpha    72.079
_cell_angle_beta     73.176
_cell_angle_gamma    74.629

_symmetry_space_group_name_H-M    "P 1"
_symmetry_int_tables_number       1

loop_
  _symmetry_equiv_pos_as_xyz
  'x, y, z'

loop_
  _atom_site_label
  _atom_site_occupancy
  _atom_site_fract_x
  _atom_site_fract_y
  _atom_site_fract_z
  _atom_site_thermal_displace_type
  _atom_site_B_iso_or_equiv
  _atom_site_type_symbol
  Cu1      1.0000 0.10427  0.42673  0.14656  Biso   1.000  Cu
  Cu2      1.0000 0.89573  0.57327  0.85344  Biso   1.000  Cu
  O1       1.0000 0.19530  0.23500  0.11230  Biso   1.000  O
  O2       1.0000 0.80470  0.76500  0.88770  Biso   1.000  O
  O3       1.0000 0.42570  0.27090  0.91180  Biso   1.000  O
  O4       1.0000 0.57430  0.72910  0.08820  Biso   1.000  O
  O5       1.0000 0.22240  0.51690  0.95390  Biso   1.000  O
  O6       1.0000 0.77760  0.48310  0.04610  Biso   1.000  O
  O7       1.0000 0.40540  0.37110  0.24970  Biso   1.000  O
  O8       1.0000 0.59460  0.62890  0.75030  Biso   1.000  O
  O9       1.0000 0.43950  0.14110  0.35240  Biso   1.000  O
  O10      1.0000 0.56050  0.85890  0.64760  Biso   1.000  O
  O11      1.0000 0.66020  0.21810  0.16960  Biso   1.000  O
  O12      1.0000 0.33980  0.78190  0.83040  Biso   1.000  O
  N1       1.0000 0.00170  0.60980  0.21100  Biso   1.000  N
  N2       1.0000 0.99830  0.39020  0.78900  Biso   1.000  N
  N3       1.0000 0.93660  0.34620  0.33140  Biso   1.000  N
  N4       1.0000 0.06340  0.65380  0.66860  Biso   1.000  N
  N5       1.0000 0.50090  0.24080  0.25870  Biso   1.000  N
  N6       1.0000 0.49910  0.75920  0.74130  Biso   1.000  N
  C1       1.0000 0.03520  0.74540  0.13880  Biso   1.000  C
  C2       1.0000 0.96480  0.25460  0.86120  Biso   1.000  C
  H1       1.0000 0.12290  0.75750  0.05260  Biso   1.000  H
  H2       1.0000 0.87710  0.24250  0.94740  Biso   1.000  H
  C3       1.0000 0.94150  0.86550  0.19090  Biso   1.000  C
  C4       1.0000 0.05850  0.13450  0.80910  Biso   1.000  C
  H3       1.0000 0.96440  0.95750  0.13920  Biso   1.000  H
  H4       1.0000 0.03560  0.04250  0.86080  Biso   1.000  H
  C5       1.0000 0.81530  0.84900  0.31840  Biso   1.000  C
  C6       1.0000 0.18470  0.15100  0.68160  Biso   1.000  C
  H5       1.0000 0.75020  0.92970  0.35350  Biso   1.000  H
  H6       1.0000 0.24980  0.07030  0.64650  Biso   1.000  H
  C7       1.0000 0.78510  0.71130  0.39500  Biso   1.000  C
  C8       1.0000 0.21490  0.28870  0.60500  Biso   1.000  C
  H7       1.0000 0.70440  0.69740  0.48370  Biso   1.000  H
  H8       1.0000 0.29560  0.30260  0.51630  Biso   1.000  H
  C9       1.0000 0.87770  0.59400  0.33680  Biso   1.000  C
  C10      1.0000 0.12230  0.40600  0.66320  Biso   1.000  C
  C11      1.0000 0.84460  0.44280  0.40750  Biso   1.000  C
  C12      1.0000 0.15540  0.55720  0.59250  Biso   1.000  C
  C13      1.0000 0.72840  0.40440  0.53830  Biso   1.000  C
  C14      1.0000 0.27160  0.59560  0.46170  Biso   1.000  C
  H9       1.0000 0.66910  0.47310  0.58960  Biso   1.000  H
  H10      1.0000 0.33090  0.52690  0.41040  Biso   1.000  H
  C15      1.0000 0.70110  0.26130  0.59270  Biso   1.000  C
  C16      1.0000 0.29890  0.73870  0.40730  Biso   1.000  C
  H11      1.0000 0.62360  0.23220  0.68090  Biso   1.000  H
  H12      1.0000 0.37640  0.76780  0.31910  Biso   1.000  H
  C17      1.0000 0.79220  0.16330  0.51210  Biso   1.000  C
  C18      1.0000 0.20780  0.83670  0.48790  Biso   1.000  C
  H13      1.0000 0.77370  0.06740  0.54510  Biso   1.000  H
  H14      1.0000 0.22630  0.93260  0.45490  Biso   1.000  H
  C19      1.0000 0.90980  0.20770  0.38340  Biso   1.000  C
  C20      1.0000 0.09020  0.79230  0.61660  Biso   1.000  C
  H15      1.0000 0.97260  0.14050  0.33090  Biso   1.000  H
  H16      1.0000 0.02740  0.85950  0.66910  Biso   1.000  H
  C21      1.0000 0.34480  0.19090  0.01950  Biso   1.000  C
  C22      1.0000 0.65520  0.80910  0.98050  Biso   1.000  C
  C23      1.0000 0.41810  0.02900  0.05280  Biso   1.000  C
  C24      1.0000 0.58190  0.97100  0.94720  Biso   1.000  C
  H17      1.0000 0.46420  0.00010  0.13760  Biso   1.000  H
  H18      1.0000 0.53580  0.99990  0.86240  Biso   1.000  H
  H19      1.0000 0.30440  0.98300  0.07010  Biso   1.000  H
  H20      1.0000 0.69560  0.01700  0.92990  Biso   1.000  H
  H21      1.0000 0.27230  0.45270  0.90740  Biso   1.000  H
  H22      1.0000 0.72770  0.54730  0.09260  Biso   1.000  H
  H23      1.0000 0.28400  0.58780  0.91280  Biso   1.000  H
  H24      1.0000 0.71600  0.41220  0.08720  Biso   1.000  H
