data_image0
_cell_length_a       7.0768
_cell_length_b       9.8376
_cell_length_c       10.4609
_cell_angle_alpha    71.941
_cell_angle_beta     73.078
_cell_angle_gamma    74.502

_symmetry_space_group_name_H-M    "P 1"
_symmetry_int_tables_number       1

loop_
  _symmetry_equiv_pos_as_xyz
  'x, y, z'

loop_
  _atom_site_label
  _atom_site_occupancy
  _atom_site_fract_x
  _atom_site_fract_y
  _atom_site_fract_z
  _atom_site_thermal_displace_type
  _atom_site_B_iso_or_equiv
  _atom_site_type_symbol
  Cu1      1.0000 0.39709  0.57362  0.85280  Biso   1.000  Cu
  Cu2      1.0000 0.60291  0.42638  0.14720  Biso   1.000  Cu
  O1       1.0000 0.30560  0.76470  0.88840  Biso   1.000  O
  O2       1.0000 0.69440  0.23530  0.11160  Biso   1.000  O
  O3       1.0000 0.27890  0.48350  0.04500  Biso   1.000  O
  O4       1.0000 0.72110  0.51650  0.95500  Biso   1.000  O
  H1       1.0000 0.22600  0.41200  0.07100  Biso   1.000  H
  H2       1.0000 0.77400  0.58800  0.92900  Biso   1.000  H
  H3       1.0000 0.19900  0.55500  0.06500  Biso   1.000  H
  H4       1.0000 0.80100  0.44500  0.93500  Biso   1.000  H
  O5       1.0000 0.07600  0.72900  0.08660  Biso   1.000  O
  O6       1.0000 0.92400  0.27100  0.91340  Biso   1.000  O
  O7       1.0000 0.84010  0.78340  0.83040  Biso   1.000  O
  O8       1.0000 0.15990  0.21660  0.16960  Biso   1.000  O
  O9       1.0000 0.05870  0.86050  0.64800  Biso   1.000  O
  O10      1.0000 0.94130  0.13950  0.35200  Biso   1.000  O
  O11      1.0000 0.09240  0.62840  0.75120  Biso   1.000  O
  O12      1.0000 0.90760  0.37160  0.24880  Biso   1.000  O
  N1       1.0000 0.49850  0.39000  0.78940  Biso   1.000  N
  N2       1.0000 0.50150  0.61000  0.21060  Biso   1.000  N
  N3       1.0000 0.56280  0.65440  0.66720  Biso   1.000  N
  N4       1.0000 0.43720  0.34560  0.33280  Biso   1.000  N
  N5       1.0000 0.99880  0.75710  0.74210  Biso   1.000  N
  N6       1.0000 0.00120  0.24290  0.25790  Biso   1.000  N
  C1       1.0000 0.46640  0.25680  0.85780  Biso   1.000  C
  C2       1.0000 0.53360  0.74320  0.14220  Biso   1.000  C
  H5       1.0000 0.37570  0.24500  0.94310  Biso   1.000  H
  H6       1.0000 0.62430  0.75500  0.05690  Biso   1.000  H
  C3       1.0000 0.56210  0.13390  0.80780  Biso   1.000  C
  C4       1.0000 0.43790  0.86610  0.19220  Biso   1.000  C
  H7       1.0000 0.54210  0.04150  0.86110  Biso   1.000  H
  H8       1.0000 0.45790  0.95850  0.13890  Biso   1.000  H
  C5       1.0000 0.68590  0.15210  0.67870  Biso   1.000  C
  C6       1.0000 0.31410  0.84790  0.32130  Biso   1.000  C
  H9       1.0000 0.74860  0.07210  0.64200  Biso   1.000  H
  H10      1.0000 0.25140  0.92790  0.35800  Biso   1.000  H
  C7       1.0000 0.71720  0.28880  0.60360  Biso   1.000  C
  C8       1.0000 0.28280  0.71120  0.39640  Biso   1.000  C
  H11      1.0000 0.79940  0.30280  0.51510  Biso   1.000  H
  H12      1.0000 0.20060  0.69720  0.48490  Biso   1.000  H
  C9       1.0000 0.62390  0.40700  0.66190  Biso   1.000  C
  C10      1.0000 0.37610  0.59300  0.33810  Biso   1.000  C
  C11      1.0000 0.65610  0.55840  0.59070  Biso   1.000  C
  C12      1.0000 0.34390  0.44160  0.40930  Biso   1.000  C
  C13      1.0000 0.77400  0.59930  0.45830  Biso   1.000  C
  C14      1.0000 0.22600  0.40070  0.54170  Biso   1.000  C
  H13      1.0000 0.83540  0.53150  0.40610  Biso   1.000  H
  H14      1.0000 0.16460  0.46850  0.59390  Biso   1.000  H
  C15      1.0000 0.79770  0.74050  0.40650  Biso   1.000  C
  C16      1.0000 0.20230  0.25950  0.59350  Biso   1.000  C
  H15      1.0000 0.87400  0.77010  0.31760  Biso   1.000  H
  H16      1.0000 0.12600  0.22990  0.68240  Biso   1.000  H
  C17      1.0000 0.70930  0.83930  0.48510  Biso   1.000  C
  C18      1.0000 0.29070  0.16070  0.51490  Biso   1.000  C
  H17      1.0000 0.72920  0.93490  0.45240  Biso   1.000  H
  H18      1.0000 0.27080  0.06510  0.54760  Biso   1.000  H
  C19      1.0000 0.58850  0.79200  0.61570  Biso   1.000  C
  C20      1.0000 0.41150  0.20800  0.38430  Biso   1.000  C
  H19      1.0000 0.52380  0.85880  0.66850  Biso   1.000  H
  H20      1.0000 0.47620  0.14120  0.33150  Biso   1.000  H
  C21      1.0000 0.15800  0.81220  0.97740  Biso   1.000  C
  C22      1.0000 0.84200  0.18780  0.02260  Biso   1.000  C
  C23      1.0000 0.08500  0.97360  0.94570  Biso   1.000  C
  C24      1.0000 0.91500  0.02640  0.05430  Biso   1.000  C
  H21      1.0000 0.04210  0.00470  0.85940  Biso   1.000  H
  H22      1.0000 0.95790  0.99530  0.14060  Biso   1.000  H
  H23      1.0000 0.19680  0.01980  0.93240  Biso   1.000  H
  H24      1.0000 0.80320  0.98020  0.06760  Biso   1.000  H
