data_image0
_cell_length_a       16.947
_cell_length_b       12.566
_cell_length_c       14.539
_cell_angle_alpha    90
_cell_angle_beta     108.46
_cell_angle_gamma    90

_symmetry_space_group_name_H-M    "P 1"
_symmetry_int_tables_number       1

loop_
  _symmetry_equiv_pos_as_xyz
  'x, y, z'

loop_
  _atom_site_label
  _atom_site_occupancy
  _atom_site_fract_x
  _atom_site_fract_y
  _atom_site_fract_z
  _atom_site_thermal_displace_type
  _atom_site_B_iso_or_equiv
  _atom_site_type_symbol
  Cu1      1.0000 0.09544  0.95529  0.51099  Biso   1.000  Cu
  Cu2      1.0000 0.09544  0.54471  0.01099  Biso   1.000  Cu
  Cu3      1.0000 0.90456  0.04471  0.48901  Biso   1.000  Cu
  Cu4      1.0000 0.90456  0.45529  0.98901  Biso   1.000  Cu
  Cu5      1.0000 0.18699  0.96450  0.36209  Biso   1.000  Cu
  Cu6      1.0000 0.18699  0.53550  0.86209  Biso   1.000  Cu
  Cu7      1.0000 0.81301  0.03550  0.63791  Biso   1.000  Cu
  Cu8      1.0000 0.81301  0.46450  0.13791  Biso   1.000  Cu
  N1       1.0000 0.15960  0.07360  0.59240  Biso   1.000  N
  N2       1.0000 0.15960  0.42640  0.09240  Biso   1.000  N
  N3       1.0000 0.84040  0.92640  0.40760  Biso   1.000  N
  N4       1.0000 0.84040  0.57360  0.90760  Biso   1.000  N
  N5       1.0000 0.18980  0.87080  0.59560  Biso   1.000  N
  N6       1.0000 0.18980  0.62920  0.09560  Biso   1.000  N
  N7       1.0000 0.81020  0.12920  0.40440  Biso   1.000  N
  N8       1.0000 0.81020  0.37080  0.90440  Biso   1.000  N
  N9       1.0000 0.27680  0.06110  0.43930  Biso   1.000  N
  N10      1.0000 0.27680  0.43890  0.93930  Biso   1.000  N
  N11      1.0000 0.72320  0.93890  0.56070  Biso   1.000  N
  N12      1.0000 0.72320  0.56110  0.06070  Biso   1.000  N
  N13      1.0000 0.27780  0.85630  0.41500  Biso   1.000  N
  N14      1.0000 0.27780  0.64370  0.91500  Biso   1.000  N
  N15      1.0000 0.72220  0.14370  0.58500  Biso   1.000  N
  N16      1.0000 0.72220  0.35630  0.08500  Biso   1.000  N
  O1       1.0000 0.04930  0.83520  0.42500  Biso   1.000  O
  O2       1.0000 0.04930  0.66480  0.92500  Biso   1.000  O
  O3       1.0000 0.95070  0.16480  0.57500  Biso   1.000  O
  O4       1.0000 0.95070  0.33520  0.07500  Biso   1.000  O
  O5       1.0000 0.98430  0.55240  0.07630  Biso   1.000  O
  O6       1.0000 0.98430  0.94760  0.57630  Biso   1.000  O
  O7       1.0000 0.01570  0.44760  0.92370  Biso   1.000  O
  O8       1.0000 0.01570  0.05240  0.42370  Biso   1.000  O
  O9       1.0000 0.10520  0.85650  0.30560  Biso   1.000  O
  O10      1.0000 0.10520  0.64350  0.80560  Biso   1.000  O
  O11      1.0000 0.89480  0.14350  0.69440  Biso   1.000  O
  O12      1.0000 0.89480  0.35650  0.19440  Biso   1.000  O
  O13      1.0000 0.89890  0.57770  0.16340  Biso   1.000  O
  O14      1.0000 0.89890  0.92230  0.66340  Biso   1.000  O
  O15      1.0000 0.10110  0.42230  0.83660  Biso   1.000  O
  O16      1.0000 0.10110  0.07770  0.33660  Biso   1.000  O
  C1       1.0000 0.13820  0.17600  0.58740  Biso   1.000  C
  C2       1.0000 0.13820  0.32400  0.08740  Biso   1.000  C
  C3       1.0000 0.86180  0.82400  0.41260  Biso   1.000  C
  C4       1.0000 0.86180  0.67600  0.91260  Biso   1.000  C
  H1       1.0000 0.08720  0.19670  0.54430  Biso   1.000  H
  H2       1.0000 0.08720  0.30330  0.04430  Biso   1.000  H
  H3       1.0000 0.91280  0.80330  0.45570  Biso   1.000  H
  H4       1.0000 0.91280  0.69670  0.95570  Biso   1.000  H
  C5       1.0000 0.19020  0.25280  0.64500  Biso   1.000  C
  C6       1.0000 0.19020  0.24720  0.14500  Biso   1.000  C
  C7       1.0000 0.80980  0.74720  0.35500  Biso   1.000  C
  C8       1.0000 0.80980  0.75280  0.85500  Biso   1.000  C
  H5       1.0000 0.17380  0.32380  0.64000  Biso   1.000  H
  H6       1.0000 0.17380  0.17620  0.14000  Biso   1.000  H
  H7       1.0000 0.82620  0.67620  0.36000  Biso   1.000  H
  H8       1.0000 0.82620  0.82380  0.86000  Biso   1.000  H
  C9       1.0000 0.26510  0.22390  0.70860  Biso   1.000  C
  C10      1.0000 0.26510  0.27610  0.20860  Biso   1.000  C
  C11      1.0000 0.73490  0.77610  0.29140  Biso   1.000  C
  C12      1.0000 0.73490  0.72390  0.79140  Biso   1.000  C
  H9       1.0000 0.30030  0.27430  0.74760  Biso   1.000  H
  H10      1.0000 0.30030  0.22570  0.24760  Biso   1.000  H
  H11      1.0000 0.69970  0.72570  0.25240  Biso   1.000  H
  H12      1.0000 0.69970  0.77430  0.75240  Biso   1.000  H
  C13      1.0000 0.28740  0.11850  0.71390  Biso   1.000  C
  C14      1.0000 0.28740  0.38150  0.21390  Biso   1.000  C
  C15      1.0000 0.71260  0.88150  0.28610  Biso   1.000  C
  C16      1.0000 0.71260  0.61850  0.78610  Biso   1.000  C
  H13      1.0000 0.33820  0.09670  0.75680  Biso   1.000  H
  H14      1.0000 0.33820  0.40330  0.25680  Biso   1.000  H
  H15      1.0000 0.66180  0.90330  0.24320  Biso   1.000  H
  H16      1.0000 0.66180  0.59670  0.74320  Biso   1.000  H
  C17      1.0000 0.23430  0.04520  0.65550  Biso   1.000  C
  C18      1.0000 0.23430  0.45480  0.15550  Biso   1.000  C
  C19      1.0000 0.76570  0.95480  0.34450  Biso   1.000  C
  C20      1.0000 0.76570  0.54520  0.84450  Biso   1.000  C
  C21      1.0000 0.25180  0.92930  0.65550  Biso   1.000  C
  C22      1.0000 0.25180  0.57070  0.15550  Biso   1.000  C
  C23      1.0000 0.74820  0.07070  0.34450  Biso   1.000  C
  C24      1.0000 0.74820  0.42930  0.84450  Biso   1.000  C
  C25      1.0000 0.32580  0.88240  0.70720  Biso   1.000  C
  C26      1.0000 0.32580  0.61760  0.20720  Biso   1.000  C
  C27      1.0000 0.67420  0.11760  0.29280  Biso   1.000  C
  C28      1.0000 0.67420  0.38240  0.79280  Biso   1.000  C
  H17      1.0000 0.36820  0.92350  0.74800  Biso   1.000  H
  H18      1.0000 0.36820  0.57650  0.24800  Biso   1.000  H
  H19      1.0000 0.63180  0.07650  0.25200  Biso   1.000  H
  H20      1.0000 0.63180  0.42350  0.75200  Biso   1.000  H
  C29      1.0000 0.33710  0.77610  0.69890  Biso   1.000  C
  C30      1.0000 0.33710  0.72390  0.19890  Biso   1.000  C
  C31      1.0000 0.66290  0.22390  0.30110  Biso   1.000  C
  C32      1.0000 0.66290  0.27610  0.80110  Biso   1.000  C
  H21      1.0000 0.38700  0.74380  0.73370  Biso   1.000  H
  H22      1.0000 0.38700  0.75620  0.23370  Biso   1.000  H
  H23      1.0000 0.61300  0.25620  0.26630  Biso   1.000  H
  H24      1.0000 0.61300  0.24380  0.76630  Biso   1.000  H
  C33      1.0000 0.27280  0.71690  0.63750  Biso   1.000  C
  C34      1.0000 0.27280  0.78310  0.13750  Biso   1.000  C
  C35      1.0000 0.72720  0.28310  0.36250  Biso   1.000  C
  C36      1.0000 0.72720  0.21690  0.86250  Biso   1.000  C
  H25      1.0000 0.27920  0.64420  0.62990  Biso   1.000  H
  H26      1.0000 0.27920  0.85580  0.12990  Biso   1.000  H
  H27      1.0000 0.72080  0.35580  0.37010  Biso   1.000  H
  H28      1.0000 0.72080  0.14420  0.87010  Biso   1.000  H
  C37      1.0000 0.20110  0.76570  0.58910  Biso   1.000  C
  C38      1.0000 0.20110  0.73430  0.08910  Biso   1.000  C
  C39      1.0000 0.79890  0.23430  0.41090  Biso   1.000  C
  C40      1.0000 0.79890  0.26570  0.91090  Biso   1.000  C
  H29      1.0000 0.15770  0.72510  0.54960  Biso   1.000  H
  H30      1.0000 0.15770  0.77490  0.04960  Biso   1.000  H
  H31      1.0000 0.84230  0.27490  0.45040  Biso   1.000  H
  H32      1.0000 0.84230  0.22510  0.95040  Biso   1.000  H
  C41      1.0000 0.27000  0.16730  0.44480  Biso   1.000  C
  C42      1.0000 0.27000  0.33270  0.94480  Biso   1.000  C
  C43      1.0000 0.73000  0.83270  0.55520  Biso   1.000  C
  C44      1.0000 0.73000  0.66730  0.05520  Biso   1.000  C
  H33      1.0000 0.22100  0.20010  0.40810  Biso   1.000  H
  H34      1.0000 0.22100  0.29990  0.90810  Biso   1.000  H
  H35      1.0000 0.77900  0.79990  0.59190  Biso   1.000  H
  H36      1.0000 0.77900  0.70010  0.09190  Biso   1.000  H
  C45      1.0000 0.33300  0.22870  0.50270  Biso   1.000  C
  C46      1.0000 0.33300  0.27130  0.00270  Biso   1.000  C
  C47      1.0000 0.66700  0.77130  0.49730  Biso   1.000  C
  C48      1.0000 0.66700  0.72870  0.99730  Biso   1.000  C
  H37      1.0000 0.32720  0.30200  0.50640  Biso   1.000  H
  H38      1.0000 0.32720  0.19800  0.00640  Biso   1.000  H
  H39      1.0000 0.67280  0.69800  0.49360  Biso   1.000  H
  H40      1.0000 0.67280  0.80200  0.99360  Biso   1.000  H
  C49      1.0000 0.40530  0.17810  0.55540  Biso   1.000  C
  C50      1.0000 0.40530  0.32190  0.05540  Biso   1.000  C
  C51      1.0000 0.59470  0.82190  0.44460  Biso   1.000  C
  C52      1.0000 0.59470  0.67810  0.94460  Biso   1.000  C
  H41      1.0000 0.44870  0.21750  0.59640  Biso   1.000  H
  H42      1.0000 0.44870  0.28250  0.09640  Biso   1.000  H
  H43      1.0000 0.55130  0.78250  0.40360  Biso   1.000  H
  H44      1.0000 0.55130  0.71750  0.90360  Biso   1.000  H
  C53      1.0000 0.41420  0.06960  0.54800  Biso   1.000  C
  C54      1.0000 0.41420  0.43040  0.04800  Biso   1.000  C
  C55      1.0000 0.58580  0.93040  0.45200  Biso   1.000  C
  C56      1.0000 0.58580  0.56960  0.95200  Biso   1.000  C
  H45      1.0000 0.46340  0.03560  0.58250  Biso   1.000  H
  H46      1.0000 0.46340  0.46440  0.08250  Biso   1.000  H
  H47      1.0000 0.53660  0.96440  0.41750  Biso   1.000  H
  H48      1.0000 0.53660  0.53560  0.91750  Biso   1.000  H
  C57      1.0000 0.34870  0.01310  0.48850  Biso   1.000  C
  C58      1.0000 0.34870  0.48690  0.98850  Biso   1.000  C
  C59      1.0000 0.65130  0.98690  0.51150  Biso   1.000  C
  C60      1.0000 0.65130  0.51310  0.01150  Biso   1.000  C
  C61      1.0000 0.34920  0.89680  0.47480  Biso   1.000  C
  C62      1.0000 0.34920  0.60320  0.97480  Biso   1.000  C
  C63      1.0000 0.65080  0.10320  0.52520  Biso   1.000  C
  C64      1.0000 0.65080  0.39680  0.02520  Biso   1.000  C
  C65      1.0000 0.41670  0.83200  0.51890  Biso   1.000  C
  C66      1.0000 0.41670  0.66800  0.01890  Biso   1.000  C
  C67      1.0000 0.58330  0.16800  0.48110  Biso   1.000  C
  C68      1.0000 0.58330  0.33200  0.98110  Biso   1.000  C
  H49      1.0000 0.46580  0.86060  0.56000  Biso   1.000  H
  H50      1.0000 0.46580  0.63940  0.06000  Biso   1.000  H
  H51      1.0000 0.53420  0.13940  0.44000  Biso   1.000  H
  H52      1.0000 0.53420  0.36060  0.94000  Biso   1.000  H
  C69      1.0000 0.40950  0.72170  0.50030  Biso   1.000  C
  C70      1.0000 0.40950  0.77830  0.00030  Biso   1.000  C
  C71      1.0000 0.59050  0.27830  0.49970  Biso   1.000  C
  C72      1.0000 0.59050  0.22170  0.99970  Biso   1.000  C
  H53      1.0000 0.45390  0.67650  0.52910  Biso   1.000  H
  H54      1.0000 0.45390  0.82350  0.02910  Biso   1.000  H
  H55      1.0000 0.54610  0.32350  0.47090  Biso   1.000  H
  H56      1.0000 0.54610  0.17650  0.97090  Biso   1.000  H
  C73      1.0000 0.33710  0.68250  0.43970  Biso   1.000  C
  C74      1.0000 0.33710  0.81750  0.93970  Biso   1.000  C
  C75      1.0000 0.66290  0.31750  0.56030  Biso   1.000  C
  C76      1.0000 0.66290  0.18250  0.06030  Biso   1.000  C
  H57      1.0000 0.33130  0.61000  0.42640  Biso   1.000  H
  H58      1.0000 0.33130  0.89000  0.92640  Biso   1.000  H
  H59      1.0000 0.66870  0.39000  0.57360  Biso   1.000  H
  H60      1.0000 0.66870  0.11000  0.07360  Biso   1.000  H
  C77      1.0000 0.27220  0.75080  0.39810  Biso   1.000  C
  C78      1.0000 0.27220  0.74920  0.89810  Biso   1.000  C
  C79      1.0000 0.72780  0.24920  0.60190  Biso   1.000  C
  C80      1.0000 0.72780  0.25080  0.10190  Biso   1.000  C
  H61      1.0000 0.22270  0.72320  0.35690  Biso   1.000  H
  H62      1.0000 0.22270  0.77680  0.85690  Biso   1.000  H
  H63      1.0000 0.77730  0.27680  0.64310  Biso   1.000  H
  H64      1.0000 0.77730  0.22320  0.14310  Biso   1.000  H
  C81      1.0000 0.05580  0.81330  0.34320  Biso   1.000  C
  C82      1.0000 0.05580  0.68670  0.84320  Biso   1.000  C
  C83      1.0000 0.94420  0.18670  0.65680  Biso   1.000  C
  C84      1.0000 0.94420  0.31330  0.15680  Biso   1.000  C
  C85      1.0000 0.99880  0.72580  0.28650  Biso   1.000  C
  C86      1.0000 0.99880  0.77420  0.78650  Biso   1.000  C
  C87      1.0000 0.00120  0.27420  0.71350  Biso   1.000  C
  C88      1.0000 0.00120  0.22580  0.21350  Biso   1.000  C
  H65      1.0000 0.99950  0.66720  0.33010  Biso   1.000  H
  H66      1.0000 0.99950  0.83280  0.83010  Biso   1.000  H
  H67      1.0000 0.00050  0.33280  0.66990  Biso   1.000  H
  H68      1.0000 0.00050  0.16720  0.16990  Biso   1.000  H
  H69      1.0000 0.94240  0.75310  0.26340  Biso   1.000  H
  H70      1.0000 0.94240  0.74690  0.76340  Biso   1.000  H
  H71      1.0000 0.05760  0.24690  0.73660  Biso   1.000  H
  H72      1.0000 0.05760  0.25310  0.23660  Biso   1.000  H
  C89      1.0000 0.02160  0.68360  0.20050  Biso   1.000  C
  C90      1.0000 0.02160  0.81640  0.70050  Biso   1.000  C
  C91      1.0000 0.97840  0.31640  0.79950  Biso   1.000  C
  C92      1.0000 0.97840  0.18360  0.29950  Biso   1.000  C
  H73      1.0000 0.02170  0.74230  0.15720  Biso   1.000  H
  H74      1.0000 0.02170  0.75770  0.65720  Biso   1.000  H
  H75      1.0000 0.97830  0.25770  0.84280  Biso   1.000  H
  H76      1.0000 0.97830  0.24230  0.34280  Biso   1.000  H
  H77      1.0000 0.07770  0.65520  0.22360  Biso   1.000  H
  H78      1.0000 0.07770  0.84480  0.72360  Biso   1.000  H
  H79      1.0000 0.92230  0.34480  0.77640  Biso   1.000  H
  H80      1.0000 0.92230  0.15520  0.27640  Biso   1.000  H
  C93      1.0000 0.96390  0.59830  0.14410  Biso   1.000  C
  C94      1.0000 0.96390  0.90170  0.64410  Biso   1.000  C
  C95      1.0000 0.03610  0.40170  0.85590  Biso   1.000  C
  C96      1.0000 0.03610  0.09830  0.35590  Biso   1.000  C
  Cl1      1.0000 0.14153  0.46361  0.38836  Biso   1.000  Cl
  Cl2      1.0000 0.14153  0.03639  0.88836  Biso   1.000  Cl
  Cl3      1.0000 0.85847  0.53639  0.61164  Biso   1.000  Cl
  Cl4      1.0000 0.85847  0.96361  0.11164  Biso   1.000  Cl
  O17      1.0000 0.05580  0.46640  0.34600  Biso   1.000  O
  O18      1.0000 0.05580  0.03360  0.84600  Biso   1.000  O
  O19      1.0000 0.94420  0.53360  0.65400  Biso   1.000  O
  O20      1.0000 0.94420  0.96640  0.15400  Biso   1.000  O
  O21      1.0000 0.18300  0.51470  0.33520  Biso   1.000  O
  O22      1.0000 0.18300  0.98530  0.83520  Biso   1.000  O
  O23      1.0000 0.81700  0.48530  0.66480  Biso   1.000  O
  O24      1.0000 0.81700  0.01470  0.16480  Biso   1.000  O
  O25      1.0000 0.16800  0.36410  0.41690  Biso   1.000  O
  O26      1.0000 0.16800  0.13590  0.91690  Biso   1.000  O
  O27      1.0000 0.83200  0.63590  0.58310  Biso   1.000  O
  O28      1.0000 0.83200  0.86410  0.08310  Biso   1.000  O
  O29      1.0000 0.15570  0.52380  0.47740  Biso   1.000  O
  O30      1.0000 0.15570  0.97620  0.97740  Biso   1.000  O
  O31      1.0000 0.84430  0.47620  0.52260  Biso   1.000  O
  O32      1.0000 0.84430  0.02380  0.02260  Biso   1.000  O
  O33      1.0000 0.09690  0.45910  0.28590  Biso   1.000  O
  O34      1.0000 0.09690  0.04090  0.78590  Biso   1.000  O
  O35      1.0000 0.90310  0.54090  0.71410  Biso   1.000  O
  O36      1.0000 0.90310  0.95910  0.21410  Biso   1.000  O
  O37      1.0000 0.11260  0.38290  0.43220  Biso   1.000  O
  O38      1.0000 0.11260  0.11710  0.93220  Biso   1.000  O
  O39      1.0000 0.88740  0.61710  0.56780  Biso   1.000  O
  O40      1.0000 0.88740  0.88290  0.06780  Biso   1.000  O
  O41      1.0000 0.14040  0.56370  0.42330  Biso   1.000  O
  O42      1.0000 0.14040  0.93630  0.92330  Biso   1.000  O
  O43      1.0000 0.85960  0.43630  0.57670  Biso   1.000  O
  O44      1.0000 0.85960  0.06370  0.07670  Biso   1.000  O
  O45      1.0000 0.22680  0.43570  0.39570  Biso   1.000  O
  O46      1.0000 0.22680  0.06430  0.89570  Biso   1.000  O
  O47      1.0000 0.77320  0.56430  0.60430  Biso   1.000  O
  O48      1.0000 0.77320  0.93570  0.10430  Biso   1.000  O
  Cl5      1.0000 0.42900  0.46915  0.70757  Biso   1.000  Cl
  Cl6      1.0000 0.42900  0.03085  0.20757  Biso   1.000  Cl
  Cl7      1.0000 0.57100  0.53085  0.29243  Biso   1.000  Cl
  Cl8      1.0000 0.57100  0.96915  0.79243  Biso   1.000  Cl
  O49      1.0000 0.44140  0.39460  0.77960  Biso   1.000  O
  O50      1.0000 0.44140  0.10540  0.27960  Biso   1.000  O
  O51      1.0000 0.55860  0.60540  0.22040  Biso   1.000  O
  O52      1.0000 0.55860  0.89460  0.72040  Biso   1.000  O
  O53      1.0000 0.34420  0.47200  0.65260  Biso   1.000  O
  O54      1.0000 0.34420  0.02800  0.15260  Biso   1.000  O
  O55      1.0000 0.65580  0.52800  0.34740  Biso   1.000  O
  O56      1.0000 0.65580  0.97200  0.84740  Biso   1.000  O
  O57      1.0000 0.47050  0.43400  0.64170  Biso   1.000  O
  O58      1.0000 0.47050  0.06600  0.14170  Biso   1.000  O
  O59      1.0000 0.52950  0.56600  0.35830  Biso   1.000  O
  O60      1.0000 0.52950  0.93400  0.85830  Biso   1.000  O
  O61      1.0000 0.45710  0.56830  0.74000  Biso   1.000  O
  O62      1.0000 0.45710  0.93170  0.24000  Biso   1.000  O
  O63      1.0000 0.54290  0.43170  0.26000  Biso   1.000  O
  O64      1.0000 0.54290  0.06830  0.76000  Biso   1.000  O
  O65      1.0000 0.36060  0.46710  0.62370  Biso   1.000  O
  O66      1.0000 0.36060  0.03290  0.12370  Biso   1.000  O
  O67      1.0000 0.63940  0.53290  0.37630  Biso   1.000  O
  O68      1.0000 0.63940  0.96710  0.87630  Biso   1.000  O
  O69      1.0000 0.39890  0.49680  0.78570  Biso   1.000  O
  O70      1.0000 0.39890  0.00320  0.28570  Biso   1.000  O
  O71      1.0000 0.60110  0.50320  0.21430  Biso   1.000  O
  O72      1.0000 0.60110  0.99680  0.71430  Biso   1.000  O
  O73      1.0000 0.48670  0.54800  0.70410  Biso   1.000  O
  O74      1.0000 0.48670  0.95200  0.20410  Biso   1.000  O
  O75      1.0000 0.51330  0.45200  0.29590  Biso   1.000  O
  O76      1.0000 0.51330  0.04800  0.79590  Biso   1.000  O
  O77      1.0000 0.46920  0.37190  0.72740  Biso   1.000  O
  O78      1.0000 0.46920  0.12810  0.22740  Biso   1.000  O
  O79      1.0000 0.53080  0.62810  0.27260  Biso   1.000  O
  O80      1.0000 0.53080  0.87190  0.77260  Biso   1.000  O
  O81      1.0000 0.20860  0.99880  0.22580  Biso   1.000  O
  O82      1.0000 0.20860  0.50120  0.72580  Biso   1.000  O
  O83      1.0000 0.79140  0.00120  0.77420  Biso   1.000  O
  O84      1.0000 0.79140  0.49880  0.27420  Biso   1.000  O
  H81      1.0000 0.16030  0.99010  0.17290  Biso   1.000  H
  H82      1.0000 0.16030  0.50990  0.67290  Biso   1.000  H
  H83      1.0000 0.83970  0.00990  0.82710  Biso   1.000  H
  H84      1.0000 0.83970  0.49010  0.32710  Biso   1.000  H
  H85      1.0000 0.25500  0.98570  0.20580  Biso   1.000  H
  H86      1.0000 0.25500  0.51430  0.70580  Biso   1.000  H
  H87      1.0000 0.74500  0.01430  0.79420  Biso   1.000  H
  H88      1.0000 0.74500  0.48570  0.29420  Biso   1.000  H
  O85      1.0000 0.07280  0.56070  0.58560  Biso   1.000  O
  O86      1.0000 0.07280  0.93930  0.08560  Biso   1.000  O
  O87      1.0000 0.92720  0.43930  0.41440  Biso   1.000  O
  O88      1.0000 0.92720  0.06070  0.91440  Biso   1.000  O
  H89      1.0000 0.06930  0.50140  0.54560  Biso   1.000  H
  H90      1.0000 0.06930  0.99860  0.04560  Biso   1.000  H
  H91      1.0000 0.93070  0.49860  0.45440  Biso   1.000  H
  H92      1.0000 0.93070  0.00140  0.95440  Biso   1.000  H
  H93      1.0000 0.02050  0.57390  0.59210  Biso   1.000  H
  H94      1.0000 0.02050  0.92610  0.09210  Biso   1.000  H
  H95      1.0000 0.97950  0.42610  0.40790  Biso   1.000  H
  H96      1.0000 0.97950  0.07390  0.90790  Biso   1.000  H
