data_image0
_cell_length_a       9.3725
_cell_length_b       9.1324
_cell_length_c       19.663
_cell_angle_alpha    90
_cell_angle_beta     100.29
_cell_angle_gamma    90

_symmetry_space_group_name_H-M    "P 1"
_symmetry_int_tables_number       1

loop_
  _symmetry_equiv_pos_as_xyz
  'x, y, z'

loop_
  _atom_site_label
  _atom_site_occupancy
  _atom_site_fract_x
  _atom_site_fract_y
  _atom_site_fract_z
  _atom_site_thermal_displace_type
  _atom_site_B_iso_or_equiv
  _atom_site_type_symbol
  C1       1.0000 0.89920  0.12610  0.40939  Biso   1.000  C
  C2       1.0000 0.10080  0.62610  0.09061  Biso   1.000  C
  C3       1.0000 0.10080  0.87390  0.59061  Biso   1.000  C
  C4       1.0000 0.89920  0.37390  0.90939  Biso   1.000  C
  C5       1.0000 0.78800  0.20010  0.43534  Biso   1.000  C
  C6       1.0000 0.21200  0.70010  0.06466  Biso   1.000  C
  C7       1.0000 0.21200  0.79990  0.56466  Biso   1.000  C
  C8       1.0000 0.78800  0.29990  0.93534  Biso   1.000  C
  H1       1.0000 0.78280  0.30170  0.43270  Biso   1.000  H
  H2       1.0000 0.21720  0.80170  0.06730  Biso   1.000  H
  H3       1.0000 0.21720  0.69830  0.56730  Biso   1.000  H
  H4       1.0000 0.78280  0.19830  0.93270  Biso   1.000  H
  C9       1.0000 0.68780  0.12450  0.46440  Biso   1.000  C
  C10      1.0000 0.31220  0.62450  0.03560  Biso   1.000  C
  C11      1.0000 0.31220  0.87550  0.53560  Biso   1.000  C
  C12      1.0000 0.68780  0.37550  0.96440  Biso   1.000  C
  H5       1.0000 0.61530  0.17590  0.48090  Biso   1.000  H
  H6       1.0000 0.38470  0.67590  0.01910  Biso   1.000  H
  H7       1.0000 0.38470  0.82410  0.51910  Biso   1.000  H
  H8       1.0000 0.61530  0.32410  0.98090  Biso   1.000  H
  C13      1.0000 0.69210  0.97530  0.46975  Biso   1.000  C
  C14      1.0000 0.30790  0.47530  0.03025  Biso   1.000  C
  C15      1.0000 0.30790  0.02470  0.53025  Biso   1.000  C
  C16      1.0000 0.69210  0.52470  0.96975  Biso   1.000  C
  H9       1.0000 0.62170  0.92560  0.48860  Biso   1.000  H
  H10      1.0000 0.37830  0.42560  0.01140  Biso   1.000  H
  H11      1.0000 0.37830  0.07440  0.51140  Biso   1.000  H
  H12      1.0000 0.62170  0.57440  0.98860  Biso   1.000  H
  C17      1.0000 0.80050  0.89970  0.44718  Biso   1.000  C
  C18      1.0000 0.19950  0.39970  0.05282  Biso   1.000  C
  C19      1.0000 0.19950  0.10030  0.55282  Biso   1.000  C
  C20      1.0000 0.80050  0.60030  0.94718  Biso   1.000  C
  H13      1.0000 0.80510  0.79850  0.45220  Biso   1.000  H
  H14      1.0000 0.19490  0.29850  0.04780  Biso   1.000  H
  H15      1.0000 0.19490  0.20150  0.54780  Biso   1.000  H
  H16      1.0000 0.80510  0.70150  0.95220  Biso   1.000  H
  C21      1.0000 0.90540  0.97230  0.41652  Biso   1.000  C
  C22      1.0000 0.09460  0.47230  0.08348  Biso   1.000  C
  C23      1.0000 0.09460  0.02770  0.58348  Biso   1.000  C
  C24      1.0000 0.90540  0.52770  0.91652  Biso   1.000  C
  C25      1.0000 0.01900  0.88550  0.39599  Biso   1.000  C
  C26      1.0000 0.98100  0.38550  0.10401  Biso   1.000  C
  C27      1.0000 0.98100  0.11450  0.60401  Biso   1.000  C
  C28      1.0000 0.01900  0.61450  0.89599  Biso   1.000  C
  H17      1.0000 0.02070  0.78600  0.40630  Biso   1.000  H
  H18      1.0000 0.97930  0.28600  0.09370  Biso   1.000  H
  H19      1.0000 0.97930  0.21400  0.59370  Biso   1.000  H
  H20      1.0000 0.02070  0.71400  0.90630  Biso   1.000  H
  C29      1.0000 0.23040  0.83580  0.34811  Biso   1.000  C
  C30      1.0000 0.76960  0.33580  0.15189  Biso   1.000  C
  C31      1.0000 0.76960  0.16420  0.65189  Biso   1.000  C
  C32      1.0000 0.23040  0.66420  0.84811  Biso   1.000  C
  H21      1.0000 0.19910  0.73470  0.34890  Biso   1.000  H
  H22      1.0000 0.80090  0.23470  0.15110  Biso   1.000  H
  H23      1.0000 0.80090  0.26530  0.65110  Biso   1.000  H
  H24      1.0000 0.19910  0.76530  0.84890  Biso   1.000  H
  H25      1.0000 0.31910  0.84730  0.38170  Biso   1.000  H
  H26      1.0000 0.68090  0.34730  0.11830  Biso   1.000  H
  H27      1.0000 0.68090  0.15270  0.61830  Biso   1.000  H
  H28      1.0000 0.31910  0.65270  0.88170  Biso   1.000  H
  C33      1.0000 0.25620  0.87560  0.27740  Biso   1.000  C
  C34      1.0000 0.74380  0.37560  0.22260  Biso   1.000  C
  C35      1.0000 0.74380  0.12440  0.72260  Biso   1.000  C
  C36      1.0000 0.25620  0.62440  0.77740  Biso   1.000  C
  H29      1.0000 0.34210  0.82570  0.26820  Biso   1.000  H
  H30      1.0000 0.65790  0.32570  0.23180  Biso   1.000  H
  H31      1.0000 0.65790  0.17430  0.73180  Biso   1.000  H
  H32      1.0000 0.34210  0.67430  0.76820  Biso   1.000  H
  H33      1.0000 0.17430  0.84430  0.24310  Biso   1.000  H
  H34      1.0000 0.82570  0.34430  0.25690  Biso   1.000  H
  H35      1.0000 0.82570  0.15570  0.75690  Biso   1.000  H
  H36      1.0000 0.17430  0.65570  0.74310  Biso   1.000  H
  C37      1.0000 0.25640  0.08520  0.19947  Biso   1.000  C
  C38      1.0000 0.74360  0.58520  0.30053  Biso   1.000  C
  C39      1.0000 0.74360  0.91480  0.80053  Biso   1.000  C
  C40      1.0000 0.25640  0.41480  0.69947  Biso   1.000  C
  H37      1.0000 0.24810  0.19110  0.19800  Biso   1.000  H
  H38      1.0000 0.75190  0.69110  0.30200  Biso   1.000  H
  H39      1.0000 0.75190  0.80890  0.80200  Biso   1.000  H
  H40      1.0000 0.24810  0.30890  0.69800  Biso   1.000  H
  H41      1.0000 0.16700  0.04480  0.17390  Biso   1.000  H
  H42      1.0000 0.83300  0.54480  0.32610  Biso   1.000  H
  H43      1.0000 0.83300  0.95520  0.82610  Biso   1.000  H
  H44      1.0000 0.16700  0.45520  0.67390  Biso   1.000  H
  C41      1.0000 0.38090  0.03930  0.16514  Biso   1.000  C
  C42      1.0000 0.61910  0.53930  0.33486  Biso   1.000  C
  C43      1.0000 0.61910  0.96070  0.83486  Biso   1.000  C
  C44      1.0000 0.38090  0.46070  0.66514  Biso   1.000  C
  H45      1.0000 0.38500  0.93320  0.16360  Biso   1.000  H
  H46      1.0000 0.61500  0.43320  0.33640  Biso   1.000  H
  H47      1.0000 0.61500  0.06680  0.83640  Biso   1.000  H
  H48      1.0000 0.38500  0.56680  0.66360  Biso   1.000  H
  H49      1.0000 0.36420  0.07510  0.11790  Biso   1.000  H
  H50      1.0000 0.63580  0.57510  0.38210  Biso   1.000  H
  H51      1.0000 0.63580  0.92490  0.88210  Biso   1.000  H
  H52      1.0000 0.36420  0.42490  0.61790  Biso   1.000  H
  C45      1.0000 0.54200  0.03940  0.26984  Biso   1.000  C
  C46      1.0000 0.45800  0.53940  0.23016  Biso   1.000  C
  C47      1.0000 0.45800  0.96060  0.73016  Biso   1.000  C
  C48      1.0000 0.54200  0.46060  0.76984  Biso   1.000  C
  H53      1.0000 0.63390  0.07670  0.29420  Biso   1.000  H
  H54      1.0000 0.36610  0.57670  0.20580  Biso   1.000  H
  H55      1.0000 0.36610  0.92330  0.70580  Biso   1.000  H
  H56      1.0000 0.63390  0.42330  0.79420  Biso   1.000  H
  H57      1.0000 0.54800  0.93340  0.26890  Biso   1.000  H
  H58      1.0000 0.45200  0.43340  0.23110  Biso   1.000  H
  H59      1.0000 0.45200  0.06660  0.73110  Biso   1.000  H
  H60      1.0000 0.54800  0.56660  0.76890  Biso   1.000  H
  C49      1.0000 0.42310  0.08430  0.30730  Biso   1.000  C
  C50      1.0000 0.57690  0.58430  0.19270  Biso   1.000  C
  C51      1.0000 0.57690  0.91570  0.69270  Biso   1.000  C
  C52      1.0000 0.42310  0.41570  0.80730  Biso   1.000  C
  H61      1.0000 0.44290  0.04380  0.35360  Biso   1.000  H
  H62      1.0000 0.55710  0.54380  0.14640  Biso   1.000  H
  H63      1.0000 0.55710  0.95620  0.64640  Biso   1.000  H
  H64      1.0000 0.44290  0.45620  0.85360  Biso   1.000  H
  H65      1.0000 0.42340  0.19020  0.31150  Biso   1.000  H
  H66      1.0000 0.57660  0.69020  0.18850  Biso   1.000  H
  H67      1.0000 0.57660  0.80980  0.68850  Biso   1.000  H
  H68      1.0000 0.42340  0.30980  0.81150  Biso   1.000  H
  C53      1.0000 0.12100  0.43940  0.28058  Biso   1.000  C
  C54      1.0000 0.87900  0.93940  0.21942  Biso   1.000  C
  C55      1.0000 0.87900  0.56060  0.71942  Biso   1.000  C
  C56      1.0000 0.12100  0.06060  0.78058  Biso   1.000  C
  Cu1      1.0000 0.12345  0.12834  0.32566  Biso   1.000  Cu
  Cu2      1.0000 0.87655  0.62834  0.17434  Biso   1.000  Cu
  Cu3      1.0000 0.87655  0.87166  0.67434  Biso   1.000  Cu
  Cu4      1.0000 0.12345  0.37166  0.82566  Biso   1.000  Cu
  N1       1.0000 0.11730  0.93420  0.36492  Biso   1.000  N
  N2       1.0000 0.88270  0.43420  0.13508  Biso   1.000  N
  N3       1.0000 0.88270  0.06580  0.63508  Biso   1.000  N
  N4       1.0000 0.11730  0.56580  0.86492  Biso   1.000  N
  N5       1.0000 0.27550  0.03570  0.27237  Biso   1.000  N
  N6       1.0000 0.72450  0.53570  0.22763  Biso   1.000  N
  N7       1.0000 0.72450  0.96430  0.72763  Biso   1.000  N
  N8       1.0000 0.27550  0.46430  0.77237  Biso   1.000  N
  N9       1.0000 0.16080  0.32350  0.29520  Biso   1.000  N
  N10      1.0000 0.83920  0.82350  0.20480  Biso   1.000  N
  N11      1.0000 0.83920  0.67650  0.70480  Biso   1.000  N
  N12      1.0000 0.16080  0.17650  0.79520  Biso   1.000  N
  O1       1.0000 0.99140  0.20436  0.38196  Biso   1.000  O
  O2       1.0000 0.00860  0.70436  0.11804  Biso   1.000  O
  O3       1.0000 0.00860  0.79564  0.61804  Biso   1.000  O
  O4       1.0000 0.99140  0.29564  0.88196  Biso   1.000  O
  O5       1.0000 0.51600  0.09420  0.20087  Biso   1.000  O
  O6       1.0000 0.48400  0.59420  0.29913  Biso   1.000  O
  O7       1.0000 0.48400  0.90580  0.79913  Biso   1.000  O
  O8       1.0000 0.51600  0.40580  0.70087  Biso   1.000  O
  O9       1.0000 0.08270  0.56123  0.26560  Biso   1.000  O
  O10      1.0000 0.91730  0.06123  0.23440  Biso   1.000  O
  O11      1.0000 0.91730  0.43877  0.73440  Biso   1.000  O
  O12      1.0000 0.08270  0.93877  0.76560  Biso   1.000  O
  O13      1.0000 0.07720  0.47030  0.44670  Biso   1.000  O
  O14      1.0000 0.92280  0.97030  0.05330  Biso   1.000  O
  O15      1.0000 0.92280  0.52970  0.55330  Biso   1.000  O
  O16      1.0000 0.07720  0.02970  0.94670  Biso   1.000  O
  O17      1.0000 0.36240  0.46920  0.45530  Biso   1.000  O
  O18      1.0000 0.63760  0.96920  0.04470  Biso   1.000  O
  O19      1.0000 0.63760  0.53080  0.54470  Biso   1.000  O
  O20      1.0000 0.36240  0.03080  0.95530  Biso   1.000  O
