data_image0
_cell_length_a       14.599
_cell_length_b       9.764
_cell_length_c       16.936
_cell_angle_alpha    90
_cell_angle_beta     95.581
_cell_angle_gamma    90

_symmetry_space_group_name_H-M    "P 1"
_symmetry_int_tables_number       1

loop_
  _symmetry_equiv_pos_as_xyz
  'x, y, z'

loop_
  _atom_site_label
  _atom_site_occupancy
  _atom_site_fract_x
  _atom_site_fract_y
  _atom_site_fract_z
  _atom_site_thermal_displace_type
  _atom_site_B_iso_or_equiv
  _atom_site_type_symbol
  C1       1.0000 0.41730  0.47760  0.42420  Biso   1.000  C
  C2       1.0000 0.91730  0.02240  0.92420  Biso   1.000  C
  C3       1.0000 0.58270  0.52240  0.57580  Biso   1.000  C
  C4       1.0000 0.08270  0.97760  0.07580  Biso   1.000  C
  C5       1.0000 0.46340  0.57480  0.38460  Biso   1.000  C
  C6       1.0000 0.96340  0.92520  0.88460  Biso   1.000  C
  C7       1.0000 0.53660  0.42520  0.61540  Biso   1.000  C
  C8       1.0000 0.03660  0.07480  0.11540  Biso   1.000  C
  C9       1.0000 0.38450  0.58700  0.46970  Biso   1.000  C
  C10      1.0000 0.88450  0.91300  0.96970  Biso   1.000  C
  C11      1.0000 0.61550  0.41300  0.53030  Biso   1.000  C
  C12      1.0000 0.11550  0.08700  0.03030  Biso   1.000  C
  C13      1.0000 0.43760  0.67500  0.42810  Biso   1.000  C
  C14      1.0000 0.93760  0.82500  0.92810  Biso   1.000  C
  C15      1.0000 0.56240  0.32500  0.57190  Biso   1.000  C
  C16      1.0000 0.06240  0.17500  0.07190  Biso   1.000  C
  Cu1      1.0000 0.60224  0.26822  0.03249  Biso   1.000  Cu
  Cu2      1.0000 0.10224  0.23178  0.53249  Biso   1.000  Cu
  Cu3      1.0000 0.39776  0.73178  0.96751  Biso   1.000  Cu
  Cu4      1.0000 0.89776  0.76822  0.46751  Biso   1.000  Cu
  O1       1.0000 0.56140  0.13950  0.10820  Biso   1.000  O
  O2       1.0000 0.06140  0.36050  0.60820  Biso   1.000  O
  O3       1.0000 0.43860  0.86050  0.89180  Biso   1.000  O
  O4       1.0000 0.93860  0.63950  0.39180  Biso   1.000  O
  O5       1.0000 0.67130  0.15510  0.20950  Biso   1.000  O
  O6       1.0000 0.17130  0.34490  0.70950  Biso   1.000  O
  O7       1.0000 0.32870  0.84490  0.79050  Biso   1.000  O
  O8       1.0000 0.82870  0.65510  0.29050  Biso   1.000  O
  O9       1.0000 0.32030  0.28760  0.50750  Biso   1.000  O
  O10      1.0000 0.82030  0.21240  0.00750  Biso   1.000  O
  O11      1.0000 0.67970  0.71240  0.49250  Biso   1.000  O
  O12      1.0000 0.17970  0.78760  0.99250  Biso   1.000  O
  O13      1.0000 0.18660  0.37210  0.46130  Biso   1.000  O
  O14      1.0000 0.68660  0.12790  0.96130  Biso   1.000  O
  O15      1.0000 0.81340  0.62790  0.53870  Biso   1.000  O
  O16      1.0000 0.31340  0.87210  0.03870  Biso   1.000  O
  O17      1.0000 0.71380  0.32300  0.09910  Biso   1.000  O
  O18      1.0000 0.21380  0.17700  0.59910  Biso   1.000  O
  O19      1.0000 0.28620  0.67700  0.90090  Biso   1.000  O
  O20      1.0000 0.78620  0.82300  0.40090  Biso   1.000  O
  N1       1.0000 0.47840  0.25640  0.96900  Biso   1.000  N
  N2       1.0000 0.97840  0.24360  0.46900  Biso   1.000  N
  N3       1.0000 0.52160  0.74360  0.03100  Biso   1.000  N
  N4       1.0000 0.02160  0.75640  0.53100  Biso   1.000  N
  N5       1.0000 0.61570  0.42610  0.95690  Biso   1.000  N
  N6       1.0000 0.11570  0.07390  0.45690  Biso   1.000  N
  N7       1.0000 0.38430  0.57390  0.04310  Biso   1.000  N
  N8       1.0000 0.88430  0.92610  0.54310  Biso   1.000  N
  C17      1.0000 0.40970  0.16910  0.97630  Biso   1.000  C
  C18      1.0000 0.90970  0.33090  0.47630  Biso   1.000  C
  C19      1.0000 0.59030  0.83090  0.02370  Biso   1.000  C
  C20      1.0000 0.09030  0.66910  0.52370  Biso   1.000  C
  H1       1.0000 0.41600  0.10410  0.01660  Biso   1.000  H
  H2       1.0000 0.91600  0.39590  0.51660  Biso   1.000  H
  H3       1.0000 0.58400  0.89590  0.98340  Biso   1.000  H
  H4       1.0000 0.08400  0.60410  0.48340  Biso   1.000  H
  C21      1.0000 0.32790  0.17210  0.92500  Biso   1.000  C
  C22      1.0000 0.82790  0.32790  0.42500  Biso   1.000  C
  C23      1.0000 0.67210  0.82790  0.07500  Biso   1.000  C
  C24      1.0000 0.17210  0.67210  0.57500  Biso   1.000  C
  H5       1.0000 0.28070  0.11070  0.93220  Biso   1.000  H
  H6       1.0000 0.78070  0.38930  0.43220  Biso   1.000  H
  H7       1.0000 0.71930  0.88930  0.06780  Biso   1.000  H
  H8       1.0000 0.21930  0.61070  0.56780  Biso   1.000  H
  C25      1.0000 0.31800  0.26450  0.86520  Biso   1.000  C
  C26      1.0000 0.81800  0.23550  0.36520  Biso   1.000  C
  C27      1.0000 0.68200  0.73550  0.13480  Biso   1.000  C
  C28      1.0000 0.18200  0.76450  0.63480  Biso   1.000  C
  H9       1.0000 0.26450  0.26570  0.83060  Biso   1.000  H
  H10      1.0000 0.76450  0.23430  0.33060  Biso   1.000  H
  H11      1.0000 0.73550  0.73430  0.16940  Biso   1.000  H
  H12      1.0000 0.23550  0.76570  0.66940  Biso   1.000  H
  C29      1.0000 0.38890  0.35840  0.85540  Biso   1.000  C
  C30      1.0000 0.88890  0.14160  0.35540  Biso   1.000  C
  C31      1.0000 0.61110  0.64160  0.14460  Biso   1.000  C
  C32      1.0000 0.11110  0.85840  0.64460  Biso   1.000  C
  C33      1.0000 0.38780  0.46060  0.79250  Biso   1.000  C
  C34      1.0000 0.88780  0.03940  0.29250  Biso   1.000  C
  C35      1.0000 0.61220  0.53940  0.20750  Biso   1.000  C
  C36      1.0000 0.11220  0.96060  0.70750  Biso   1.000  C
  H13      1.0000 0.33660  0.46700  0.75550  Biso   1.000  H
  H14      1.0000 0.83660  0.03300  0.25550  Biso   1.000  H
  H15      1.0000 0.66340  0.53300  0.24450  Biso   1.000  H
  H16      1.0000 0.16340  0.96700  0.74450  Biso   1.000  H
  C37      1.0000 0.45780  0.54430  0.78680  Biso   1.000  C
  C38      1.0000 0.95780  0.95570  0.28680  Biso   1.000  C
  C39      1.0000 0.54220  0.45570  0.21320  Biso   1.000  C
  C40      1.0000 0.04220  0.04430  0.71320  Biso   1.000  C
  H17      1.0000 0.45490  0.60880  0.74620  Biso   1.000  H
  H18      1.0000 0.95490  0.89120  0.24620  Biso   1.000  H
  H19      1.0000 0.54510  0.39120  0.25380  Biso   1.000  H
  H20      1.0000 0.04510  0.10880  0.75380  Biso   1.000  H
  C41      1.0000 0.53860  0.53750  0.84230  Biso   1.000  C
  C42      1.0000 0.03860  0.96250  0.34230  Biso   1.000  C
  C43      1.0000 0.46140  0.46250  0.15770  Biso   1.000  C
  C44      1.0000 0.96140  0.03750  0.65770  Biso   1.000  C
  C45      1.0000 0.61550  0.62380  0.83910  Biso   1.000  C
  C46      1.0000 0.11550  0.87620  0.33910  Biso   1.000  C
  C47      1.0000 0.38450  0.37620  0.16090  Biso   1.000  C
  C48      1.0000 0.88450  0.12380  0.66090  Biso   1.000  C
  H21      1.0000 0.61670  0.68980  0.79960  Biso   1.000  H
  H22      1.0000 0.11670  0.81020  0.29960  Biso   1.000  H
  H23      1.0000 0.38330  0.31020  0.20040  Biso   1.000  H
  H24      1.0000 0.88330  0.18980  0.70040  Biso   1.000  H
  C49      1.0000 0.68720  0.60860  0.89460  Biso   1.000  C
  C50      1.0000 0.18720  0.89140  0.39460  Biso   1.000  C
  C51      1.0000 0.31280  0.39140  0.10540  Biso   1.000  C
  C52      1.0000 0.81280  0.10860  0.60540  Biso   1.000  C
  H25      1.0000 0.73830  0.66520  0.89320  Biso   1.000  H
  H26      1.0000 0.23830  0.83480  0.39320  Biso   1.000  H
  H27      1.0000 0.26170  0.33480  0.10680  Biso   1.000  H
  H28      1.0000 0.76170  0.16520  0.60680  Biso   1.000  H
  C53      1.0000 0.68680  0.50940  0.95460  Biso   1.000  C
  C54      1.0000 0.18680  0.99060  0.45460  Biso   1.000  C
  C55      1.0000 0.31320  0.49060  0.04540  Biso   1.000  C
  C56      1.0000 0.81320  0.00940  0.54540  Biso   1.000  C
  H29      1.0000 0.73670  0.50220  0.99290  Biso   1.000  H
  H30      1.0000 0.23670  0.99780  0.49290  Biso   1.000  H
  H31      1.0000 0.26330  0.49780  0.00710  Biso   1.000  H
  H32      1.0000 0.76330  0.00220  0.50710  Biso   1.000  H
  C57      1.0000 0.54350  0.44100  0.90240  Biso   1.000  C
  C58      1.0000 0.04350  0.05900  0.40240  Biso   1.000  C
  C59      1.0000 0.45650  0.55900  0.09760  Biso   1.000  C
  C60      1.0000 0.95650  0.94100  0.59760  Biso   1.000  C
  C61      1.0000 0.46800  0.35030  0.90890  Biso   1.000  C
  C62      1.0000 0.96800  0.14970  0.40890  Biso   1.000  C
  C63      1.0000 0.53200  0.64970  0.09110  Biso   1.000  C
  C64      1.0000 0.03200  0.85030  0.59110  Biso   1.000  C
  C65      1.0000 0.59900  0.10410  0.17650  Biso   1.000  C
  C66      1.0000 0.09900  0.39590  0.67650  Biso   1.000  C
  C67      1.0000 0.40100  0.89590  0.82350  Biso   1.000  C
  C68      1.0000 0.90100  0.60410  0.32350  Biso   1.000  C
  C69      1.0000 0.55040  0.99350  0.21870  Biso   1.000  C
  C70      1.0000 0.05040  0.50650  0.71870  Biso   1.000  C
  C71      1.0000 0.44960  0.00650  0.78130  Biso   1.000  C
  C72      1.0000 0.94960  0.49350  0.28130  Biso   1.000  C
  C73      1.0000 0.58770  0.94330  0.29120  Biso   1.000  C
  C74      1.0000 0.08770  0.55670  0.79120  Biso   1.000  C
  C75      1.0000 0.41230  0.05670  0.70880  Biso   1.000  C
  C76      1.0000 0.91230  0.44330  0.20880  Biso   1.000  C
  H33      1.0000 0.64280  0.97860  0.31490  Biso   1.000  H
  H34      1.0000 0.14280  0.52140  0.81490  Biso   1.000  H
  H35      1.0000 0.35720  0.02140  0.68510  Biso   1.000  H
  H36      1.0000 0.85720  0.47860  0.18510  Biso   1.000  H
  C77      1.0000 0.54340  0.84220  0.32760  Biso   1.000  C
  C78      1.0000 0.04340  0.65780  0.82760  Biso   1.000  C
  C79      1.0000 0.45660  0.15780  0.67240  Biso   1.000  C
  C80      1.0000 0.95660  0.34220  0.17240  Biso   1.000  C
  H37      1.0000 0.56990  0.80880  0.37600  Biso   1.000  H
  H38      1.0000 0.06990  0.69120  0.87600  Biso   1.000  H
  H39      1.0000 0.43010  0.19120  0.62400  Biso   1.000  H
  H40      1.0000 0.93010  0.30880  0.12400  Biso   1.000  H
  C81      1.0000 0.46130  0.78730  0.29610  Biso   1.000  C
  C82      1.0000 0.96130  0.71270  0.79610  Biso   1.000  C
  C83      1.0000 0.53870  0.21270  0.70390  Biso   1.000  C
  C84      1.0000 0.03870  0.28730  0.20390  Biso   1.000  C
  C85      1.0000 0.42520  0.83580  0.22190  Biso   1.000  C
  C86      1.0000 0.92520  0.66420  0.72190  Biso   1.000  C
  C87      1.0000 0.57480  0.16420  0.77810  Biso   1.000  C
  C88      1.0000 0.07480  0.33580  0.27810  Biso   1.000  C
  H41      1.0000 0.37100  0.79860  0.19740  Biso   1.000  H
  H42      1.0000 0.87100  0.70140  0.69740  Biso   1.000  H
  H43      1.0000 0.62900  0.20140  0.80260  Biso   1.000  H
  H44      1.0000 0.12900  0.29860  0.30260  Biso   1.000  H
  C89      1.0000 0.46930  0.93770  0.18550  Biso   1.000  C
  C90      1.0000 0.96930  0.56230  0.68550  Biso   1.000  C
  C91      1.0000 0.53070  0.06230  0.81450  Biso   1.000  C
  C92      1.0000 0.03070  0.43770  0.31450  Biso   1.000  C
  H45      1.0000 0.44360  0.97040  0.13670  Biso   1.000  H
  H46      1.0000 0.94360  0.52960  0.63670  Biso   1.000  H
  H47      1.0000 0.55640  0.02960  0.86330  Biso   1.000  H
  H48      1.0000 0.05640  0.47040  0.36330  Biso   1.000  H
  C93      1.0000 0.41230  0.67560  0.33660  Biso   1.000  C
  C94      1.0000 0.91230  0.82440  0.83660  Biso   1.000  C
  C95      1.0000 0.58770  0.32440  0.66340  Biso   1.000  C
  C96      1.0000 0.08770  0.17560  0.16340  Biso   1.000  C
  C97      1.0000 0.31800  0.47650  0.41800  Biso   1.000  C
  C98      1.0000 0.81800  0.02350  0.91800  Biso   1.000  C
  C99      1.0000 0.68200  0.52350  0.58200  Biso   1.000  C
  C100     1.0000 0.18200  0.97650  0.08200  Biso   1.000  C
  C101     1.0000 0.27860  0.54210  0.35530  Biso   1.000  C
  C102     1.0000 0.77860  0.95790  0.85530  Biso   1.000  C
  C103     1.0000 0.72140  0.45790  0.64470  Biso   1.000  C
  C104     1.0000 0.22140  0.04210  0.14470  Biso   1.000  C
  H49      1.0000 0.21780  0.52150  0.33760  Biso   1.000  H
  H50      1.0000 0.71780  0.97850  0.83760  Biso   1.000  H
  H51      1.0000 0.78220  0.47850  0.66240  Biso   1.000  H
  H52      1.0000 0.28220  0.02150  0.16240  Biso   1.000  H
  C105     1.0000 0.32310  0.63760  0.31610  Biso   1.000  C
  C106     1.0000 0.82310  0.86240  0.81610  Biso   1.000  C
  C107     1.0000 0.67690  0.36240  0.68390  Biso   1.000  C
  C108     1.0000 0.17690  0.13760  0.18390  Biso   1.000  C
  H53      1.0000 0.29120  0.68020  0.27260  Biso   1.000  H
  H54      1.0000 0.79120  0.81980  0.77260  Biso   1.000  H
  H55      1.0000 0.70880  0.31980  0.72740  Biso   1.000  H
  H56      1.0000 0.20880  0.18020  0.22740  Biso   1.000  H
  C109     1.0000 0.27000  0.37090  0.46660  Biso   1.000  C
  C110     1.0000 0.77000  0.12910  0.96660  Biso   1.000  C
  C111     1.0000 0.73000  0.62910  0.53340  Biso   1.000  C
  C112     1.0000 0.23000  0.87090  0.03340  Biso   1.000  C
  H57      1.0000 0.75570  0.38520  0.10320  Biso   1.000  H
  H58      1.0000 0.25570  0.11480  0.60320  Biso   1.000  H
  H59      1.0000 0.24430  0.61480  0.89680  Biso   1.000  H
  H60      1.0000 0.74430  0.88520  0.39680  Biso   1.000  H
  H61      1.0000 0.72720  0.26810  0.13830  Biso   1.000  H
  H62      1.0000 0.22720  0.23190  0.63830  Biso   1.000  H
  H63      1.0000 0.27280  0.73190  0.86170  Biso   1.000  H
  H64      1.0000 0.77280  0.76810  0.36170  Biso   1.000  H
