data_image0
_cell_length_a       14.0847
_cell_length_b       14.5426
_cell_length_c       22.599
_cell_angle_alpha    90
_cell_angle_beta     90
_cell_angle_gamma    90

_symmetry_space_group_name_H-M    "P 1"
_symmetry_int_tables_number       1

loop_
  _symmetry_equiv_pos_as_xyz
  'x, y, z'

loop_
  _atom_site_label
  _atom_site_occupancy
  _atom_site_fract_x
  _atom_site_fract_y
  _atom_site_fract_z
  _atom_site_thermal_displace_type
  _atom_site_B_iso_or_equiv
  _atom_site_type_symbol
  Cu1      1.0000 0.00000  0.00000  0.00000  Biso   1.000  Cu
  Cu2      1.0000 0.50000  0.00000  0.00000  Biso   1.000  Cu
  Cu3      1.0000 0.50000  0.50000  0.50000  Biso   1.000  Cu
  Cu4      1.0000 0.00000  0.50000  0.50000  Biso   1.000  Cu
  N1       1.0000 0.54200  0.16280  0.02650  Biso   1.000  N
  N2       1.0000 0.95800  0.83720  0.02650  Biso   1.000  N
  N3       1.0000 0.95800  0.66280  0.47350  Biso   1.000  N
  N4       1.0000 0.54200  0.33720  0.47350  Biso   1.000  N
  N5       1.0000 0.45800  0.83720  0.97350  Biso   1.000  N
  N6       1.0000 0.04200  0.16280  0.97350  Biso   1.000  N
  N7       1.0000 0.04200  0.33720  0.52650  Biso   1.000  N
  N8       1.0000 0.45800  0.66280  0.52650  Biso   1.000  N
  N9       1.0000 0.47180  0.22220  0.02980  Biso   1.000  N
  N10      1.0000 0.02820  0.77780  0.02980  Biso   1.000  N
  N11      1.0000 0.02820  0.72220  0.47020  Biso   1.000  N
  N12      1.0000 0.47180  0.27780  0.47020  Biso   1.000  N
  N13      1.0000 0.52820  0.77780  0.97020  Biso   1.000  N
  N14      1.0000 0.97180  0.22220  0.97020  Biso   1.000  N
  N15      1.0000 0.97180  0.27780  0.52980  Biso   1.000  N
  N16      1.0000 0.52820  0.72220  0.52980  Biso   1.000  N
  N17      1.0000 0.50960  0.30290  0.04600  Biso   1.000  N
  N18      1.0000 0.99040  0.69710  0.04600  Biso   1.000  N
  N19      1.0000 0.99040  0.80290  0.45400  Biso   1.000  N
  N20      1.0000 0.50960  0.19710  0.45400  Biso   1.000  N
  N21      1.0000 0.49040  0.69710  0.95400  Biso   1.000  N
  N22      1.0000 0.00960  0.30290  0.95400  Biso   1.000  N
  N23      1.0000 0.00960  0.19710  0.54600  Biso   1.000  N
  N24      1.0000 0.49040  0.80290  0.54600  Biso   1.000  N
  N25      1.0000 0.75040  0.13580  0.98120  Biso   1.000  N
  N26      1.0000 0.74960  0.86420  0.98120  Biso   1.000  N
  N27      1.0000 0.74960  0.63580  0.51880  Biso   1.000  N
  N28      1.0000 0.75040  0.36420  0.51880  Biso   1.000  N
  N29      1.0000 0.24960  0.86420  0.01880  Biso   1.000  N
  N30      1.0000 0.25040  0.13580  0.01880  Biso   1.000  N
  N31      1.0000 0.25040  0.36420  0.48120  Biso   1.000  N
  N32      1.0000 0.24960  0.63580  0.48120  Biso   1.000  N
  N33      1.0000 0.83940  0.07820  0.91180  Biso   1.000  N
  N34      1.0000 0.66060  0.92180  0.91180  Biso   1.000  N
  N35      1.0000 0.66060  0.57820  0.58820  Biso   1.000  N
  N36      1.0000 0.83940  0.42180  0.58820  Biso   1.000  N
  N37      1.0000 0.16060  0.92180  0.08820  Biso   1.000  N
  N38      1.0000 0.33940  0.07820  0.08820  Biso   1.000  N
  N39      1.0000 0.33940  0.42180  0.41180  Biso   1.000  N
  N40      1.0000 0.16060  0.57820  0.41180  Biso   1.000  N
  N41      1.0000 0.97030  0.97770  0.91270  Biso   1.000  N
  N42      1.0000 0.52970  0.02230  0.91270  Biso   1.000  N
  N43      1.0000 0.52970  0.47770  0.58730  Biso   1.000  N
  N44      1.0000 0.97030  0.52230  0.58730  Biso   1.000  N
  N45      1.0000 0.02970  0.02230  0.08730  Biso   1.000  N
  N46      1.0000 0.47030  0.97770  0.08730  Biso   1.000  N
  N47      1.0000 0.47030  0.52230  0.41270  Biso   1.000  N
  N48      1.0000 0.02970  0.47770  0.41270  Biso   1.000  N
  N49      1.0000 0.89270  0.02250  0.82370  Biso   1.000  N
  N50      1.0000 0.60730  0.97750  0.82370  Biso   1.000  N
  N51      1.0000 0.60730  0.52250  0.67630  Biso   1.000  N
  N52      1.0000 0.89270  0.47750  0.67630  Biso   1.000  N
  N53      1.0000 0.10730  0.97750  0.17630  Biso   1.000  N
  N54      1.0000 0.39270  0.02250  0.17630  Biso   1.000  N
  N55      1.0000 0.39270  0.47750  0.32370  Biso   1.000  N
  N56      1.0000 0.10730  0.52250  0.32370  Biso   1.000  N
  O1       1.0000 0.87120  0.04140  0.01197  Biso   1.000  O
  O2       1.0000 0.62880  0.95860  0.01197  Biso   1.000  O
  O3       1.0000 0.62880  0.54140  0.48803  Biso   1.000  O
  O4       1.0000 0.87120  0.45860  0.48803  Biso   1.000  O
  O5       1.0000 0.12880  0.95860  0.98803  Biso   1.000  O
  O6       1.0000 0.37120  0.04140  0.98803  Biso   1.000  O
  O7       1.0000 0.37120  0.45860  0.51197  Biso   1.000  O
  O8       1.0000 0.12880  0.54140  0.51197  Biso   1.000  O
  C1       1.0000 0.60280  0.29640  0.05220  Biso   1.000  C
  C2       1.0000 0.89720  0.70360  0.05220  Biso   1.000  C
  C3       1.0000 0.89720  0.79640  0.44780  Biso   1.000  C
  C4       1.0000 0.60280  0.20360  0.44780  Biso   1.000  C
  C5       1.0000 0.39720  0.70360  0.94780  Biso   1.000  C
  C6       1.0000 0.10280  0.29640  0.94780  Biso   1.000  C
  C7       1.0000 0.10280  0.20360  0.55220  Biso   1.000  C
  C8       1.0000 0.39720  0.79640  0.55220  Biso   1.000  C
  H1       1.0000 0.64480  0.34300  0.06260  Biso   1.000  H
  H2       1.0000 0.85520  0.65700  0.06260  Biso   1.000  H
  H3       1.0000 0.85520  0.84300  0.43740  Biso   1.000  H
  H4       1.0000 0.64480  0.15700  0.43740  Biso   1.000  H
  H5       1.0000 0.35520  0.65700  0.93740  Biso   1.000  H
  H6       1.0000 0.14480  0.34300  0.93740  Biso   1.000  H
  H7       1.0000 0.14480  0.15700  0.56260  Biso   1.000  H
  H8       1.0000 0.35520  0.84300  0.56260  Biso   1.000  H
  C9       1.0000 0.62470  0.20670  0.03990  Biso   1.000  C
  C10      1.0000 0.87530  0.79330  0.03990  Biso   1.000  C
  C11      1.0000 0.87530  0.70670  0.46010  Biso   1.000  C
  C12      1.0000 0.62470  0.29330  0.46010  Biso   1.000  C
  C13      1.0000 0.37530  0.79330  0.96010  Biso   1.000  C
  C14      1.0000 0.12470  0.20670  0.96010  Biso   1.000  C
  C15      1.0000 0.12470  0.29330  0.53990  Biso   1.000  C
  C16      1.0000 0.37530  0.70670  0.53990  Biso   1.000  C
  C17      1.0000 0.71760  0.15970  0.04130  Biso   1.000  C
  C18      1.0000 0.78240  0.84030  0.04130  Biso   1.000  C
  C19      1.0000 0.78240  0.65970  0.45870  Biso   1.000  C
  C20      1.0000 0.71760  0.34030  0.45870  Biso   1.000  C
  C21      1.0000 0.28240  0.84030  0.95870  Biso   1.000  C
  C22      1.0000 0.21760  0.15970  0.95870  Biso   1.000  C
  C23      1.0000 0.21760  0.34030  0.54130  Biso   1.000  C
  C24      1.0000 0.28240  0.65970  0.54130  Biso   1.000  C
  H9       1.0000 0.76400  0.19950  0.06000  Biso   1.000  H
  H10      1.0000 0.73600  0.80050  0.06000  Biso   1.000  H
  H11      1.0000 0.73600  0.69950  0.44000  Biso   1.000  H
  H12      1.0000 0.76400  0.30050  0.44000  Biso   1.000  H
  H13      1.0000 0.23600  0.80050  0.94000  Biso   1.000  H
  H14      1.0000 0.26400  0.19950  0.94000  Biso   1.000  H
  H15      1.0000 0.26400  0.30050  0.56000  Biso   1.000  H
  H16      1.0000 0.23600  0.69950  0.56000  Biso   1.000  H
  H17      1.0000 0.71250  0.10410  0.06480  Biso   1.000  H
  H18      1.0000 0.78750  0.89590  0.06480  Biso   1.000  H
  H19      1.0000 0.78750  0.60410  0.43520  Biso   1.000  H
  H20      1.0000 0.71250  0.39590  0.43520  Biso   1.000  H
  H21      1.0000 0.28750  0.89590  0.93520  Biso   1.000  H
  H22      1.0000 0.21250  0.10410  0.93520  Biso   1.000  H
  H23      1.0000 0.21250  0.39590  0.56480  Biso   1.000  H
  H24      1.0000 0.28750  0.60410  0.56480  Biso   1.000  H
  C25      1.0000 0.82490  0.08270  0.97170  Biso   1.000  C
  C26      1.0000 0.67510  0.91730  0.97170  Biso   1.000  C
  C27      1.0000 0.67510  0.58270  0.52830  Biso   1.000  C
  C28      1.0000 0.82490  0.41730  0.52830  Biso   1.000  C
  C29      1.0000 0.17510  0.91730  0.02830  Biso   1.000  C
  C30      1.0000 0.32490  0.08270  0.02830  Biso   1.000  C
  C31      1.0000 0.32490  0.41730  0.47170  Biso   1.000  C
  C32      1.0000 0.17510  0.58270  0.47170  Biso   1.000  C
  C33      1.0000 0.77120  0.13410  0.88420  Biso   1.000  C
  C34      1.0000 0.72880  0.86590  0.88420  Biso   1.000  C
  C35      1.0000 0.72880  0.63410  0.61580  Biso   1.000  C
  C36      1.0000 0.77120  0.36590  0.61580  Biso   1.000  C
  C37      1.0000 0.22880  0.86590  0.11580  Biso   1.000  C
  C38      1.0000 0.27120  0.13410  0.11580  Biso   1.000  C
  C39      1.0000 0.27120  0.36590  0.38420  Biso   1.000  C
  C40      1.0000 0.22880  0.63410  0.38420  Biso   1.000  C
  H25      1.0000 0.76490  0.14480  0.84390  Biso   1.000  H
  H26      1.0000 0.73510  0.85520  0.84390  Biso   1.000  H
  H27      1.0000 0.73510  0.64480  0.65610  Biso   1.000  H
  H28      1.0000 0.76490  0.35520  0.65610  Biso   1.000  H
  H29      1.0000 0.23510  0.85520  0.15610  Biso   1.000  H
  H30      1.0000 0.26490  0.14480  0.15610  Biso   1.000  H
  H31      1.0000 0.26490  0.35520  0.34390  Biso   1.000  H
  H32      1.0000 0.23510  0.64480  0.34390  Biso   1.000  H
  C41      1.0000 0.71690  0.16890  0.92730  Biso   1.000  C
  C42      1.0000 0.78310  0.83110  0.92730  Biso   1.000  C
  C43      1.0000 0.78310  0.66890  0.57270  Biso   1.000  C
  C44      1.0000 0.71690  0.33110  0.57270  Biso   1.000  C
  C45      1.0000 0.28310  0.83110  0.07270  Biso   1.000  C
  C46      1.0000 0.21690  0.16890  0.07270  Biso   1.000  C
  C47      1.0000 0.21690  0.33110  0.42730  Biso   1.000  C
  C48      1.0000 0.28310  0.66890  0.42730  Biso   1.000  C
  H33      1.0000 0.66560  0.20830  0.92220  Biso   1.000  H
  H34      1.0000 0.83440  0.79170  0.92220  Biso   1.000  H
  H35      1.0000 0.83440  0.70830  0.57780  Biso   1.000  H
  H36      1.0000 0.66560  0.29170  0.57780  Biso   1.000  H
  H37      1.0000 0.33440  0.79170  0.07780  Biso   1.000  H
  H38      1.0000 0.16560  0.20830  0.07780  Biso   1.000  H
  H39      1.0000 0.16560  0.29170  0.42220  Biso   1.000  H
  H40      1.0000 0.33440  0.70830  0.42220  Biso   1.000  H
  C49      1.0000 0.90510  0.02370  0.88190  Biso   1.000  C
  C50      1.0000 0.59490  0.97630  0.88190  Biso   1.000  C
  C51      1.0000 0.59490  0.52370  0.61810  Biso   1.000  C
  C52      1.0000 0.90510  0.47630  0.61810  Biso   1.000  C
  C53      1.0000 0.09490  0.97630  0.11810  Biso   1.000  C
  C54      1.0000 0.40510  0.02370  0.11810  Biso   1.000  C
  C55      1.0000 0.40510  0.47630  0.38190  Biso   1.000  C
  C56      1.0000 0.09490  0.52370  0.38190  Biso   1.000  C
  C57      1.0000 0.95150  0.96480  0.79430  Biso   1.000  C
  C58      1.0000 0.54850  0.03520  0.79430  Biso   1.000  C
  C59      1.0000 0.54850  0.46480  0.70570  Biso   1.000  C
  C60      1.0000 0.95150  0.53520  0.70570  Biso   1.000  C
  C61      1.0000 0.04850  0.03520  0.20570  Biso   1.000  C
  C62      1.0000 0.45150  0.96480  0.20570  Biso   1.000  C
  C63      1.0000 0.45150  0.53520  0.29430  Biso   1.000  C
  C64      1.0000 0.04850  0.46480  0.29430  Biso   1.000  C
  H41      1.0000 0.94750  0.96300  0.75330  Biso   1.000  H
  H42      1.0000 0.55250  0.03700  0.75330  Biso   1.000  H
  H43      1.0000 0.55250  0.46300  0.74670  Biso   1.000  H
  H44      1.0000 0.94750  0.53700  0.74670  Biso   1.000  H
  H45      1.0000 0.05250  0.03700  0.24670  Biso   1.000  H
  H46      1.0000 0.44750  0.96300  0.24670  Biso   1.000  H
  H47      1.0000 0.44750  0.53700  0.25330  Biso   1.000  H
  H48      1.0000 0.05250  0.46300  0.25330  Biso   1.000  H
  C65      1.0000 0.01510  0.91030  0.82090  Biso   1.000  C
  C66      1.0000 0.48490  0.08970  0.82090  Biso   1.000  C
  C67      1.0000 0.48490  0.41030  0.67910  Biso   1.000  C
  C68      1.0000 0.01510  0.58970  0.67910  Biso   1.000  C
  C69      1.0000 0.98490  0.08970  0.17910  Biso   1.000  C
  C70      1.0000 0.51510  0.91030  0.17910  Biso   1.000  C
  C71      1.0000 0.51510  0.58970  0.32090  Biso   1.000  C
  C72      1.0000 0.98490  0.41030  0.32090  Biso   1.000  C
  H49      1.0000 0.05160  0.86830  0.79970  Biso   1.000  H
  H50      1.0000 0.44840  0.13170  0.79970  Biso   1.000  H
  H51      1.0000 0.44840  0.36830  0.70030  Biso   1.000  H
  H52      1.0000 0.05160  0.63170  0.70030  Biso   1.000  H
  H53      1.0000 0.94840  0.13170  0.20030  Biso   1.000  H
  H54      1.0000 0.55160  0.86830  0.20030  Biso   1.000  H
  H55      1.0000 0.55160  0.63170  0.29970  Biso   1.000  H
  H56      1.0000 0.94840  0.36830  0.29970  Biso   1.000  H
  C73      1.0000 0.02380  0.91960  0.88150  Biso   1.000  C
  C74      1.0000 0.47620  0.08040  0.88150  Biso   1.000  C
  C75      1.0000 0.47620  0.41960  0.61850  Biso   1.000  C
  C76      1.0000 0.02380  0.58040  0.61850  Biso   1.000  C
  C77      1.0000 0.97620  0.08040  0.11850  Biso   1.000  C
  C78      1.0000 0.52380  0.91960  0.11850  Biso   1.000  C
  C79      1.0000 0.52380  0.58040  0.38150  Biso   1.000  C
  C80      1.0000 0.97620  0.41960  0.38150  Biso   1.000  C
  H57      1.0000 0.06860  0.88400  0.90130  Biso   1.000  H
  H58      1.0000 0.43140  0.11600  0.90130  Biso   1.000  H
  H59      1.0000 0.43140  0.38400  0.59870  Biso   1.000  H
  H60      1.0000 0.06860  0.61600  0.59870  Biso   1.000  H
  H61      1.0000 0.93140  0.11600  0.09870  Biso   1.000  H
  H62      1.0000 0.56860  0.88400  0.09870  Biso   1.000  H
  H63      1.0000 0.56860  0.61600  0.40130  Biso   1.000  H
  H64      1.0000 0.93140  0.38400  0.40130  Biso   1.000  H
  C81      1.0000 0.44890  0.38440  0.05140  Biso   1.000  C
  C82      1.0000 0.05110  0.61560  0.05140  Biso   1.000  C
  C83      1.0000 0.05110  0.88440  0.44860  Biso   1.000  C
  C84      1.0000 0.44890  0.11560  0.44860  Biso   1.000  C
  C85      1.0000 0.55110  0.61560  0.94860  Biso   1.000  C
  C86      1.0000 0.94890  0.38440  0.94860  Biso   1.000  C
  C87      1.0000 0.94890  0.11560  0.55140  Biso   1.000  C
  C88      1.0000 0.55110  0.88440  0.55140  Biso   1.000  C
  H65      1.0000 0.41820  0.39590  0.01370  Biso   1.000  H
  H66      1.0000 0.08180  0.60410  0.01370  Biso   1.000  H
  H67      1.0000 0.08180  0.89590  0.48630  Biso   1.000  H
  H68      1.0000 0.41820  0.10410  0.48630  Biso   1.000  H
  H69      1.0000 0.58180  0.60410  0.98630  Biso   1.000  H
  H70      1.0000 0.91820  0.39590  0.98630  Biso   1.000  H
  H71      1.0000 0.91820  0.10410  0.51370  Biso   1.000  H
  H72      1.0000 0.58180  0.89590  0.51370  Biso   1.000  H
  H73      1.0000 0.48820  0.43730  0.06050  Biso   1.000  H
  H74      1.0000 0.01180  0.56270  0.06050  Biso   1.000  H
  H75      1.0000 0.01180  0.93730  0.43950  Biso   1.000  H
  H76      1.0000 0.48820  0.06270  0.43950  Biso   1.000  H
  H77      1.0000 0.51180  0.56270  0.93950  Biso   1.000  H
  H78      1.0000 0.98820  0.43730  0.93950  Biso   1.000  H
  H79      1.0000 0.98820  0.06270  0.56050  Biso   1.000  H
  H80      1.0000 0.51180  0.93730  0.56050  Biso   1.000  H
  C89      1.0000 0.37570  0.37480  0.09740  Biso   1.000  C
  C90      1.0000 0.12430  0.62520  0.09740  Biso   1.000  C
  C91      1.0000 0.12430  0.87480  0.40260  Biso   1.000  C
  C92      1.0000 0.37570  0.12520  0.40260  Biso   1.000  C
  C93      1.0000 0.62430  0.62520  0.90260  Biso   1.000  C
  C94      1.0000 0.87570  0.37480  0.90260  Biso   1.000  C
  C95      1.0000 0.87570  0.12520  0.59740  Biso   1.000  C
  C96      1.0000 0.62430  0.87480  0.59740  Biso   1.000  C
  C97      1.0000 0.41200  0.34800  0.15300  Biso   1.000  C
  C98      1.0000 0.08800  0.65200  0.15300  Biso   1.000  C
  C99      1.0000 0.08800  0.84800  0.34700  Biso   1.000  C
  C100     1.0000 0.41200  0.15200  0.34700  Biso   1.000  C
  C101     1.0000 0.58800  0.65200  0.84700  Biso   1.000  C
  C102     1.0000 0.91200  0.34800  0.84700  Biso   1.000  C
  C103     1.0000 0.91200  0.15200  0.65300  Biso   1.000  C
  C104     1.0000 0.58800  0.84800  0.65300  Biso   1.000  C
  H81      1.0000 0.47670  0.33720  0.15750  Biso   1.000  H
  H82      1.0000 0.02330  0.66280  0.15750  Biso   1.000  H
  H83      1.0000 0.02330  0.83720  0.34250  Biso   1.000  H
  H84      1.0000 0.47670  0.16280  0.34250  Biso   1.000  H
  H85      1.0000 0.52330  0.66280  0.84250  Biso   1.000  H
  H86      1.0000 0.97670  0.33720  0.84250  Biso   1.000  H
  H87      1.0000 0.97670  0.16280  0.65750  Biso   1.000  H
  H88      1.0000 0.52330  0.83720  0.65750  Biso   1.000  H
  C105     1.0000 0.35200  0.33700  0.20300  Biso   1.000  C
  C106     1.0000 0.14800  0.66300  0.20300  Biso   1.000  C
  C107     1.0000 0.14800  0.83700  0.29700  Biso   1.000  C
  C108     1.0000 0.35200  0.16300  0.29700  Biso   1.000  C
  C109     1.0000 0.64800  0.66300  0.79700  Biso   1.000  C
  C110     1.0000 0.85200  0.33700  0.79700  Biso   1.000  C
  C111     1.0000 0.85200  0.16300  0.70300  Biso   1.000  C
  C112     1.0000 0.64800  0.83700  0.70300  Biso   1.000  C
  H89      1.0000 0.37800  0.31960  0.23930  Biso   1.000  H
  H90      1.0000 0.12200  0.68040  0.23930  Biso   1.000  H
  H91      1.0000 0.12200  0.81960  0.26070  Biso   1.000  H
  H92      1.0000 0.37800  0.18040  0.26070  Biso   1.000  H
  H93      1.0000 0.62200  0.68040  0.76070  Biso   1.000  H
  H94      1.0000 0.87800  0.31960  0.76070  Biso   1.000  H
  H95      1.0000 0.87800  0.18040  0.73930  Biso   1.000  H
  H96      1.0000 0.62200  0.81960  0.73930  Biso   1.000  H
  C113     1.0000 0.25400  0.35100  0.19800  Biso   1.000  C
  C114     1.0000 0.24600  0.64900  0.19800  Biso   1.000  C
  C115     1.0000 0.24600  0.85100  0.30200  Biso   1.000  C
  C116     1.0000 0.25400  0.14900  0.30200  Biso   1.000  C
  C117     1.0000 0.74600  0.64900  0.80200  Biso   1.000  C
  C118     1.0000 0.75400  0.35100  0.80200  Biso   1.000  C
  C119     1.0000 0.75400  0.14900  0.69800  Biso   1.000  C
  C120     1.0000 0.74600  0.85100  0.69800  Biso   1.000  C
  H97      1.0000 0.21400  0.34220  0.23010  Biso   1.000  H
  H98      1.0000 0.28600  0.65780  0.23010  Biso   1.000  H
  H99      1.0000 0.28600  0.84220  0.26990  Biso   1.000  H
  H100     1.0000 0.21400  0.15780  0.26990  Biso   1.000  H
  H101     1.0000 0.78600  0.65780  0.76990  Biso   1.000  H
  H102     1.0000 0.71400  0.34220  0.76990  Biso   1.000  H
  H103     1.0000 0.71400  0.15780  0.73010  Biso   1.000  H
  H104     1.0000 0.78600  0.84220  0.73010  Biso   1.000  H
  C121     1.0000 0.21800  0.38000  0.14300  Biso   1.000  C
  C122     1.0000 0.28200  0.62000  0.14300  Biso   1.000  C
  C123     1.0000 0.28200  0.88000  0.35700  Biso   1.000  C
  C124     1.0000 0.21800  0.12000  0.35700  Biso   1.000  C
  C125     1.0000 0.78200  0.62000  0.85700  Biso   1.000  C
  C126     1.0000 0.71800  0.38000  0.85700  Biso   1.000  C
  C127     1.0000 0.71800  0.12000  0.64300  Biso   1.000  C
  C128     1.0000 0.78200  0.88000  0.64300  Biso   1.000  C
  H105     1.0000 0.15350  0.39230  0.13950  Biso   1.000  H
  H106     1.0000 0.34650  0.60770  0.13950  Biso   1.000  H
  H107     1.0000 0.34650  0.89230  0.36050  Biso   1.000  H
  H108     1.0000 0.15350  0.10770  0.36050  Biso   1.000  H
  H109     1.0000 0.84650  0.60770  0.86050  Biso   1.000  H
  H110     1.0000 0.65350  0.39230  0.86050  Biso   1.000  H
  H111     1.0000 0.65350  0.10770  0.63950  Biso   1.000  H
  H112     1.0000 0.84650  0.89230  0.63950  Biso   1.000  H
  C129     1.0000 0.27700  0.38900  0.09400  Biso   1.000  C
  C130     1.0000 0.22300  0.61100  0.09400  Biso   1.000  C
  C131     1.0000 0.22300  0.88900  0.40600  Biso   1.000  C
  C132     1.0000 0.27700  0.11100  0.40600  Biso   1.000  C
  C133     1.0000 0.72300  0.61100  0.90600  Biso   1.000  C
  C134     1.0000 0.77700  0.38900  0.90600  Biso   1.000  C
  C135     1.0000 0.77700  0.11100  0.59400  Biso   1.000  C
  C136     1.0000 0.72300  0.88900  0.59400  Biso   1.000  C
  H113     1.0000 0.25040  0.40580  0.05800  Biso   1.000  H
  H114     1.0000 0.24960  0.59420  0.05800  Biso   1.000  H
  H115     1.0000 0.24960  0.90580  0.44200  Biso   1.000  H
  H116     1.0000 0.25040  0.09420  0.44200  Biso   1.000  H
  H117     1.0000 0.74960  0.59420  0.94200  Biso   1.000  H
  H118     1.0000 0.75040  0.40580  0.94200  Biso   1.000  H
  H119     1.0000 0.75040  0.09420  0.55800  Biso   1.000  H
  H120     1.0000 0.74960  0.90580  0.55800  Biso   1.000  H
  F1       1.0000 0.96000  0.19700  0.40810  Biso   1.000  F
  F2       1.0000 0.54000  0.80300  0.40810  Biso   1.000  F
  F3       1.0000 0.54000  0.69700  0.09190  Biso   1.000  F
  F4       1.0000 0.96000  0.30300  0.09190  Biso   1.000  F
  F5       1.0000 0.04000  0.80300  0.59190  Biso   1.000  F
  F6       1.0000 0.46000  0.19700  0.59190  Biso   1.000  F
  F7       1.0000 0.46000  0.30300  0.90810  Biso   1.000  F
  F8       1.0000 0.04000  0.69700  0.90810  Biso   1.000  F
  F9       1.0000 0.84800  0.08200  0.31490  Biso   1.000  F
  F10      1.0000 0.65200  0.91800  0.31490  Biso   1.000  F
  F11      1.0000 0.65200  0.58200  0.18510  Biso   1.000  F
  F12      1.0000 0.84800  0.41800  0.18510  Biso   1.000  F
  F13      1.0000 0.15200  0.91800  0.68510  Biso   1.000  F
  F14      1.0000 0.34800  0.08200  0.68510  Biso   1.000  F
  F15      1.0000 0.34800  0.41800  0.81490  Biso   1.000  F
  F16      1.0000 0.15200  0.58200  0.81490  Biso   1.000  F
  F17      1.0000 0.85020  0.22810  0.34460  Biso   1.000  F
  F18      1.0000 0.64980  0.77190  0.34460  Biso   1.000  F
  F19      1.0000 0.64980  0.72810  0.15540  Biso   1.000  F
  F20      1.0000 0.85020  0.27190  0.15540  Biso   1.000  F
  F21      1.0000 0.14980  0.77190  0.65540  Biso   1.000  F
  F22      1.0000 0.35020  0.22810  0.65540  Biso   1.000  F
  F23      1.0000 0.35020  0.27190  0.84460  Biso   1.000  F
  F24      1.0000 0.14980  0.72810  0.84460  Biso   1.000  F
  F25      1.0000 0.82300  0.12100  0.41090  Biso   1.000  F
  F26      1.0000 0.67700  0.87900  0.41090  Biso   1.000  F
  F27      1.0000 0.67700  0.62100  0.08910  Biso   1.000  F
  F28      1.0000 0.82300  0.37900  0.08910  Biso   1.000  F
  F29      1.0000 0.17700  0.87900  0.58910  Biso   1.000  F
  F30      1.0000 0.32300  0.12100  0.58910  Biso   1.000  F
  F31      1.0000 0.32300  0.37900  0.91090  Biso   1.000  F
  F32      1.0000 0.17700  0.62100  0.91090  Biso   1.000  F
  F33      1.0000 0.95800  0.05200  0.38300  Biso   1.000  F
  F34      1.0000 0.54200  0.94800  0.38300  Biso   1.000  F
  F35      1.0000 0.54200  0.55200  0.11700  Biso   1.000  F
  F36      1.0000 0.95800  0.44800  0.11700  Biso   1.000  F
  F37      1.0000 0.04200  0.94800  0.61700  Biso   1.000  F
  F38      1.0000 0.45800  0.05200  0.61700  Biso   1.000  F
  F39      1.0000 0.45800  0.44800  0.88300  Biso   1.000  F
  F40      1.0000 0.04200  0.55200  0.88300  Biso   1.000  F
  F41      1.0000 0.98100  0.15900  0.31500  Biso   1.000  F
  F42      1.0000 0.51900  0.84100  0.31500  Biso   1.000  F
  F43      1.0000 0.51900  0.65900  0.18500  Biso   1.000  F
  F44      1.0000 0.98100  0.34100  0.18500  Biso   1.000  F
  F45      1.0000 0.01900  0.84100  0.68500  Biso   1.000  F
  F46      1.0000 0.48100  0.15900  0.68500  Biso   1.000  F
  F47      1.0000 0.48100  0.34100  0.81500  Biso   1.000  F
  F48      1.0000 0.01900  0.65900  0.81500  Biso   1.000  F
  P1       1.0000 0.90110  0.13250  0.36388  Biso   1.000  P
  P2       1.0000 0.59890  0.86750  0.36388  Biso   1.000  P
  P3       1.0000 0.59890  0.63250  0.13612  Biso   1.000  P
  P4       1.0000 0.90110  0.36750  0.13612  Biso   1.000  P
  P5       1.0000 0.09890  0.86750  0.63612  Biso   1.000  P
  P6       1.0000 0.40110  0.13250  0.63612  Biso   1.000  P
  P7       1.0000 0.40110  0.36750  0.86388  Biso   1.000  P
  P8       1.0000 0.09890  0.63250  0.86388  Biso   1.000  P
  C137     1.0000 0.28900  0.38500  0.06800  Biso   1.000  C
  C138     1.0000 0.21100  0.61500  0.06800  Biso   1.000  C
  C139     1.0000 0.21100  0.88500  0.43200  Biso   1.000  C
  C140     1.0000 0.28900  0.11500  0.43200  Biso   1.000  C
  C141     1.0000 0.71100  0.61500  0.93200  Biso   1.000  C
  C142     1.0000 0.78900  0.38500  0.93200  Biso   1.000  C
  C143     1.0000 0.78900  0.11500  0.56800  Biso   1.000  C
  C144     1.0000 0.71100  0.88500  0.56800  Biso   1.000  C
  H121     1.0000 0.28740  0.38950  0.02650  Biso   1.000  H
  H122     1.0000 0.21260  0.61050  0.02650  Biso   1.000  H
  H123     1.0000 0.21260  0.88950  0.47350  Biso   1.000  H
  H124     1.0000 0.28740  0.11050  0.47350  Biso   1.000  H
  H125     1.0000 0.71260  0.61050  0.97350  Biso   1.000  H
  H126     1.0000 0.78740  0.38950  0.97350  Biso   1.000  H
  H127     1.0000 0.78740  0.11050  0.52650  Biso   1.000  H
  H128     1.0000 0.71260  0.88950  0.52650  Biso   1.000  H
  C145     1.0000 0.20500  0.38900  0.10100  Biso   1.000  C
  C146     1.0000 0.29500  0.61100  0.10100  Biso   1.000  C
  C147     1.0000 0.29500  0.88900  0.39900  Biso   1.000  C
  C148     1.0000 0.20500  0.11100  0.39900  Biso   1.000  C
  C149     1.0000 0.79500  0.61100  0.89900  Biso   1.000  C
  C150     1.0000 0.70500  0.38900  0.89900  Biso   1.000  C
  C151     1.0000 0.70500  0.11100  0.60100  Biso   1.000  C
  C152     1.0000 0.79500  0.88900  0.60100  Biso   1.000  C
  H129     1.0000 0.14720  0.39990  0.08280  Biso   1.000  H
  H130     1.0000 0.35280  0.60010  0.08280  Biso   1.000  H
  H131     1.0000 0.35280  0.89990  0.41720  Biso   1.000  H
  H132     1.0000 0.14720  0.10010  0.41720  Biso   1.000  H
  H133     1.0000 0.85280  0.60010  0.91720  Biso   1.000  H
  H134     1.0000 0.64720  0.39990  0.91720  Biso   1.000  H
  H135     1.0000 0.64720  0.10010  0.58280  Biso   1.000  H
  H136     1.0000 0.85280  0.89990  0.58280  Biso   1.000  H
  C153     1.0000 0.21100  0.37600  0.16200  Biso   1.000  C
  C154     1.0000 0.28900  0.62400  0.16200  Biso   1.000  C
  C155     1.0000 0.28900  0.87600  0.33800  Biso   1.000  C
  C156     1.0000 0.21100  0.12400  0.33800  Biso   1.000  C
  C157     1.0000 0.78900  0.62400  0.83800  Biso   1.000  C
  C158     1.0000 0.71100  0.37600  0.83800  Biso   1.000  C
  C159     1.0000 0.71100  0.12400  0.66200  Biso   1.000  C
  C160     1.0000 0.78900  0.87600  0.66200  Biso   1.000  C
  H137     1.0000 0.15560  0.37190  0.18420  Biso   1.000  H
  H138     1.0000 0.34440  0.62810  0.18420  Biso   1.000  H
  H139     1.0000 0.34440  0.87190  0.31580  Biso   1.000  H
  H140     1.0000 0.15560  0.12810  0.31580  Biso   1.000  H
  H141     1.0000 0.84440  0.62810  0.81580  Biso   1.000  H
  H142     1.0000 0.65560  0.37190  0.81580  Biso   1.000  H
  H143     1.0000 0.65560  0.12810  0.68420  Biso   1.000  H
  H144     1.0000 0.84440  0.87190  0.68420  Biso   1.000  H
  C161     1.0000 0.29900  0.37000  0.19100  Biso   1.000  C
  C162     1.0000 0.20100  0.63000  0.19100  Biso   1.000  C
  C163     1.0000 0.20100  0.87000  0.30900  Biso   1.000  C
  C164     1.0000 0.29900  0.13000  0.30900  Biso   1.000  C
  C165     1.0000 0.70100  0.63000  0.80900  Biso   1.000  C
  C166     1.0000 0.79900  0.37000  0.80900  Biso   1.000  C
  C167     1.0000 0.79900  0.13000  0.69100  Biso   1.000  C
  C168     1.0000 0.70100  0.87000  0.69100  Biso   1.000  C
  H145     1.0000 0.30110  0.36670  0.23180  Biso   1.000  H
  H146     1.0000 0.19890  0.63330  0.23180  Biso   1.000  H
  H147     1.0000 0.19890  0.86670  0.26820  Biso   1.000  H
  H148     1.0000 0.30110  0.13330  0.26820  Biso   1.000  H
  H149     1.0000 0.69890  0.63330  0.76820  Biso   1.000  H
  H150     1.0000 0.80110  0.36670  0.76820  Biso   1.000  H
  H151     1.0000 0.80110  0.13330  0.73180  Biso   1.000  H
  H152     1.0000 0.69890  0.86670  0.73180  Biso   1.000  H
  C169     1.0000 0.38300  0.36800  0.15800  Biso   1.000  C
  C170     1.0000 0.11700  0.63200  0.15800  Biso   1.000  C
  C171     1.0000 0.11700  0.86800  0.34200  Biso   1.000  C
  C172     1.0000 0.38300  0.13200  0.34200  Biso   1.000  C
  C173     1.0000 0.61700  0.63200  0.84200  Biso   1.000  C
  C174     1.0000 0.88300  0.36800  0.84200  Biso   1.000  C
  C175     1.0000 0.88300  0.13200  0.65800  Biso   1.000  C
  C176     1.0000 0.61700  0.86800  0.65800  Biso   1.000  C
  H153     1.0000 0.44140  0.36270  0.17610  Biso   1.000  H
  H154     1.0000 0.05860  0.63730  0.17610  Biso   1.000  H
  H155     1.0000 0.05860  0.86270  0.32390  Biso   1.000  H
  H156     1.0000 0.44140  0.13730  0.32390  Biso   1.000  H
  H157     1.0000 0.55860  0.63730  0.82390  Biso   1.000  H
  H158     1.0000 0.94140  0.36270  0.82390  Biso   1.000  H
  H159     1.0000 0.94140  0.13730  0.67610  Biso   1.000  H
  H160     1.0000 0.55860  0.86270  0.67610  Biso   1.000  H
  F49      1.0000 0.86700  0.21300  0.39700  Biso   1.000  F
  F50      1.0000 0.63300  0.78700  0.39700  Biso   1.000  F
  F51      1.0000 0.63300  0.71300  0.10300  Biso   1.000  F
  F52      1.0000 0.86700  0.28700  0.10300  Biso   1.000  F
  F53      1.0000 0.13300  0.78700  0.60300  Biso   1.000  F
  F54      1.0000 0.36700  0.21300  0.60300  Biso   1.000  F
  F55      1.0000 0.36700  0.28700  0.89700  Biso   1.000  F
  F56      1.0000 0.13300  0.71300  0.89700  Biso   1.000  F
  F57      1.0000 0.94100  0.04500  0.33400  Biso   1.000  F
  F58      1.0000 0.55900  0.95500  0.33400  Biso   1.000  F
  F59      1.0000 0.55900  0.54500  0.16600  Biso   1.000  F
  F60      1.0000 0.94100  0.45500  0.16600  Biso   1.000  F
  F61      1.0000 0.05900  0.95500  0.66600  Biso   1.000  F
  F62      1.0000 0.44100  0.04500  0.66600  Biso   1.000  F
  F63      1.0000 0.44100  0.45500  0.83400  Biso   1.000  F
  F64      1.0000 0.05900  0.54500  0.83400  Biso   1.000  F
  F65      1.0000 0.94800  0.18900  0.31700  Biso   1.000  F
  F66      1.0000 0.55200  0.81100  0.31700  Biso   1.000  F
  F67      1.0000 0.55200  0.68900  0.18300  Biso   1.000  F
  F68      1.0000 0.94800  0.31100  0.18300  Biso   1.000  F
  F69      1.0000 0.05200  0.81100  0.68300  Biso   1.000  F
  F70      1.0000 0.44800  0.18900  0.68300  Biso   1.000  F
  F71      1.0000 0.44800  0.31100  0.81700  Biso   1.000  F
  F72      1.0000 0.05200  0.68900  0.81700  Biso   1.000  F
  F73      1.0000 0.81000  0.12400  0.32900  Biso   1.000  F
  F74      1.0000 0.69000  0.87600  0.32900  Biso   1.000  F
  F75      1.0000 0.69000  0.62400  0.17100  Biso   1.000  F
  F76      1.0000 0.81000  0.37600  0.17100  Biso   1.000  F
  F77      1.0000 0.19000  0.87600  0.67100  Biso   1.000  F
  F78      1.0000 0.31000  0.12400  0.67100  Biso   1.000  F
  F79      1.0000 0.31000  0.37600  0.82900  Biso   1.000  F
  F80      1.0000 0.19000  0.62400  0.82900  Biso   1.000  F
  F81      1.0000 0.85800  0.06500  0.41170  Biso   1.000  F
  F82      1.0000 0.64200  0.93500  0.41170  Biso   1.000  F
  F83      1.0000 0.64200  0.56500  0.08830  Biso   1.000  F
  F84      1.0000 0.85800  0.43500  0.08830  Biso   1.000  F
  F85      1.0000 0.14200  0.93500  0.58830  Biso   1.000  F
  F86      1.0000 0.35800  0.06500  0.58830  Biso   1.000  F
  F87      1.0000 0.35800  0.43500  0.91170  Biso   1.000  F
  F88      1.0000 0.14200  0.56500  0.91170  Biso   1.000  F
  F89      1.0000 0.99100  0.13200  0.40360  Biso   1.000  F
  F90      1.0000 0.50900  0.86800  0.40360  Biso   1.000  F
  F91      1.0000 0.50900  0.63200  0.09640  Biso   1.000  F
  F92      1.0000 0.99100  0.36800  0.09640  Biso   1.000  F
  F93      1.0000 0.00900  0.86800  0.59640  Biso   1.000  F
  F94      1.0000 0.49100  0.13200  0.59640  Biso   1.000  F
  F95      1.0000 0.49100  0.36800  0.90360  Biso   1.000  F
  F96      1.0000 0.00900  0.63200  0.90360  Biso   1.000  F
  N57      1.0000 0.66300  0.14800  0.21800  Biso   1.000  N
  N58      1.0000 0.83700  0.85200  0.21800  Biso   1.000  N
  N59      1.0000 0.83700  0.64800  0.28200  Biso   1.000  N
  N60      1.0000 0.66300  0.35200  0.28200  Biso   1.000  N
  N61      1.0000 0.33700  0.85200  0.78200  Biso   1.000  N
  N62      1.0000 0.16300  0.14800  0.78200  Biso   1.000  N
  N63      1.0000 0.16300  0.35200  0.71800  Biso   1.000  N
  N64      1.0000 0.33700  0.64800  0.71800  Biso   1.000  N
  C177     1.0000 0.70400  0.08300  0.20200  Biso   1.000  C
  C178     1.0000 0.79600  0.91700  0.20200  Biso   1.000  C
  C179     1.0000 0.79600  0.58300  0.29800  Biso   1.000  C
  C180     1.0000 0.70400  0.41700  0.29800  Biso   1.000  C
  C181     1.0000 0.29600  0.91700  0.79800  Biso   1.000  C
  C182     1.0000 0.20400  0.08300  0.79800  Biso   1.000  C
  C183     1.0000 0.20400  0.41700  0.70200  Biso   1.000  C
  C184     1.0000 0.29600  0.58300  0.70200  Biso   1.000  C
  C185     1.0000 0.75000  0.00000  0.17500  Biso   1.000  C
  C186     1.0000 0.75000  0.50000  0.32500  Biso   1.000  C
  C187     1.0000 0.25000  0.00000  0.82500  Biso   1.000  C
  C188     1.0000 0.25000  0.50000  0.67500  Biso   1.000  C
  H161     1.0000 0.80890  0.98630  0.19420  Biso   1.000  H
  H162     1.0000 0.69110  0.01370  0.19420  Biso   1.000  H
  H163     1.0000 0.69110  0.48630  0.30580  Biso   1.000  H
  H164     1.0000 0.80890  0.51370  0.30580  Biso   1.000  H
  H165     1.0000 0.19110  0.01370  0.80580  Biso   1.000  H
  H166     1.0000 0.30890  0.98630  0.80580  Biso   1.000  H
  H167     1.0000 0.30890  0.51370  0.69420  Biso   1.000  H
  H168     1.0000 0.19110  0.48630  0.69420  Biso   1.000  H
  H169     1.0000 0.76160  0.01160  0.13350  Biso   1.000  H
  H170     1.0000 0.73840  0.98840  0.13350  Biso   1.000  H
  H171     1.0000 0.73840  0.51160  0.36650  Biso   1.000  H
  H172     1.0000 0.76160  0.48840  0.36650  Biso   1.000  H
  H173     1.0000 0.23840  0.98840  0.86650  Biso   1.000  H
  H174     1.0000 0.26160  0.01160  0.86650  Biso   1.000  H
  H175     1.0000 0.26160  0.48840  0.63350  Biso   1.000  H
  H176     1.0000 0.23840  0.51160  0.63350  Biso   1.000  H
  H177     1.0000 0.70760  0.94870  0.17870  Biso   1.000  H
  H178     1.0000 0.79240  0.05130  0.17870  Biso   1.000  H
  H179     1.0000 0.79240  0.44870  0.32130  Biso   1.000  H
  H180     1.0000 0.70760  0.55130  0.32130  Biso   1.000  H
  H181     1.0000 0.29240  0.05130  0.82130  Biso   1.000  H
  H182     1.0000 0.20760  0.94870  0.82130  Biso   1.000  H
  H183     1.0000 0.20760  0.55130  0.67870  Biso   1.000  H
  H184     1.0000 0.29240  0.44870  0.67870  Biso   1.000  H
