data_image0
_cell_length_a       12.01
_cell_length_b       14.654
_cell_length_c       19.456
_cell_angle_alpha    77.18
_cell_angle_beta     80.09
_cell_angle_gamma    81.48

_symmetry_space_group_name_H-M    "P 1"
_symmetry_int_tables_number       1

loop_
  _symmetry_equiv_pos_as_xyz
  'x, y, z'

loop_
  _atom_site_label
  _atom_site_occupancy
  _atom_site_fract_x
  _atom_site_fract_y
  _atom_site_fract_z
  _atom_site_thermal_displace_type
  _atom_site_B_iso_or_equiv
  _atom_site_type_symbol
  Cu1      1.0000 0.56603  0.98142  0.90313  Biso   1.000  Cu
  Cu2      1.0000 0.43397  0.01858  0.09687  Biso   1.000  Cu
  O1       1.0000 0.53340  0.09990  0.93420  Biso   1.000  O
  O2       1.0000 0.46660  0.90010  0.06580  Biso   1.000  O
  C1       1.0000 0.50500  0.26730  0.91770  Biso   1.000  C
  C2       1.0000 0.49500  0.73270  0.08230  Biso   1.000  C
  F1       1.0000 0.57100  0.24830  0.96920  Biso   1.000  F
  F2       1.0000 0.42900  0.75170  0.03080  Biso   1.000  F
  F3       1.0000 0.56060  0.32180  0.86330  Biso   1.000  F
  F4       1.0000 0.43940  0.67820  0.13670  Biso   1.000  F
  F5       1.0000 0.41310  0.31530  0.94190  Biso   1.000  F
  F6       1.0000 0.58690  0.68470  0.05810  Biso   1.000  F
  C3       1.0000 0.48450  0.17740  0.89890  Biso   1.000  C
  C4       1.0000 0.51550  0.82260  0.10110  Biso   1.000  C
  C5       1.0000 0.41670  0.17980  0.84980  Biso   1.000  C
  C6       1.0000 0.58330  0.82020  0.15020  Biso   1.000  C
  C7       1.0000 0.37190  0.27140  0.81150  Biso   1.000  C
  C8       1.0000 0.62810  0.72860  0.18850  Biso   1.000  C
  N1       1.0000 0.34780  0.34670  0.78100  Biso   1.000  N
  N2       1.0000 0.65220  0.65330  0.21900  Biso   1.000  N
  C9       1.0000 0.38710  0.09940  0.83030  Biso   1.000  C
  C10      1.0000 0.61290  0.90060  0.16970  Biso   1.000  C
  N3       1.0000 0.30270  0.10500  0.78930  Biso   1.000  N
  N4       1.0000 0.69730  0.89500  0.21070  Biso   1.000  N
  O3       1.0000 0.23360  0.17810  0.77710  Biso   1.000  O
  O4       1.0000 0.76640  0.82190  0.22290  Biso   1.000  O
  C11      1.0000 0.30140  0.01920  0.76890  Biso   1.000  C
  C12      1.0000 0.69860  0.98080  0.23110  Biso   1.000  C
  C13      1.0000 0.18360  0.99360  0.78220  Biso   1.000  C
  C14      1.0000 0.81640  0.00640  0.21780  Biso   1.000  C
  H1       1.0000 0.13850  0.03750  0.75050  Biso   1.000  H
  H2       1.0000 0.86150  0.96250  0.24950  Biso   1.000  H
  H3       1.0000 0.15130  0.99570  0.83060  Biso   1.000  H
  H4       1.0000 0.84870  0.00430  0.16940  Biso   1.000  H
  H5       1.0000 0.18460  0.93120  0.77410  Biso   1.000  H
  H6       1.0000 0.81540  0.06880  0.22590  Biso   1.000  H
  C15      1.0000 0.33500  0.03010  0.69260  Biso   1.000  C
  C16      1.0000 0.66500  0.96990  0.30740  Biso   1.000  C
  H7       1.0000 0.27800  0.07190  0.66850  Biso   1.000  H
  H8       1.0000 0.72200  0.92810  0.33150  Biso   1.000  H
  H9       1.0000 0.34280  0.96980  0.67950  Biso   1.000  H
  H10      1.0000 0.65720  0.03020  0.32050  Biso   1.000  H
  H11      1.0000 0.40640  0.05590  0.67920  Biso   1.000  H
  H12      1.0000 0.59360  0.94410  0.32080  Biso   1.000  H
  C17      1.0000 0.38520  0.95100  0.81750  Biso   1.000  C
  C18      1.0000 0.61480  0.04900  0.18250  Biso   1.000  C
  C19      1.0000 0.31780  0.88910  0.87750  Biso   1.000  C
  C20      1.0000 0.68220  0.11090  0.12250  Biso   1.000  C
  H13      1.0000 0.36860  0.84820  0.90710  Biso   1.000  H
  H14      1.0000 0.63140  0.15180  0.09290  Biso   1.000  H
  H15      1.0000 0.27620  0.85180  0.85830  Biso   1.000  H
  H16      1.0000 0.72380  0.14820  0.14170  Biso   1.000  H
  H17      1.0000 0.26550  0.92760  0.90540  Biso   1.000  H
  H18      1.0000 0.73450  0.07240  0.09460  Biso   1.000  H
  C21      1.0000 0.46870  0.89490  0.77140  Biso   1.000  C
  C22      1.0000 0.53130  0.10510  0.22860  Biso   1.000  C
  H19      1.0000 0.52030  0.85310  0.79990  Biso   1.000  H
  H20      1.0000 0.47970  0.14690  0.20010  Biso   1.000  H
  H21      1.0000 0.51070  0.93690  0.73440  Biso   1.000  H
  H22      1.0000 0.48930  0.06310  0.26560  Biso   1.000  H
  H23      1.0000 0.42830  0.85880  0.75040  Biso   1.000  H
  H24      1.0000 0.57170  0.14120  0.24960  Biso   1.000  H
  N5       1.0000 0.43760  0.01410  0.84700  Biso   1.000  N
  N6       1.0000 0.56240  0.98590  0.15300  Biso   1.000  N
  O5       1.0000 0.59380  0.84770  0.89990  Biso   1.000  O
  O6       1.0000 0.40620  0.15230  0.10010  Biso   1.000  O
  C23      1.0000 0.69070  0.70990  0.87910  Biso   1.000  C
  C24      1.0000 0.30930  0.29010  0.12090  Biso   1.000  C
  F7       1.0000 0.76340  0.64220  0.91180  Biso   1.000  F
  F8       1.0000 0.23660  0.35780  0.08820  Biso   1.000  F
  F9       1.0000 0.60060  0.66540  0.90220  Biso   1.000  F
  F10      1.0000 0.39940  0.33460  0.09780  Biso   1.000  F
  F11      1.0000 0.71820  0.71150  0.81690  Biso   1.000  F
  F12      1.0000 0.28180  0.28850  0.18310  Biso   1.000  F
  C25      1.0000 0.68870  0.79780  0.90490  Biso   1.000  C
  C26      1.0000 0.31130  0.20220  0.09510  Biso   1.000  C
  C27      1.0000 0.78070  0.82230  0.92730  Biso   1.000  C
  C28      1.0000 0.21930  0.17770  0.07270  Biso   1.000  C
  H25      1.0000 0.85500  0.77300  0.91700  Biso   1.000  H
  H26      1.0000 0.14500  0.22700  0.08300  Biso   1.000  H
  C29      1.0000 0.77550  0.90010  0.95170  Biso   1.000  C
  C30      1.0000 0.22450  0.09990  0.04830  Biso   1.000  C
  C31      1.0000 0.87770  0.92490  0.97630  Biso   1.000  C
  C32      1.0000 0.12230  0.07510  0.02370  Biso   1.000  C
  F13      1.0000 0.90140  0.00900  0.95340  Biso   1.000  F
  F14      1.0000 0.09860  0.99100  0.04660  Biso   1.000  F
  F15      1.0000 0.97060  0.86680  0.95980  Biso   1.000  F
  F16      1.0000 0.02940  0.13320  0.04020  Biso   1.000  F
  F17      1.0000 0.86690  0.90990  0.04690  Biso   1.000  F
  F18      1.0000 0.13310  0.09010  0.95310  Biso   1.000  F
  O7       1.0000 0.69450  0.96190  0.95980  Biso   1.000  O
  O8       1.0000 0.30550  0.03810  0.04020  Biso   1.000  O
  Cu3      1.0000 0.98427  0.14122  0.53772  Biso   1.000  Cu
  Cu4      1.0000 0.01573  0.85878  0.46228  Biso   1.000  Cu
  O9       1.0000 0.96740  0.02180  0.60310  Biso   1.000  O
  O10      1.0000 0.03260  0.97820  0.39690  Biso   1.000  O
  C33      1.0000 0.93270  0.91400  0.70940  Biso   1.000  C
  C34      1.0000 0.06730  0.08600  0.29060  Biso   1.000  C
  F19      1.0000 0.95370  0.92470  0.77150  Biso   1.000  F
  F20      1.0000 0.04630  0.07530  0.22850  Biso   1.000  F
  F21      1.0000 0.84680  0.86160  0.72380  Biso   1.000  F
  F22      1.0000 0.15320  0.13840  0.27620  Biso   1.000  F
  F23      1.0000 0.02160  0.86440  0.68090  Biso   1.000  F
  F24      1.0000 0.97840  0.13560  0.31910  Biso   1.000  F
  C35      1.0000 0.90160  0.01270  0.65770  Biso   1.000  C
  C36      1.0000 0.09840  0.98730  0.34230  Biso   1.000  C
  C37      1.0000 0.81060  0.06730  0.68300  Biso   1.000  C
  C38      1.0000 0.18940  0.93270  0.31700  Biso   1.000  C
  C39      1.0000 0.74560  0.04520  0.74950  Biso   1.000  C
  C40      1.0000 0.25440  0.95480  0.25050  Biso   1.000  C
  N7       1.0000 0.69910  0.02080  0.80590  Biso   1.000  N
  N8       1.0000 0.30090  0.97920  0.19410  Biso   1.000  N
  C41      1.0000 0.77730  0.15640  0.63510  Biso   1.000  C
  C42      1.0000 0.22270  0.84360  0.36490  Biso   1.000  C
  N9       1.0000 0.67550  0.20940  0.65290  Biso   1.000  N
  N10      1.0000 0.32450  0.79060  0.34710  Biso   1.000  N
  O11      1.0000 0.60640  0.19000  0.70730  Biso   1.000  O
  O12      1.0000 0.39360  0.81000  0.29270  Biso   1.000  O
  C43      1.0000 0.64800  0.28840  0.59660  Biso   1.000  C
  C44      1.0000 0.35200  0.71160  0.40340  Biso   1.000  C
  C45      1.0000 0.55580  0.24990  0.56600  Biso   1.000  C
  C46      1.0000 0.44420  0.75010  0.43400  Biso   1.000  C
  H27      1.0000 0.48520  0.25250  0.59760  Biso   1.000  H
  H28      1.0000 0.51480  0.74750  0.40240  Biso   1.000  H
  H29      1.0000 0.58060  0.18580  0.56150  Biso   1.000  H
  H30      1.0000 0.41940  0.81420  0.43850  Biso   1.000  H
  H31      1.0000 0.54520  0.28770  0.52000  Biso   1.000  H
  H32      1.0000 0.45480  0.71230  0.48000  Biso   1.000  H
  C47      1.0000 0.59580  0.36950  0.61770  Biso   1.000  C
  C48      1.0000 0.40420  0.63050  0.38230  Biso   1.000  C
  H33      1.0000 0.52490  0.35730  0.64750  Biso   1.000  H
  H34      1.0000 0.47510  0.64270  0.35250  Biso   1.000  H
  H35      1.0000 0.58170  0.41720  0.57650  Biso   1.000  H
  H36      1.0000 0.41830  0.58280  0.42350  Biso   1.000  H
  H37      1.0000 0.64410  0.39100  0.64380  Biso   1.000  H
  H38      1.0000 0.35590  0.60900  0.35620  Biso   1.000  H
  C49      1.0000 0.76140  0.28780  0.54760  Biso   1.000  C
  C50      1.0000 0.23860  0.71220  0.45240  Biso   1.000  C
  C51      1.0000 0.74900  0.29610  0.47080  Biso   1.000  C
  C52      1.0000 0.25100  0.70390  0.52920  Biso   1.000  C
  H39      1.0000 0.82300  0.29420  0.44260  Biso   1.000  H
  H40      1.0000 0.17700  0.70580  0.55740  Biso   1.000  H
  H41      1.0000 0.70480  0.35470  0.45450  Biso   1.000  H
  H42      1.0000 0.29520  0.64530  0.54550  Biso   1.000  H
  H43      1.0000 0.71140  0.24480  0.46630  Biso   1.000  H
  H44      1.0000 0.28860  0.75520  0.53370  Biso   1.000  H
  C53      1.0000 0.82770  0.36380  0.55650  Biso   1.000  C
  C54      1.0000 0.17230  0.63620  0.44350  Biso   1.000  C
  H45      1.0000 0.89960  0.36160  0.52610  Biso   1.000  H
  H46      1.0000 0.10040  0.63840  0.47390  Biso   1.000  H
  H47      1.0000 0.84020  0.35350  0.60520  Biso   1.000  H
  H48      1.0000 0.15980  0.64650  0.39480  Biso   1.000  H
  H49      1.0000 0.78520  0.42440  0.54390  Biso   1.000  H
  H50      1.0000 0.21480  0.57560  0.45610  Biso   1.000  H
  N11      1.0000 0.83040  0.19380  0.57350  Biso   1.000  N
  N12      1.0000 0.16960  0.80620  0.42650  Biso   1.000  N
  O13      1.0000 0.13400  0.07930  0.50730  Biso   1.000  O
  O14      1.0000 0.86600  0.92070  0.49270  Biso   1.000  O
  C55      1.0000 0.33100  0.06670  0.46730  Biso   1.000  C
  C56      1.0000 0.66900  0.93330  0.53270  Biso   1.000  C
  F25      1.0000 0.34570  0.00970  0.51390  Biso   1.000  F
  F26      1.0000 0.65430  0.99030  0.48610  Biso   1.000  F
  F27      1.0000 0.34190  0.00810  0.41940  Biso   1.000  F
  F28      1.0000 0.65810  0.99190  0.58060  Biso   1.000  F
  F29      1.0000 0.40640  0.10550  0.43520  Biso   1.000  F
  F30      1.0000 0.59360  0.89450  0.56480  Biso   1.000  F
  C57      1.0000 0.20810  0.11680  0.46070  Biso   1.000  C
  C58      1.0000 0.79190  0.88320  0.53930  Biso   1.000  C
  C59      1.0000 0.19610  0.20660  0.41660  Biso   1.000  C
  C60      1.0000 0.80390  0.79340  0.58340  Biso   1.000  C
  H51      1.0000 0.25700  0.21400  0.39100  Biso   1.000  H
  H52      1.0000 0.74300  0.78600  0.60900  Biso   1.000  H
  C61      1.0000 0.09670  0.25990  0.41650  Biso   1.000  C
  C62      1.0000 0.90330  0.74010  0.58350  Biso   1.000  C
  C63      1.0000 0.08490  0.35080  0.36020  Biso   1.000  C
  C64      1.0000 0.91510  0.64920  0.63980  Biso   1.000  C
  F31      1.0000 0.04360  0.42150  0.38840  Biso   1.000  F
  F32      1.0000 0.95640  0.57850  0.61160  Biso   1.000  F
  F33      1.0000 0.17700  0.37280  0.32260  Biso   1.000  F
  F34      1.0000 0.82300  0.62720  0.67740  Biso   1.000  F
  F35      1.0000 0.02010  0.34740  0.31690  Biso   1.000  F
  F36      1.0000 0.97990  0.65260  0.68310  Biso   1.000  F
  O15      1.0000 0.00750  0.24330  0.45410  Biso   1.000  O
  O16      1.0000 0.99250  0.75670  0.54590  Biso   1.000  O
  Cu5      1.0000 0.22199  0.47331  0.74214  Biso   1.000  Cu
  Cu6      1.0000 0.77801  0.52669  0.25786  Biso   1.000  Cu
  O17      1.0000 0.23670  0.44900  0.64900  Biso   1.000  O
  O18      1.0000 0.76330  0.55100  0.35100  Biso   1.000  O
  C65      1.0000 0.24490  0.36920  0.55590  Biso   1.000  C
  C66      1.0000 0.75510  0.63080  0.44410  Biso   1.000  C
  F37      1.0000 0.16710  0.39160  0.51060  Biso   1.000  F
  F38      1.0000 0.83290  0.60840  0.48940  Biso   1.000  F
  F39      1.0000 0.29320  0.28410  0.55340  Biso   1.000  F
  F40      1.0000 0.70680  0.71590  0.44660  Biso   1.000  F
  F41      1.0000 0.32810  0.42550  0.52490  Biso   1.000  F
  F42      1.0000 0.67190  0.57450  0.47510  Biso   1.000  F
  C67      1.0000 0.20000  0.38610  0.62880  Biso   1.000  C
  C68      1.0000 0.80000  0.61390  0.37120  Biso   1.000  C
  C69      1.0000 0.11650  0.33030  0.66980  Biso   1.000  C
  C70      1.0000 0.88350  0.66970  0.33020  Biso   1.000  C
  C71      1.0000 0.08430  0.26020  0.63930  Biso   1.000  C
  C72      1.0000 0.91570  0.73980  0.36070  Biso   1.000  C
  N13      1.0000 0.06150  0.20540  0.61170  Biso   1.000  N
  N14      1.0000 0.93850  0.79460  0.38830  Biso   1.000  N
  C73      1.0000 0.06170  0.34930  0.73950  Biso   1.000  C
  C74      1.0000 0.93830  0.65070  0.26050  Biso   1.000  C
  N15      1.0000 0.97040  0.29810  0.77330  Biso   1.000  N
  N16      1.0000 0.02960  0.70190  0.22670  Biso   1.000  N
  O19      1.0000 0.93300  0.23880  0.74880  Biso   1.000  O
  O20      1.0000 0.06700  0.76120  0.25120  Biso   1.000  O
  C75      1.0000 0.91380  0.34370  0.83130  Biso   1.000  C
  C76      1.0000 0.08620  0.65630  0.16870  Biso   1.000  C
  C77      1.0000 0.86940  0.26550  0.89510  Biso   1.000  C
  C78      1.0000 0.13060  0.73450  0.10490  Biso   1.000  C
  H53      1.0000 0.93300  0.22560  0.91350  Biso   1.000  H
  H54      1.0000 0.06700  0.77440  0.08650  Biso   1.000  H
  H55      1.0000 0.82360  0.22840  0.87880  Biso   1.000  H
  H56      1.0000 0.17640  0.77160  0.12120  Biso   1.000  H
  H57      1.0000 0.82450  0.29450  0.93200  Biso   1.000  H
  H58      1.0000 0.17550  0.70550  0.06800  Biso   1.000  H
  C79      1.0000 0.80670  0.40420  0.80070  Biso   1.000  C
  C80      1.0000 0.19330  0.59580  0.19930  Biso   1.000  C
  H59      1.0000 0.83130  0.45340  0.76190  Biso   1.000  H
  H60      1.0000 0.16870  0.54660  0.23810  Biso   1.000  H
  H61      1.0000 0.75890  0.43160  0.83760  Biso   1.000  H
  H62      1.0000 0.24110  0.56840  0.16240  Biso   1.000  H
  H63      1.0000 0.76480  0.36460  0.78420  Biso   1.000  H
  H64      1.0000 0.23520  0.63540  0.21580  Biso   1.000  H
  C81      1.0000 0.00410  0.39700  0.84280  Biso   1.000  C
  C82      1.0000 0.99590  0.60300  0.15720  Biso   1.000  C
  C83      1.0000 0.07870  0.34030  0.89710  Biso   1.000  C
  C84      1.0000 0.92130  0.65970  0.10290  Biso   1.000  C
  H65      1.0000 0.10420  0.27920  0.88620  Biso   1.000  H
  H66      1.0000 0.89580  0.72080  0.11380  Biso   1.000  H
  H67      1.0000 0.03560  0.33350  0.94400  Biso   1.000  H
  H68      1.0000 0.96440  0.66650  0.05600  Biso   1.000  H
  H69      1.0000 0.14340  0.37270  0.89540  Biso   1.000  H
  H70      1.0000 0.85660  0.62730  0.10460  Biso   1.000  H
  C85      1.0000 0.95690  0.49150  0.86260  Biso   1.000  C
  C86      1.0000 0.04310  0.50850  0.13740  Biso   1.000  C
  H71      1.0000 0.90820  0.52610  0.82910  Biso   1.000  H
  H72      1.0000 0.09180  0.47390  0.17090  Biso   1.000  H
  H73      1.0000 0.01860  0.52680  0.86180  Biso   1.000  H
  H74      1.0000 0.98140  0.47320  0.13820  Biso   1.000  H
  H75      1.0000 0.91410  0.48120  0.90960  Biso   1.000  H
  H76      1.0000 0.08590  0.51880  0.09040  Biso   1.000  H
  N17      1.0000 0.08440  0.40880  0.77260  Biso   1.000  N
  N18      1.0000 0.91560  0.59120  0.22740  Biso   1.000  N
  O21      1.0000 0.34260  0.55300  0.69640  Biso   1.000  O
  O22      1.0000 0.65740  0.44700  0.30360  Biso   1.000  O
  C87      1.0000 0.49290  0.63680  0.67740  Biso   1.000  C
  C88      1.0000 0.50710  0.36320  0.32260  Biso   1.000  C
  F43      1.0000 0.47940  0.71770  0.66890  Biso   1.000  F
  F44      1.0000 0.52060  0.28230  0.33110  Biso   1.000  F
  F45      1.0000 0.52980  0.61360  0.62590  Biso   1.000  F
  F46      1.0000 0.47020  0.38640  0.37410  Biso   1.000  F
  F47      1.0000 0.57440  0.63880  0.71040  Biso   1.000  F
  F48      1.0000 0.42560  0.36120  0.28960  Biso   1.000  F
  C89      1.0000 0.39130  0.59200  0.72930  Biso   1.000  C
  C90      1.0000 0.60870  0.40800  0.27070  Biso   1.000  C
  C91      1.0000 0.37650  0.60270  0.79810  Biso   1.000  C
  C92      1.0000 0.62350  0.39730  0.20190  Biso   1.000  C
  H77      1.0000 0.46200  0.61900  0.81500  Biso   1.000  H
  H78      1.0000 0.53800  0.38100  0.18500  Biso   1.000  H
  C93      1.0000 0.28020  0.56550  0.83980  Biso   1.000  C
  C94      1.0000 0.71980  0.43450  0.16020  Biso   1.000  C
  C95      1.0000 0.23800  0.58310  0.91580  Biso   1.000  C
  C96      1.0000 0.76200  0.41690  0.08420  Biso   1.000  C
  F49      1.0000 0.33340  0.61150  0.93630  Biso   1.000  F
  F50      1.0000 0.66660  0.38850  0.06370  Biso   1.000  F
  F51      1.0000 0.22420  0.51780  0.96420  Biso   1.000  F
  F52      1.0000 0.77580  0.48220  0.03580  Biso   1.000  F
  F53      1.0000 0.18590  0.65560  0.92190  Biso   1.000  F
  F54      1.0000 0.81410  0.34440  0.07810  Biso   1.000  F
  O23      1.0000 0.21110  0.52420  0.82400  Biso   1.000  O
  O24      1.0000 0.78890  0.47580  0.17600  Biso   1.000  O
