data_image0
_cell_length_a       17.56
_cell_length_b       16.463
_cell_length_c       16.112
_cell_angle_alpha    90
_cell_angle_beta     103.279
_cell_angle_gamma    90

_symmetry_space_group_name_H-M    "P 1"
_symmetry_int_tables_number       1

loop_
  _symmetry_equiv_pos_as_xyz
  'x, y, z'

loop_
  _atom_site_label
  _atom_site_occupancy
  _atom_site_fract_x
  _atom_site_fract_y
  _atom_site_fract_z
  _atom_site_thermal_displace_type
  _atom_site_B_iso_or_equiv
  _atom_site_type_symbol
  Cu1      1.0000 0.90360  0.19679  0.34758  Biso   1.000  Cu
  Cu2      1.0000 0.90360  0.30321  0.84758  Biso   1.000  Cu
  Cu3      1.0000 0.09640  0.80321  0.65242  Biso   1.000  Cu
  Cu4      1.0000 0.09640  0.69679  0.15242  Biso   1.000  Cu
  O1       1.0000 0.82760  0.14040  0.26090  Biso   1.000  O
  O2       1.0000 0.82760  0.35960  0.76090  Biso   1.000  O
  O3       1.0000 0.17240  0.85960  0.73910  Biso   1.000  O
  O4       1.0000 0.17240  0.64040  0.23910  Biso   1.000  O
  C1       1.0000 0.77830  0.07530  0.13200  Biso   1.000  C
  C2       1.0000 0.77830  0.42470  0.63200  Biso   1.000  C
  C3       1.0000 0.22170  0.92470  0.86800  Biso   1.000  C
  C4       1.0000 0.22170  0.57530  0.36800  Biso   1.000  C
  F1       1.0000 0.71750  0.05000  0.15740  Biso   1.000  F
  F2       1.0000 0.71750  0.45000  0.65740  Biso   1.000  F
  F3       1.0000 0.28250  0.95000  0.84260  Biso   1.000  F
  F4       1.0000 0.28250  0.55000  0.34260  Biso   1.000  F
  F5       1.0000 0.75980  0.13810  0.08470  Biso   1.000  F
  F6       1.0000 0.75980  0.36190  0.58470  Biso   1.000  F
  F7       1.0000 0.24020  0.86190  0.91530  Biso   1.000  F
  F8       1.0000 0.24020  0.63810  0.41530  Biso   1.000  F
  F9       1.0000 0.79450  0.01690  0.08410  Biso   1.000  F
  F10      1.0000 0.79450  0.48310  0.58410  Biso   1.000  F
  F11      1.0000 0.20550  0.98310  0.91590  Biso   1.000  F
  F12      1.0000 0.20550  0.51690  0.41590  Biso   1.000  F
  C5       1.0000 0.84640  0.09330  0.20790  Biso   1.000  C
  C6       1.0000 0.84640  0.40670  0.70790  Biso   1.000  C
  C7       1.0000 0.15360  0.90670  0.79210  Biso   1.000  C
  C8       1.0000 0.15360  0.59330  0.29210  Biso   1.000  C
  C9       1.0000 0.91820  0.06150  0.21180  Biso   1.000  C
  C10      1.0000 0.91820  0.43850  0.71180  Biso   1.000  C
  C11      1.0000 0.08180  0.93850  0.78820  Biso   1.000  C
  C12      1.0000 0.08180  0.56150  0.28820  Biso   1.000  C
  H1       1.0000 0.92900  0.02900  0.17300  Biso   1.000  H
  H2       1.0000 0.92900  0.47100  0.67300  Biso   1.000  H
  H3       1.0000 0.07100  0.97100  0.82700  Biso   1.000  H
  H4       1.0000 0.07100  0.52900  0.32700  Biso   1.000  H
  C13      1.0000 0.98110  0.07480  0.27930  Biso   1.000  C
  C14      1.0000 0.98110  0.42520  0.77930  Biso   1.000  C
  C15      1.0000 0.01890  0.92520  0.72070  Biso   1.000  C
  C16      1.0000 0.01890  0.57480  0.22070  Biso   1.000  C
  C17      1.0000 0.06130  0.03580  0.27850  Biso   1.000  C
  C18      1.0000 0.06130  0.46420  0.77850  Biso   1.000  C
  C19      1.0000 0.93870  0.96420  0.72150  Biso   1.000  C
  C20      1.0000 0.93870  0.53580  0.22150  Biso   1.000  C
  F13      1.0000 0.05530  0.97590  0.22220  Biso   1.000  F
  F14      1.0000 0.05530  0.52410  0.72220  Biso   1.000  F
  F15      1.0000 0.94470  0.02410  0.77780  Biso   1.000  F
  F16      1.0000 0.94470  0.47590  0.27780  Biso   1.000  F
  F17      1.0000 0.09230  0.00360  0.35380  Biso   1.000  F
  F18      1.0000 0.09230  0.49640  0.85380  Biso   1.000  F
  F19      1.0000 0.90770  0.99640  0.64620  Biso   1.000  F
  F20      1.0000 0.90770  0.50360  0.14620  Biso   1.000  F
  F21      1.0000 0.10950  0.08960  0.26200  Biso   1.000  F
  F22      1.0000 0.10950  0.41040  0.76200  Biso   1.000  F
  F23      1.0000 0.89050  0.91040  0.73800  Biso   1.000  F
  F24      1.0000 0.89050  0.58960  0.23800  Biso   1.000  F
  O5       1.0000 0.98400  0.11720  0.34340  Biso   1.000  O
  O6       1.0000 0.98400  0.38280  0.84340  Biso   1.000  O
  O7       1.0000 0.01600  0.88280  0.65660  Biso   1.000  O
  O8       1.0000 0.01600  0.61720  0.15660  Biso   1.000  O
  O9       1.0000 0.82770  0.28210  0.34510  Biso   1.000  O
  O10      1.0000 0.82770  0.21790  0.84510  Biso   1.000  O
  O11      1.0000 0.17230  0.71790  0.65490  Biso   1.000  O
  O12      1.0000 0.17230  0.78210  0.15490  Biso   1.000  O
  C21      1.0000 0.77550  0.40940  0.35530  Biso   1.000  C
  C22      1.0000 0.77550  0.09060  0.85530  Biso   1.000  C
  C23      1.0000 0.22450  0.59060  0.64470  Biso   1.000  C
  C24      1.0000 0.22450  0.90940  0.14470  Biso   1.000  C
  F25      1.0000 0.79320  0.48220  0.39200  Biso   1.000  F
  F26      1.0000 0.79320  0.01780  0.89200  Biso   1.000  F
  F27      1.0000 0.20680  0.51780  0.60800  Biso   1.000  F
  F28      1.0000 0.20680  0.98220  0.10800  Biso   1.000  F
  F29      1.0000 0.75470  0.41940  0.27300  Biso   1.000  F
  F30      1.0000 0.75470  0.08060  0.77300  Biso   1.000  F
  F31      1.0000 0.24530  0.58060  0.72700  Biso   1.000  F
  F32      1.0000 0.24530  0.91940  0.22700  Biso   1.000  F
  F33      1.0000 0.71390  0.38420  0.38120  Biso   1.000  F
  F34      1.0000 0.71390  0.11580  0.88120  Biso   1.000  F
  F35      1.0000 0.28610  0.61580  0.61880  Biso   1.000  F
  F36      1.0000 0.28610  0.88420  0.11880  Biso   1.000  F
  C25      1.0000 0.84280  0.35070  0.38160  Biso   1.000  C
  C26      1.0000 0.84280  0.14930  0.88160  Biso   1.000  C
  C27      1.0000 0.15720  0.64930  0.61840  Biso   1.000  C
  C28      1.0000 0.15720  0.85070  0.11840  Biso   1.000  C
  C29      1.0000 0.91090  0.37430  0.43590  Biso   1.000  C
  C30      1.0000 0.91090  0.12570  0.93590  Biso   1.000  C
  C31      1.0000 0.08910  0.62570  0.56410  Biso   1.000  C
  C32      1.0000 0.08910  0.87430  0.06410  Biso   1.000  C
  H5       1.0000 0.91430  0.42640  0.45880  Biso   1.000  H
  H6       1.0000 0.91430  0.07360  0.95880  Biso   1.000  H
  H7       1.0000 0.08570  0.57360  0.54120  Biso   1.000  H
  H8       1.0000 0.08570  0.92640  0.04120  Biso   1.000  H
  C33      1.0000 0.97570  0.32280  0.45820  Biso   1.000  C
  C34      1.0000 0.97570  0.17720  0.95820  Biso   1.000  C
  C35      1.0000 0.02430  0.67720  0.54180  Biso   1.000  C
  C36      1.0000 0.02430  0.82280  0.04180  Biso   1.000  C
  C37      1.0000 0.04920  0.35420  0.51460  Biso   1.000  C
  C38      1.0000 0.04920  0.14580  0.01460  Biso   1.000  C
  C39      1.0000 0.95080  0.64580  0.48540  Biso   1.000  C
  C40      1.0000 0.95080  0.85420  0.98540  Biso   1.000  C
  F37      1.0000 0.09090  0.30470  0.56190  Biso   1.000  F
  F38      1.0000 0.09090  0.19530  0.06190  Biso   1.000  F
  F39      1.0000 0.90910  0.69530  0.43810  Biso   1.000  F
  F40      1.0000 0.90910  0.80470  0.93810  Biso   1.000  F
  F41      1.0000 0.03660  0.41590  0.56200  Biso   1.000  F
  F42      1.0000 0.03660  0.08410  0.06200  Biso   1.000  F
  F43      1.0000 0.96340  0.58410  0.43800  Biso   1.000  F
  F44      1.0000 0.96340  0.91590  0.93800  Biso   1.000  F
  F45      1.0000 0.09140  0.39110  0.47010  Biso   1.000  F
  F46      1.0000 0.09140  0.10890  0.97010  Biso   1.000  F
  F47      1.0000 0.90860  0.60890  0.52990  Biso   1.000  F
  F48      1.0000 0.90860  0.89110  0.02990  Biso   1.000  F
  O13      1.0000 0.98020  0.25020  0.43570  Biso   1.000  O
  O14      1.0000 0.98020  0.24980  0.93570  Biso   1.000  O
  O15      1.0000 0.01980  0.74980  0.56430  Biso   1.000  O
  O16      1.0000 0.01980  0.75020  0.06430  Biso   1.000  O
  Cu5      1.0000 0.65859  0.86761  0.34775  Biso   1.000  Cu
  Cu6      1.0000 0.65859  0.63239  0.84775  Biso   1.000  Cu
  Cu7      1.0000 0.34141  0.13239  0.65225  Biso   1.000  Cu
  Cu8      1.0000 0.34141  0.36761  0.15225  Biso   1.000  Cu
  O17      1.0000 0.54880  0.83490  0.37340  Biso   1.000  O
  O18      1.0000 0.54880  0.66510  0.87340  Biso   1.000  O
  O19      1.0000 0.45120  0.16510  0.62660  Biso   1.000  O
  O20      1.0000 0.45120  0.33490  0.12660  Biso   1.000  O
  C41      1.0000 0.42910  0.76830  0.33930  Biso   1.000  C
  C42      1.0000 0.42910  0.73170  0.83930  Biso   1.000  C
  C43      1.0000 0.57090  0.23170  0.66070  Biso   1.000  C
  C44      1.0000 0.57090  0.26830  0.16070  Biso   1.000  C
  F49      1.0000 0.41560  0.79150  0.40960  Biso   1.000  F
  F50      1.0000 0.41560  0.70850  0.90960  Biso   1.000  F
  F51      1.0000 0.58440  0.20850  0.59040  Biso   1.000  F
  F52      1.0000 0.58440  0.29150  0.09040  Biso   1.000  F
  F53      1.0000 0.36200  0.77110  0.28360  Biso   1.000  F
  F54      1.0000 0.36200  0.72890  0.78360  Biso   1.000  F
  F55      1.0000 0.63800  0.22890  0.71640  Biso   1.000  F
  F56      1.0000 0.63800  0.27110  0.21640  Biso   1.000  F
  F57      1.0000 0.44930  0.69480  0.34690  Biso   1.000  F
  F58      1.0000 0.44930  0.80520  0.84690  Biso   1.000  F
  F59      1.0000 0.55070  0.30520  0.65310  Biso   1.000  F
  F60      1.0000 0.55070  0.19480  0.15310  Biso   1.000  F
  C45      1.0000 0.49200  0.82180  0.31230  Biso   1.000  C
  C46      1.0000 0.49200  0.67820  0.81230  Biso   1.000  C
  C47      1.0000 0.50800  0.17820  0.68770  Biso   1.000  C
  C48      1.0000 0.50800  0.32180  0.18770  Biso   1.000  C
  C49      1.0000 0.48200  0.84670  0.22810  Biso   1.000  C
  C50      1.0000 0.48200  0.65330  0.72810  Biso   1.000  C
  C51      1.0000 0.51800  0.15330  0.77190  Biso   1.000  C
  C52      1.0000 0.51800  0.34670  0.27190  Biso   1.000  C
  H9       1.0000 0.43550  0.83420  0.18940  Biso   1.000  H
  H10      1.0000 0.43550  0.66580  0.68940  Biso   1.000  H
  H11      1.0000 0.56450  0.16580  0.81060  Biso   1.000  H
  H12      1.0000 0.56450  0.33420  0.31060  Biso   1.000  H
  C53      1.0000 0.53920  0.88980  0.19980  Biso   1.000  C
  C54      1.0000 0.53920  0.61020  0.69980  Biso   1.000  C
  C55      1.0000 0.46080  0.11020  0.80020  Biso   1.000  C
  C56      1.0000 0.46080  0.38980  0.30020  Biso   1.000  C
  C57      1.0000 0.51800  0.91660  0.10650  Biso   1.000  C
  C58      1.0000 0.51800  0.58340  0.60650  Biso   1.000  C
  C59      1.0000 0.48200  0.08340  0.89350  Biso   1.000  C
  C60      1.0000 0.48200  0.41660  0.39350  Biso   1.000  C
  F61      1.0000 0.45120  0.90000  0.06550  Biso   1.000  F
  F62      1.0000 0.45120  0.60000  0.56550  Biso   1.000  F
  F63      1.0000 0.54880  0.10000  0.93450  Biso   1.000  F
  F64      1.0000 0.54880  0.40000  0.43450  Biso   1.000  F
  F65      1.0000 0.51710  0.99600  0.10440  Biso   1.000  F
  F66      1.0000 0.51710  0.50400  0.60440  Biso   1.000  F
  F67      1.0000 0.48290  0.00400  0.89560  Biso   1.000  F
  F68      1.0000 0.48290  0.49600  0.39560  Biso   1.000  F
  F69      1.0000 0.56760  0.90070  0.06550  Biso   1.000  F
  F70      1.0000 0.56760  0.59930  0.56550  Biso   1.000  F
  F71      1.0000 0.43240  0.09930  0.93450  Biso   1.000  F
  F72      1.0000 0.43240  0.40070  0.43450  Biso   1.000  F
  O21      1.0000 0.60650  0.91030  0.23870  Biso   1.000  O
  O22      1.0000 0.60650  0.58970  0.73870  Biso   1.000  O
  O23      1.0000 0.39350  0.08970  0.76130  Biso   1.000  O
  O24      1.0000 0.39350  0.41030  0.26130  Biso   1.000  O
  O25      1.0000 0.66040  0.76060  0.29150  Biso   1.000  O
  O26      1.0000 0.66040  0.73940  0.79150  Biso   1.000  O
  O27      1.0000 0.33960  0.23940  0.70850  Biso   1.000  O
  O28      1.0000 0.33960  0.26060  0.20850  Biso   1.000  O
  C61      1.0000 0.64560  0.61990  0.27220  Biso   1.000  C
  C62      1.0000 0.64560  0.88010  0.77220  Biso   1.000  C
  C63      1.0000 0.35440  0.38010  0.72780  Biso   1.000  C
  C64      1.0000 0.35440  0.11990  0.22780  Biso   1.000  C
  F73      1.0000 0.58500  0.63440  0.21170  Biso   1.000  F
  F74      1.0000 0.58500  0.86560  0.71170  Biso   1.000  F
  F75      1.0000 0.41500  0.36560  0.78830  Biso   1.000  F
  F76      1.0000 0.41500  0.13440  0.28830  Biso   1.000  F
  F77      1.0000 0.70230  0.60180  0.23850  Biso   1.000  F
  F78      1.0000 0.70230  0.89820  0.73850  Biso   1.000  F
  F79      1.0000 0.29770  0.39820  0.76150  Biso   1.000  F
  F80      1.0000 0.29770  0.10180  0.26150  Biso   1.000  F
  F81      1.0000 0.63060  0.55700  0.31400  Biso   1.000  F
  F82      1.0000 0.63060  0.94300  0.81400  Biso   1.000  F
  F83      1.0000 0.36940  0.44300  0.68600  Biso   1.000  F
  F84      1.0000 0.36940  0.05700  0.18600  Biso   1.000  F
  C65      1.0000 0.66610  0.69560  0.33030  Biso   1.000  C
  C66      1.0000 0.66610  0.80440  0.83030  Biso   1.000  C
  C67      1.0000 0.33390  0.30440  0.66970  Biso   1.000  C
  C68      1.0000 0.33390  0.19560  0.16970  Biso   1.000  C
  C69      1.0000 0.68880  0.68430  0.41730  Biso   1.000  C
  C70      1.0000 0.68880  0.81570  0.91730  Biso   1.000  C
  C71      1.0000 0.31120  0.31570  0.58270  Biso   1.000  C
  C72      1.0000 0.31120  0.18430  0.08270  Biso   1.000  C
  H13      1.0000 0.67700  0.63200  0.44500  Biso   1.000  H
  H14      1.0000 0.67700  0.86800  0.94500  Biso   1.000  H
  H15      1.0000 0.32300  0.36800  0.55500  Biso   1.000  H
  H16      1.0000 0.32300  0.13200  0.05500  Biso   1.000  H
  C73      1.0000 0.71200  0.75020  0.47230  Biso   1.000  C
  C74      1.0000 0.71200  0.74980  0.97230  Biso   1.000  C
  C75      1.0000 0.28800  0.24980  0.52770  Biso   1.000  C
  C76      1.0000 0.28800  0.25020  0.02770  Biso   1.000  C
  C77      1.0000 0.73770  0.73140  0.56580  Biso   1.000  C
  C78      1.0000 0.73770  0.76860  0.06580  Biso   1.000  C
  C79      1.0000 0.26230  0.26860  0.43420  Biso   1.000  C
  C80      1.0000 0.26230  0.23140  0.93420  Biso   1.000  C
  F85      1.0000 0.80790  0.76500  0.59680  Biso   1.000  F
  F86      1.0000 0.80790  0.73500  0.09680  Biso   1.000  F
  F87      1.0000 0.19210  0.23500  0.40320  Biso   1.000  F
  F88      1.0000 0.19210  0.26500  0.90320  Biso   1.000  F
  F89      1.0000 0.69300  0.76400  0.60930  Biso   1.000  F
  F90      1.0000 0.69300  0.73600  0.10930  Biso   1.000  F
  F91      1.0000 0.30700  0.23600  0.39070  Biso   1.000  F
  F92      1.0000 0.30700  0.26400  0.89070  Biso   1.000  F
  F93      1.0000 0.74520  0.65710  0.58860  Biso   1.000  F
  F94      1.0000 0.74520  0.84290  0.08860  Biso   1.000  F
  F95      1.0000 0.25480  0.34290  0.41140  Biso   1.000  F
  F96      1.0000 0.25480  0.15710  0.91140  Biso   1.000  F
  O29      1.0000 0.71320  0.82300  0.45480  Biso   1.000  O
  O30      1.0000 0.71320  0.67700  0.95480  Biso   1.000  O
  O31      1.0000 0.28680  0.17700  0.54520  Biso   1.000  O
  O32      1.0000 0.28680  0.32300  0.04520  Biso   1.000  O
  O33      1.0000 0.85680  0.10650  0.45520  Biso   1.000  O
  O34      1.0000 0.85680  0.39350  0.95520  Biso   1.000  O
  O35      1.0000 0.14320  0.89350  0.54480  Biso   1.000  O
  O36      1.0000 0.14320  0.60650  0.04480  Biso   1.000  O
  N1       1.0000 0.79150  0.06930  0.44160  Biso   1.000  N
  N2       1.0000 0.79150  0.43070  0.94160  Biso   1.000  N
  N3       1.0000 0.20850  0.93070  0.55840  Biso   1.000  N
  N4       1.0000 0.20850  0.56930  0.05840  Biso   1.000  N
  C81      1.0000 0.72110  0.09890  0.47110  Biso   1.000  C
  C82      1.0000 0.72110  0.40110  0.97110  Biso   1.000  C
  C83      1.0000 0.27890  0.90110  0.52890  Biso   1.000  C
  C84      1.0000 0.27890  0.59890  0.02890  Biso   1.000  C
  C85      1.0000 0.73780  0.07230  0.56570  Biso   1.000  C
  C86      1.0000 0.73780  0.42770  0.06570  Biso   1.000  C
  C87      1.0000 0.26220  0.92770  0.43430  Biso   1.000  C
  C88      1.0000 0.26220  0.57230  0.93430  Biso   1.000  C
  H17      1.0000 0.74290  0.01430  0.56920  Biso   1.000  H
  H18      1.0000 0.74290  0.48570  0.06920  Biso   1.000  H
  H19      1.0000 0.25710  0.98570  0.43080  Biso   1.000  H
  H20      1.0000 0.25710  0.51430  0.93080  Biso   1.000  H
  H21      1.0000 0.69540  0.08910  0.59020  Biso   1.000  H
  H22      1.0000 0.69540  0.41090  0.09020  Biso   1.000  H
  H23      1.0000 0.30460  0.91090  0.40980  Biso   1.000  H
  H24      1.0000 0.30460  0.58910  0.90980  Biso   1.000  H
  H25      1.0000 0.78550  0.09710  0.59650  Biso   1.000  H
  H26      1.0000 0.78550  0.40290  0.09650  Biso   1.000  H
  H27      1.0000 0.21450  0.90290  0.40350  Biso   1.000  H
  H28      1.0000 0.21450  0.59710  0.90350  Biso   1.000  H
  C89      1.0000 0.71360  0.18980  0.46260  Biso   1.000  C
  C90      1.0000 0.71360  0.31020  0.96260  Biso   1.000  C
  C91      1.0000 0.28640  0.81020  0.53740  Biso   1.000  C
  C92      1.0000 0.28640  0.68980  0.03740  Biso   1.000  C
  H29      1.0000 0.70400  0.18100  0.39600  Biso   1.000  H
  H30      1.0000 0.70400  0.31900  0.89600  Biso   1.000  H
  H31      1.0000 0.29600  0.81900  0.60400  Biso   1.000  H
  H32      1.0000 0.29600  0.68100  0.10400  Biso   1.000  H
  H33      1.0000 0.75600  0.20900  0.49800  Biso   1.000  H
  H34      1.0000 0.75600  0.29100  0.99800  Biso   1.000  H
  H35      1.0000 0.24400  0.79100  0.50200  Biso   1.000  H
  H36      1.0000 0.24400  0.70900  0.00200  Biso   1.000  H
  H37      1.0000 0.66900  0.20100  0.47500  Biso   1.000  H
  H38      1.0000 0.66900  0.29900  0.97500  Biso   1.000  H
  H39      1.0000 0.33100  0.79900  0.52500  Biso   1.000  H
  H40      1.0000 0.33100  0.70100  0.02500  Biso   1.000  H
  C93      1.0000 0.65740  0.04590  0.41640  Biso   1.000  C
  C94      1.0000 0.65740  0.45410  0.91640  Biso   1.000  C
  C95      1.0000 0.34260  0.95410  0.58360  Biso   1.000  C
  C96      1.0000 0.34260  0.54590  0.08360  Biso   1.000  C
  C97      1.0000 0.62380  0.09550  0.32780  Biso   1.000  C
  C98      1.0000 0.62380  0.40450  0.82780  Biso   1.000  C
  C99      1.0000 0.37620  0.90450  0.67220  Biso   1.000  C
  C100     1.0000 0.37620  0.59550  0.17220  Biso   1.000  C
  H41      1.0000 0.58270  0.06470  0.29180  Biso   1.000  H
  H42      1.0000 0.58270  0.43530  0.79180  Biso   1.000  H
  H43      1.0000 0.41730  0.93530  0.70820  Biso   1.000  H
  H44      1.0000 0.41730  0.56470  0.20820  Biso   1.000  H
  H45      1.0000 0.66530  0.10390  0.29890  Biso   1.000  H
  H46      1.0000 0.66530  0.39610  0.79890  Biso   1.000  H
  H47      1.0000 0.33470  0.89610  0.70110  Biso   1.000  H
  H48      1.0000 0.33470  0.60390  0.20110  Biso   1.000  H
  H49      1.0000 0.60370  0.14710  0.34040  Biso   1.000  H
  H50      1.0000 0.60370  0.35290  0.84040  Biso   1.000  H
  H51      1.0000 0.39630  0.85290  0.65960  Biso   1.000  H
  H52      1.0000 0.39630  0.64710  0.15960  Biso   1.000  H
  C101     1.0000 0.59160  0.01730  0.44940  Biso   1.000  C
  C102     1.0000 0.59160  0.48270  0.94940  Biso   1.000  C
  C103     1.0000 0.40840  0.98270  0.55060  Biso   1.000  C
  C104     1.0000 0.40840  0.51730  0.05060  Biso   1.000  C
  H53      1.0000 0.55600  0.02600  0.38900  Biso   1.000  H
  H54      1.0000 0.55600  0.47400  0.88900  Biso   1.000  H
  H55      1.0000 0.44400  0.97400  0.61100  Biso   1.000  H
  H56      1.0000 0.44400  0.52600  0.11100  Biso   1.000  H
  H57      1.0000 0.57400  0.06100  0.46500  Biso   1.000  H
  H58      1.0000 0.57400  0.43900  0.96500  Biso   1.000  H
  H59      1.0000 0.42600  0.93900  0.53500  Biso   1.000  H
  H60      1.0000 0.42600  0.56100  0.03500  Biso   1.000  H
  N5       1.0000 0.70210  0.97670  0.38990  Biso   1.000  N
  N6       1.0000 0.70210  0.52330  0.88990  Biso   1.000  N
  N7       1.0000 0.29790  0.02330  0.61010  Biso   1.000  N
  N8       1.0000 0.29790  0.47670  0.11010  Biso   1.000  N
  C105     1.0000 0.77410  0.99530  0.40180  Biso   1.000  C
  C106     1.0000 0.77410  0.50470  0.90180  Biso   1.000  C
  C107     1.0000 0.22590  0.00470  0.59820  Biso   1.000  C
  C108     1.0000 0.22590  0.49530  0.09820  Biso   1.000  C
  C109     1.0000 0.83550  0.94630  0.37610  Biso   1.000  C
  C110     1.0000 0.83550  0.55370  0.87610  Biso   1.000  C
  C111     1.0000 0.16450  0.05370  0.62390  Biso   1.000  C
  C112     1.0000 0.16450  0.44630  0.12390  Biso   1.000  C
  C113     1.0000 0.81770  0.90680  0.29750  Biso   1.000  C
  C114     1.0000 0.81770  0.59320  0.79750  Biso   1.000  C
  C115     1.0000 0.18230  0.09320  0.70250  Biso   1.000  C
  C116     1.0000 0.18230  0.40680  0.20250  Biso   1.000  C
  H61      1.0000 0.77000  0.90900  0.27000  Biso   1.000  H
  H62      1.0000 0.77000  0.59100  0.77000  Biso   1.000  H
  H63      1.0000 0.23000  0.09100  0.73000  Biso   1.000  H
  H64      1.0000 0.23000  0.40900  0.23000  Biso   1.000  H
  C117     1.0000 0.87300  0.85980  0.27410  Biso   1.000  C
  C118     1.0000 0.87300  0.64020  0.77410  Biso   1.000  C
  C119     1.0000 0.12700  0.14020  0.72590  Biso   1.000  C
  C120     1.0000 0.12700  0.35980  0.22590  Biso   1.000  C
  H65      1.0000 0.86400  0.83900  0.23100  Biso   1.000  H
  H66      1.0000 0.86400  0.66100  0.73100  Biso   1.000  H
  H67      1.0000 0.13600  0.16100  0.76900  Biso   1.000  H
  H68      1.0000 0.13600  0.33900  0.26900  Biso   1.000  H
  C121     1.0000 0.94480  0.85110  0.32670  Biso   1.000  C
  C122     1.0000 0.94480  0.64890  0.82670  Biso   1.000  C
  C123     1.0000 0.05520  0.14890  0.67330  Biso   1.000  C
  C124     1.0000 0.05520  0.35110  0.17330  Biso   1.000  C
  C125     1.0000 0.00340  0.80380  0.29830  Biso   1.000  C
  C126     1.0000 0.00340  0.69620  0.79830  Biso   1.000  C
  C127     1.0000 0.99660  0.19620  0.70170  Biso   1.000  C
  C128     1.0000 0.99660  0.30380  0.20170  Biso   1.000  C
  N9       1.0000 0.04900  0.76590  0.27340  Biso   1.000  N
  N10      1.0000 0.04900  0.73410  0.77340  Biso   1.000  N
  N11      1.0000 0.95100  0.23410  0.72660  Biso   1.000  N
  N12      1.0000 0.95100  0.26590  0.22660  Biso   1.000  N
  C129     1.0000 0.96270  0.88770  0.40440  Biso   1.000  C
  C130     1.0000 0.96270  0.61230  0.90440  Biso   1.000  C
  C131     1.0000 0.03730  0.11230  0.59560  Biso   1.000  C
  C132     1.0000 0.03730  0.38770  0.09560  Biso   1.000  C
  H69      1.0000 0.00400  0.88000  0.43400  Biso   1.000  H
  H70      1.0000 0.00400  0.62000  0.93400  Biso   1.000  H
  H71      1.0000 0.99600  0.12000  0.56600  Biso   1.000  H
  H72      1.0000 0.99600  0.38000  0.06600  Biso   1.000  H
  C133     1.0000 0.90760  0.93650  0.42910  Biso   1.000  C
  C134     1.0000 0.90760  0.56350  0.92910  Biso   1.000  C
  C135     1.0000 0.09240  0.06350  0.57090  Biso   1.000  C
  C136     1.0000 0.09240  0.43650  0.07090  Biso   1.000  C
  H73      1.0000 0.91600  0.95500  0.47900  Biso   1.000  H
  H74      1.0000 0.91600  0.54500  0.97900  Biso   1.000  H
  H75      1.0000 0.08400  0.04500  0.52100  Biso   1.000  H
  H76      1.0000 0.08400  0.45500  0.02100  Biso   1.000  H
