data_image0
_cell_length_a       17.839
_cell_length_b       16.506
_cell_length_c       16.308
_cell_angle_alpha    90
_cell_angle_beta     104.908
_cell_angle_gamma    90

_symmetry_space_group_name_H-M    "P 1"
_symmetry_int_tables_number       1

loop_
  _symmetry_equiv_pos_as_xyz
  'x, y, z'

loop_
  _atom_site_label
  _atom_site_occupancy
  _atom_site_fract_x
  _atom_site_fract_y
  _atom_site_fract_z
  _atom_site_thermal_displace_type
  _atom_site_B_iso_or_equiv
  _atom_site_type_symbol
  Cu1      1.0000 0.90471  0.20031  0.34210  Biso   1.000  Cu
  Cu2      1.0000 0.90471  0.29969  0.84210  Biso   1.000  Cu
  Cu3      1.0000 0.09529  0.79969  0.65790  Biso   1.000  Cu
  Cu4      1.0000 0.09529  0.70031  0.15790  Biso   1.000  Cu
  O1       1.0000 0.83040  0.14410  0.25480  Biso   1.000  O
  O2       1.0000 0.83040  0.35590  0.75480  Biso   1.000  O
  O3       1.0000 0.16960  0.85590  0.74520  Biso   1.000  O
  O4       1.0000 0.16960  0.64410  0.24520  Biso   1.000  O
  C1       1.0000 0.77920  0.07590  0.12940  Biso   1.000  C
  C2       1.0000 0.77920  0.42410  0.62940  Biso   1.000  C
  C3       1.0000 0.22080  0.92410  0.87060  Biso   1.000  C
  C4       1.0000 0.22080  0.57590  0.37060  Biso   1.000  C
  F1       1.0000 0.72120  0.04960  0.15260  Biso   1.000  F
  F2       1.0000 0.72120  0.45040  0.65260  Biso   1.000  F
  F3       1.0000 0.27880  0.95040  0.84740  Biso   1.000  F
  F4       1.0000 0.27880  0.54960  0.34740  Biso   1.000  F
  F5       1.0000 0.76130  0.13510  0.08120  Biso   1.000  F
  F6       1.0000 0.76130  0.36490  0.58120  Biso   1.000  F
  F7       1.0000 0.23870  0.86490  0.91880  Biso   1.000  F
  F8       1.0000 0.23870  0.63510  0.41880  Biso   1.000  F
  F9       1.0000 0.79820  0.01620  0.08250  Biso   1.000  F
  F10      1.0000 0.79820  0.48380  0.58250  Biso   1.000  F
  F11      1.0000 0.20180  0.98380  0.91750  Biso   1.000  F
  F12      1.0000 0.20180  0.51620  0.41750  Biso   1.000  F
  C5       1.0000 0.84880  0.09580  0.20510  Biso   1.000  C
  C6       1.0000 0.84880  0.40420  0.70510  Biso   1.000  C
  C7       1.0000 0.15120  0.90420  0.79490  Biso   1.000  C
  C8       1.0000 0.15120  0.59580  0.29490  Biso   1.000  C
  C9       1.0000 0.92040  0.06160  0.21100  Biso   1.000  C
  C10      1.0000 0.92040  0.43840  0.71100  Biso   1.000  C
  C11      1.0000 0.07960  0.93840  0.78900  Biso   1.000  C
  C12      1.0000 0.07960  0.56160  0.28900  Biso   1.000  C
  H1       1.0000 0.92700  0.02790  0.16780  Biso   1.000  H
  H2       1.0000 0.92700  0.47210  0.66780  Biso   1.000  H
  H3       1.0000 0.07300  0.97210  0.83220  Biso   1.000  H
  H4       1.0000 0.07300  0.52790  0.33220  Biso   1.000  H
  C13      1.0000 0.98260  0.07650  0.27980  Biso   1.000  C
  C14      1.0000 0.98260  0.42350  0.77980  Biso   1.000  C
  C15      1.0000 0.01740  0.92350  0.72020  Biso   1.000  C
  C16      1.0000 0.01740  0.57650  0.22020  Biso   1.000  C
  C17      1.0000 0.05960  0.03630  0.28330  Biso   1.000  C
  C18      1.0000 0.05960  0.46370  0.78330  Biso   1.000  C
  C19      1.0000 0.94040  0.96370  0.71670  Biso   1.000  C
  C20      1.0000 0.94040  0.53630  0.21670  Biso   1.000  C
  F13      1.0000 0.05510  0.97740  0.22940  Biso   1.000  F
  F14      1.0000 0.05510  0.52260  0.72940  Biso   1.000  F
  F15      1.0000 0.94490  0.02260  0.77060  Biso   1.000  F
  F16      1.0000 0.94490  0.47740  0.27060  Biso   1.000  F
  F17      1.0000 0.09070  0.00650  0.35820  Biso   1.000  F
  F18      1.0000 0.09070  0.49350  0.85820  Biso   1.000  F
  F19      1.0000 0.90930  0.99350  0.64180  Biso   1.000  F
  F20      1.0000 0.90930  0.50650  0.14180  Biso   1.000  F
  F21      1.0000 0.10880  0.08970  0.26680  Biso   1.000  F
  F22      1.0000 0.10880  0.41030  0.76680  Biso   1.000  F
  F23      1.0000 0.89120  0.91030  0.73320  Biso   1.000  F
  F24      1.0000 0.89120  0.58970  0.23320  Biso   1.000  F
  O5       1.0000 0.98390  0.12140  0.34120  Biso   1.000  O
  O6       1.0000 0.98390  0.37860  0.84120  Biso   1.000  O
  O7       1.0000 0.01610  0.87860  0.65880  Biso   1.000  O
  O8       1.0000 0.01610  0.62140  0.15880  Biso   1.000  O
  O9       1.0000 0.82900  0.28440  0.33640  Biso   1.000  O
  O10      1.0000 0.82900  0.21560  0.83640  Biso   1.000  O
  O11      1.0000 0.17100  0.71560  0.66360  Biso   1.000  O
  O12      1.0000 0.17100  0.78440  0.16360  Biso   1.000  O
  C21      1.0000 0.77670  0.41130  0.34550  Biso   1.000  C
  C22      1.0000 0.77670  0.08870  0.84550  Biso   1.000  C
  C23      1.0000 0.22330  0.58870  0.65450  Biso   1.000  C
  C24      1.0000 0.22330  0.91130  0.15450  Biso   1.000  C
  F25      1.0000 0.79260  0.48400  0.38410  Biso   1.000  F
  F26      1.0000 0.79260  0.01600  0.88410  Biso   1.000  F
  F27      1.0000 0.20740  0.51600  0.61590  Biso   1.000  F
  F28      1.0000 0.20740  0.98400  0.11590  Biso   1.000  F
  F29      1.0000 0.75720  0.42390  0.26560  Biso   1.000  F
  F30      1.0000 0.75720  0.07610  0.76560  Biso   1.000  F
  F31      1.0000 0.24280  0.57610  0.73440  Biso   1.000  F
  F32      1.0000 0.24280  0.92390  0.23440  Biso   1.000  F
  F33      1.0000 0.71570  0.38500  0.36830  Biso   1.000  F
  F34      1.0000 0.71570  0.11500  0.86830  Biso   1.000  F
  F35      1.0000 0.28430  0.61500  0.63170  Biso   1.000  F
  F36      1.0000 0.28430  0.88500  0.13170  Biso   1.000  F
  C25      1.0000 0.84350  0.35230  0.37490  Biso   1.000  C
  C26      1.0000 0.84350  0.14770  0.87490  Biso   1.000  C
  C27      1.0000 0.15650  0.64770  0.62510  Biso   1.000  C
  C28      1.0000 0.15650  0.85230  0.12510  Biso   1.000  C
  C29      1.0000 0.90910  0.37440  0.43130  Biso   1.000  C
  C30      1.0000 0.90910  0.12560  0.93130  Biso   1.000  C
  C31      1.0000 0.09090  0.62560  0.56870  Biso   1.000  C
  C32      1.0000 0.09090  0.87440  0.06870  Biso   1.000  C
  H5       1.0000 0.91200  0.42610  0.45450  Biso   1.000  H
  H6       1.0000 0.91200  0.07390  0.95450  Biso   1.000  H
  H7       1.0000 0.08800  0.57390  0.54550  Biso   1.000  H
  H8       1.0000 0.08800  0.92610  0.04550  Biso   1.000  H
  C33      1.0000 0.97120  0.32530  0.45600  Biso   1.000  C
  C34      1.0000 0.97120  0.17470  0.95600  Biso   1.000  C
  C35      1.0000 0.02880  0.67470  0.54400  Biso   1.000  C
  C36      1.0000 0.02880  0.82530  0.04400  Biso   1.000  C
  C37      1.0000 0.04240  0.35670  0.51930  Biso   1.000  C
  C38      1.0000 0.04240  0.14330  0.01930  Biso   1.000  C
  C39      1.0000 0.95760  0.64330  0.48070  Biso   1.000  C
  C40      1.0000 0.95760  0.85670  0.98070  Biso   1.000  C
  F37      1.0000 0.08600  0.30610  0.56240  Biso   1.000  F
  F38      1.0000 0.08600  0.19390  0.06240  Biso   1.000  F
  F39      1.0000 0.91400  0.69390  0.43760  Biso   1.000  F
  F40      1.0000 0.91400  0.80610  0.93760  Biso   1.000  F
  F41      1.0000 0.02690  0.41640  0.56540  Biso   1.000  F
  F42      1.0000 0.02690  0.08360  0.06540  Biso   1.000  F
  F43      1.0000 0.97310  0.58360  0.43460  Biso   1.000  F
  F44      1.0000 0.97310  0.91640  0.93460  Biso   1.000  F
  F45      1.0000 0.08370  0.40100  0.47910  Biso   1.000  F
  F46      1.0000 0.08370  0.09900  0.97910  Biso   1.000  F
  F47      1.0000 0.91630  0.59900  0.52090  Biso   1.000  F
  F48      1.0000 0.91630  0.90100  0.02090  Biso   1.000  F
  O13      1.0000 0.97850  0.25370  0.43300  Biso   1.000  O
  O14      1.0000 0.97850  0.24630  0.93300  Biso   1.000  O
  O15      1.0000 0.02150  0.74630  0.56700  Biso   1.000  O
  O16      1.0000 0.02150  0.75370  0.06700  Biso   1.000  O
  Cu5      1.0000 0.65993  0.86972  0.34750  Biso   1.000  Cu
  Cu6      1.0000 0.65993  0.63028  0.84750  Biso   1.000  Cu
  Cu7      1.0000 0.34007  0.13028  0.65250  Biso   1.000  Cu
  Cu8      1.0000 0.34007  0.36972  0.15250  Biso   1.000  Cu
  O17      1.0000 0.55380  0.83710  0.37510  Biso   1.000  O
  O18      1.0000 0.55380  0.66290  0.87510  Biso   1.000  O
  O19      1.0000 0.44620  0.16290  0.62490  Biso   1.000  O
  O20      1.0000 0.44620  0.33710  0.12490  Biso   1.000  O
  C41      1.0000 0.43580  0.77530  0.35880  Biso   1.000  C
  C42      1.0000 0.43580  0.72470  0.85880  Biso   1.000  C
  C43      1.0000 0.56420  0.22470  0.64120  Biso   1.000  C
  C44      1.0000 0.56420  0.27530  0.14120  Biso   1.000  C
  F49      1.0000 0.42400  0.79850  0.42030  Biso   1.000  F
  F50      1.0000 0.42400  0.70150  0.92030  Biso   1.000  F
  F51      1.0000 0.57600  0.20150  0.57970  Biso   1.000  F
  F52      1.0000 0.57600  0.29850  0.07970  Biso   1.000  F
  F53      1.0000 0.36830  0.77930  0.29320  Biso   1.000  F
  F54      1.0000 0.36830  0.72070  0.79320  Biso   1.000  F
  F55      1.0000 0.63170  0.22070  0.70680  Biso   1.000  F
  F56      1.0000 0.63170  0.27930  0.20680  Biso   1.000  F
  F57      1.0000 0.44840  0.70230  0.35470  Biso   1.000  F
  F58      1.0000 0.44840  0.79770  0.85470  Biso   1.000  F
  F59      1.0000 0.55160  0.29770  0.64530  Biso   1.000  F
  F60      1.0000 0.55160  0.20230  0.14530  Biso   1.000  F
  C45      1.0000 0.49660  0.83020  0.32090  Biso   1.000  C
  C46      1.0000 0.49660  0.66980  0.82090  Biso   1.000  C
  C47      1.0000 0.50340  0.16980  0.67910  Biso   1.000  C
  C48      1.0000 0.50340  0.33020  0.17910  Biso   1.000  C
  C49      1.0000 0.47890  0.85600  0.23660  Biso   1.000  C
  C50      1.0000 0.47890  0.64400  0.73660  Biso   1.000  C
  C51      1.0000 0.52110  0.14400  0.76340  Biso   1.000  C
  C52      1.0000 0.52110  0.35600  0.26340  Biso   1.000  C
  H9       1.0000 0.42960  0.84730  0.20130  Biso   1.000  H
  H10      1.0000 0.42960  0.65270  0.70130  Biso   1.000  H
  H11      1.0000 0.57040  0.15270  0.79870  Biso   1.000  H
  H12      1.0000 0.57040  0.34730  0.29870  Biso   1.000  H
  C53      1.0000 0.53820  0.89700  0.20380  Biso   1.000  C
  C54      1.0000 0.53820  0.60300  0.70380  Biso   1.000  C
  C55      1.0000 0.46180  0.10300  0.79620  Biso   1.000  C
  C56      1.0000 0.46180  0.39700  0.29620  Biso   1.000  C
  C57      1.0000 0.50800  0.93180  0.11680  Biso   1.000  C
  C58      1.0000 0.50800  0.56820  0.61680  Biso   1.000  C
  C59      1.0000 0.49200  0.06820  0.88320  Biso   1.000  C
  C60      1.0000 0.49200  0.43180  0.38320  Biso   1.000  C
  F61      1.0000 0.44450  0.90740  0.07260  Biso   1.000  F
  F62      1.0000 0.44450  0.59260  0.57260  Biso   1.000  F
  F63      1.0000 0.55550  0.09260  0.92740  Biso   1.000  F
  F64      1.0000 0.55550  0.40740  0.42740  Biso   1.000  F
  F65      1.0000 0.51450  0.00520  0.11580  Biso   1.000  F
  F66      1.0000 0.51450  0.49480  0.61580  Biso   1.000  F
  F67      1.0000 0.48550  0.99480  0.88420  Biso   1.000  F
  F68      1.0000 0.48550  0.50520  0.38420  Biso   1.000  F
  F69      1.0000 0.55540  0.91720  0.07010  Biso   1.000  F
  F70      1.0000 0.55540  0.58280  0.57010  Biso   1.000  F
  F71      1.0000 0.44460  0.08280  0.92990  Biso   1.000  F
  F72      1.0000 0.44460  0.41720  0.42990  Biso   1.000  F
  O21      1.0000 0.60420  0.91510  0.24110  Biso   1.000  O
  O22      1.0000 0.60420  0.58490  0.74110  Biso   1.000  O
  O23      1.0000 0.39580  0.08490  0.75890  Biso   1.000  O
  O24      1.0000 0.39580  0.41510  0.25890  Biso   1.000  O
  O25      1.0000 0.65990  0.76480  0.28860  Biso   1.000  O
  O26      1.0000 0.65990  0.73520  0.78860  Biso   1.000  O
  O27      1.0000 0.34010  0.23520  0.71140  Biso   1.000  O
  O28      1.0000 0.34010  0.26480  0.21140  Biso   1.000  O
  C61      1.0000 0.64120  0.63190  0.25310  Biso   1.000  C
  C62      1.0000 0.64120  0.86810  0.75310  Biso   1.000  C
  C63      1.0000 0.35880  0.36810  0.74690  Biso   1.000  C
  C64      1.0000 0.35880  0.13190  0.24690  Biso   1.000  C
  F73      1.0000 0.58300  0.63580  0.20620  Biso   1.000  F
  F74      1.0000 0.58300  0.86420  0.70620  Biso   1.000  F
  F75      1.0000 0.41700  0.36420  0.79380  Biso   1.000  F
  F76      1.0000 0.41700  0.13580  0.29380  Biso   1.000  F
  F77      1.0000 0.69680  0.60910  0.23100  Biso   1.000  F
  F78      1.0000 0.69680  0.89090  0.73100  Biso   1.000  F
  F79      1.0000 0.30320  0.39090  0.76900  Biso   1.000  F
  F80      1.0000 0.30320  0.10910  0.26900  Biso   1.000  F
  F81      1.0000 0.63080  0.56780  0.29780  Biso   1.000  F
  F82      1.0000 0.63080  0.93220  0.79780  Biso   1.000  F
  F83      1.0000 0.36920  0.43220  0.70220  Biso   1.000  F
  F84      1.0000 0.36920  0.06780  0.20220  Biso   1.000  F
  C65      1.0000 0.66700  0.70200  0.32430  Biso   1.000  C
  C66      1.0000 0.66700  0.79800  0.82430  Biso   1.000  C
  C67      1.0000 0.33300  0.29800  0.67570  Biso   1.000  C
  C68      1.0000 0.33300  0.20200  0.17570  Biso   1.000  C
  C69      1.0000 0.69570  0.68620  0.40970  Biso   1.000  C
  C70      1.0000 0.69570  0.81380  0.90970  Biso   1.000  C
  C71      1.0000 0.30430  0.31380  0.59030  Biso   1.000  C
  C72      1.0000 0.30430  0.18620  0.09030  Biso   1.000  C
  H13      1.0000 0.70290  0.63290  0.42870  Biso   1.000  H
  H14      1.0000 0.70290  0.86710  0.92870  Biso   1.000  H
  H15      1.0000 0.29710  0.36710  0.57130  Biso   1.000  H
  H16      1.0000 0.29710  0.13290  0.07130  Biso   1.000  H
  C73      1.0000 0.71480  0.75230  0.46970  Biso   1.000  C
  C74      1.0000 0.71480  0.74770  0.96970  Biso   1.000  C
  C75      1.0000 0.28520  0.24770  0.53030  Biso   1.000  C
  C76      1.0000 0.28520  0.25230  0.03030  Biso   1.000  C
  C77      1.0000 0.75270  0.72590  0.55530  Biso   1.000  C
  C78      1.0000 0.75270  0.77410  0.05530  Biso   1.000  C
  C79      1.0000 0.24730  0.27410  0.44470  Biso   1.000  C
  C80      1.0000 0.24730  0.22590  0.94470  Biso   1.000  C
  F85      1.0000 0.81530  0.76050  0.58750  Biso   1.000  F
  F86      1.0000 0.81530  0.73950  0.08750  Biso   1.000  F
  F87      1.0000 0.18470  0.23950  0.41250  Biso   1.000  F
  F88      1.0000 0.18470  0.26050  0.91250  Biso   1.000  F
  F89      1.0000 0.72380  0.75760  0.60870  Biso   1.000  F
  F90      1.0000 0.72380  0.74240  0.10870  Biso   1.000  F
  F91      1.0000 0.27620  0.24240  0.39130  Biso   1.000  F
  F92      1.0000 0.27620  0.25760  0.89130  Biso   1.000  F
  F93      1.0000 0.75170  0.65720  0.57740  Biso   1.000  F
  F94      1.0000 0.75170  0.84280  0.07740  Biso   1.000  F
  F95      1.0000 0.24830  0.34280  0.42260  Biso   1.000  F
  F96      1.0000 0.24830  0.15720  0.92260  Biso   1.000  F
  O29      1.0000 0.71730  0.82230  0.45140  Biso   1.000  O
  O30      1.0000 0.71730  0.67770  0.95140  Biso   1.000  O
  O31      1.0000 0.28270  0.17770  0.54860  Biso   1.000  O
  O32      1.0000 0.28270  0.32230  0.04860  Biso   1.000  O
  O33      1.0000 0.85866  0.10771  0.45030  Biso   1.000  O
  O34      1.0000 0.85866  0.39229  0.95030  Biso   1.000  O
  O35      1.0000 0.14134  0.89229  0.54970  Biso   1.000  O
  O36      1.0000 0.14134  0.60771  0.04970  Biso   1.000  O
  N1       1.0000 0.79410  0.07120  0.43870  Biso   1.000  N
  N2       1.0000 0.79410  0.42880  0.93870  Biso   1.000  N
  N3       1.0000 0.20590  0.92880  0.56130  Biso   1.000  N
  N4       1.0000 0.20590  0.57120  0.06130  Biso   1.000  N
  C81      1.0000 0.72630  0.10340  0.46400  Biso   1.000  C
  C82      1.0000 0.72630  0.39660  0.96400  Biso   1.000  C
  C83      1.0000 0.27370  0.89660  0.53600  Biso   1.000  C
  C84      1.0000 0.27370  0.60340  0.03600  Biso   1.000  C
  C85      1.0000 0.73820  0.07000  0.55930  Biso   1.000  C
  C86      1.0000 0.73820  0.43000  0.05930  Biso   1.000  C
  C87      1.0000 0.26180  0.93000  0.44070  Biso   1.000  C
  C88      1.0000 0.26180  0.57000  0.94070  Biso   1.000  C
  H17      1.0000 0.74290  0.01200  0.55940  Biso   1.000  H
  H18      1.0000 0.74290  0.48800  0.05940  Biso   1.000  H
  H19      1.0000 0.25710  0.98800  0.44060  Biso   1.000  H
  H20      1.0000 0.25710  0.51200  0.94060  Biso   1.000  H
  H21      1.0000 0.69440  0.08490  0.57990  Biso   1.000  H
  H22      1.0000 0.69440  0.41510  0.07990  Biso   1.000  H
  H23      1.0000 0.30560  0.91510  0.42010  Biso   1.000  H
  H24      1.0000 0.30560  0.58490  0.92010  Biso   1.000  H
  H25      1.0000 0.78450  0.09300  0.59530  Biso   1.000  H
  H26      1.0000 0.78450  0.40700  0.09530  Biso   1.000  H
  H27      1.0000 0.21550  0.90700  0.40470  Biso   1.000  H
  H28      1.0000 0.21550  0.59300  0.90470  Biso   1.000  H
  C89      1.0000 0.71860  0.18800  0.45510  Biso   1.000  C
  C90      1.0000 0.71860  0.31200  0.95510  Biso   1.000  C
  C91      1.0000 0.28140  0.81200  0.54490  Biso   1.000  C
  C92      1.0000 0.28140  0.68800  0.04490  Biso   1.000  C
  H29      1.0000 0.71320  0.20260  0.39680  Biso   1.000  H
  H30      1.0000 0.71320  0.29740  0.89680  Biso   1.000  H
  H31      1.0000 0.28680  0.79740  0.60320  Biso   1.000  H
  H32      1.0000 0.28680  0.70260  0.10320  Biso   1.000  H
  H33      1.0000 0.76390  0.21380  0.49010  Biso   1.000  H
  H34      1.0000 0.76390  0.28620  0.99010  Biso   1.000  H
  H35      1.0000 0.23610  0.78620  0.50990  Biso   1.000  H
  H36      1.0000 0.23610  0.71380  0.00990  Biso   1.000  H
  H37      1.0000 0.67360  0.20550  0.47210  Biso   1.000  H
  H38      1.0000 0.67360  0.29450  0.97210  Biso   1.000  H
  H39      1.0000 0.32640  0.79450  0.52790  Biso   1.000  H
  H40      1.0000 0.32640  0.70550  0.02790  Biso   1.000  H
  C93      1.0000 0.66370  0.04740  0.41690  Biso   1.000  C
  C94      1.0000 0.66370  0.45260  0.91690  Biso   1.000  C
  C95      1.0000 0.33630  0.95260  0.58310  Biso   1.000  C
  C96      1.0000 0.33630  0.54740  0.08310  Biso   1.000  C
  C97      1.0000 0.62640  0.09840  0.32100  Biso   1.000  C
  C98      1.0000 0.62640  0.40160  0.82100  Biso   1.000  C
  C99      1.0000 0.37360  0.90160  0.67900  Biso   1.000  C
  C100     1.0000 0.37360  0.59840  0.17900  Biso   1.000  C
  H41      1.0000 0.58530  0.06690  0.28560  Biso   1.000  H
  H42      1.0000 0.58530  0.43310  0.78560  Biso   1.000  H
  H43      1.0000 0.41470  0.93310  0.71440  Biso   1.000  H
  H44      1.0000 0.41470  0.56690  0.21440  Biso   1.000  H
  H45      1.0000 0.66680  0.10600  0.29260  Biso   1.000  H
  H46      1.0000 0.66680  0.39400  0.79260  Biso   1.000  H
  H47      1.0000 0.33320  0.89400  0.70740  Biso   1.000  H
  H48      1.0000 0.33320  0.60600  0.20740  Biso   1.000  H
  H49      1.0000 0.60660  0.15010  0.33210  Biso   1.000  H
  H50      1.0000 0.60660  0.34990  0.83210  Biso   1.000  H
  H51      1.0000 0.39340  0.84990  0.66790  Biso   1.000  H
  H52      1.0000 0.39340  0.65010  0.16790  Biso   1.000  H
  C101     1.0000 0.59200  0.03070  0.42950  Biso   1.000  C
  C102     1.0000 0.59200  0.46930  0.92950  Biso   1.000  C
  C103     1.0000 0.40800  0.96930  0.57050  Biso   1.000  C
  C104     1.0000 0.40800  0.53070  0.07050  Biso   1.000  C
  H53      1.0000 0.59830  0.00110  0.48150  Biso   1.000  H
  H54      1.0000 0.59830  0.49890  0.98150  Biso   1.000  H
  H55      1.0000 0.40170  0.99890  0.51850  Biso   1.000  H
  H56      1.0000 0.40170  0.50110  0.01850  Biso   1.000  H
  H57      1.0000 0.56260  0.99870  0.38310  Biso   1.000  H
  H58      1.0000 0.56260  0.50130  0.88310  Biso   1.000  H
  H59      1.0000 0.43740  0.00130  0.61690  Biso   1.000  H
  H60      1.0000 0.43740  0.49870  0.11690  Biso   1.000  H
  H61      1.0000 0.56510  0.08050  0.43270  Biso   1.000  H
  H62      1.0000 0.56510  0.41950  0.93270  Biso   1.000  H
  H63      1.0000 0.43490  0.91950  0.56730  Biso   1.000  H
  H64      1.0000 0.43490  0.58050  0.06730  Biso   1.000  H
  N5       1.0000 0.70510  0.97940  0.38880  Biso   1.000  N
  N6       1.0000 0.70510  0.52060  0.88880  Biso   1.000  N
  N7       1.0000 0.29490  0.02060  0.61120  Biso   1.000  N
  N8       1.0000 0.29490  0.47940  0.11120  Biso   1.000  N
  C105     1.0000 0.77700  0.99690  0.39950  Biso   1.000  C
  C106     1.0000 0.77700  0.50310  0.89950  Biso   1.000  C
  C107     1.0000 0.22300  0.00310  0.60050  Biso   1.000  C
  C108     1.0000 0.22300  0.49690  0.10050  Biso   1.000  C
  C109     1.0000 0.83580  0.94660  0.37490  Biso   1.000  C
  C110     1.0000 0.83580  0.55340  0.87490  Biso   1.000  C
  C111     1.0000 0.16420  0.05340  0.62510  Biso   1.000  C
  C112     1.0000 0.16420  0.44660  0.12510  Biso   1.000  C
  C113     1.0000 0.81720  0.90730  0.29710  Biso   1.000  C
  C114     1.0000 0.81720  0.59270  0.79710  Biso   1.000  C
  C115     1.0000 0.18280  0.09270  0.70290  Biso   1.000  C
  C116     1.0000 0.18280  0.40730  0.20290  Biso   1.000  C
  H65      1.0000 0.76780  0.91320  0.26100  Biso   1.000  H
  H66      1.0000 0.76780  0.58680  0.76100  Biso   1.000  H
  H67      1.0000 0.23220  0.08680  0.73900  Biso   1.000  H
  H68      1.0000 0.23220  0.41320  0.23900  Biso   1.000  H
  C117     1.0000 0.87000  0.86040  0.27350  Biso   1.000  C
  C118     1.0000 0.87000  0.63960  0.77350  Biso   1.000  C
  C119     1.0000 0.13000  0.13960  0.72650  Biso   1.000  C
  C120     1.0000 0.13000  0.36040  0.22650  Biso   1.000  C
  H69      1.0000 0.85670  0.83370  0.22150  Biso   1.000  H
  H70      1.0000 0.85670  0.66630  0.72150  Biso   1.000  H
  H71      1.0000 0.14330  0.16630  0.77850  Biso   1.000  H
  H72      1.0000 0.14330  0.33370  0.27850  Biso   1.000  H
  C121     1.0000 0.94430  0.85200  0.32670  Biso   1.000  C
  C122     1.0000 0.94430  0.64800  0.82670  Biso   1.000  C
  C123     1.0000 0.05570  0.14800  0.67330  Biso   1.000  C
  C124     1.0000 0.05570  0.35200  0.17330  Biso   1.000  C
  C125     1.0000 0.00010  0.80520  0.29920  Biso   1.000  C
  C126     1.0000 0.00010  0.69480  0.79920  Biso   1.000  C
  C127     1.0000 0.99990  0.19480  0.70080  Biso   1.000  C
  C128     1.0000 0.99990  0.30520  0.20080  Biso   1.000  C
  N9       1.0000 0.04420  0.76890  0.27340  Biso   1.000  N
  N10      1.0000 0.04420  0.73110  0.77340  Biso   1.000  N
  N11      1.0000 0.95580  0.23110  0.72660  Biso   1.000  N
  N12      1.0000 0.95580  0.26890  0.22660  Biso   1.000  N
  C129     1.0000 0.96190  0.88820  0.40510  Biso   1.000  C
  C130     1.0000 0.96190  0.61180  0.90510  Biso   1.000  C
  C131     1.0000 0.03810  0.11180  0.59490  Biso   1.000  C
  C132     1.0000 0.03810  0.38820  0.09490  Biso   1.000  C
  H73      1.0000 0.01070  0.88110  0.44210  Biso   1.000  H
  H74      1.0000 0.01070  0.61890  0.94210  Biso   1.000  H
  H75      1.0000 0.98930  0.11890  0.55790  Biso   1.000  H
  H76      1.0000 0.98930  0.38110  0.05790  Biso   1.000  H
  C133     1.0000 0.90740  0.93490  0.42910  Biso   1.000  C
  C134     1.0000 0.90740  0.56510  0.92910  Biso   1.000  C
  C135     1.0000 0.09260  0.06510  0.57090  Biso   1.000  C
  C136     1.0000 0.09260  0.43490  0.07090  Biso   1.000  C
  H77      1.0000 0.91930  0.95880  0.48260  Biso   1.000  H
  H78      1.0000 0.91930  0.54120  0.98260  Biso   1.000  H
  H79      1.0000 0.08070  0.04120  0.51740  Biso   1.000  H
  H80      1.0000 0.08070  0.45880  0.01740  Biso   1.000  H
