data_image0
_cell_length_a       7.279
_cell_length_b       23.695
_cell_length_c       19.308
_cell_angle_alpha    90
_cell_angle_beta     100.28
_cell_angle_gamma    90

_symmetry_space_group_name_H-M    "P 1"
_symmetry_int_tables_number       1

loop_
  _symmetry_equiv_pos_as_xyz
  'x, y, z'

loop_
  _atom_site_label
  _atom_site_occupancy
  _atom_site_fract_x
  _atom_site_fract_y
  _atom_site_fract_z
  _atom_site_thermal_displace_type
  _atom_site_B_iso_or_equiv
  _atom_site_type_symbol
  Cu1      1.0000 0.32070  0.29480  0.74240  Biso   1.000  Cu
  Cu2      1.0000 0.67930  0.79480  0.75760  Biso   1.000  Cu
  Cu3      1.0000 0.67930  0.70520  0.25760  Biso   1.000  Cu
  Cu4      1.0000 0.32070  0.20520  0.24240  Biso   1.000  Cu
  Cu5      1.0000 0.79370  0.40350  0.71130  Biso   1.000  Cu
  Cu6      1.0000 0.20630  0.90350  0.78870  Biso   1.000  Cu
  Cu7      1.0000 0.20630  0.59650  0.28870  Biso   1.000  Cu
  Cu8      1.0000 0.79370  0.09650  0.21130  Biso   1.000  Cu
  Cl1      1.0000 0.12980  0.37400  0.71940  Biso   1.000  Cl
  Cl2      1.0000 0.87020  0.87400  0.78060  Biso   1.000  Cl
  Cl3      1.0000 0.87020  0.62600  0.28060  Biso   1.000  Cl
  Cl4      1.0000 0.12980  0.12600  0.21940  Biso   1.000  Cl
  Cl5      1.0000 0.61590  0.31770  0.69480  Biso   1.000  Cl
  Cl6      1.0000 0.38410  0.81770  0.80520  Biso   1.000  Cl
  Cl7      1.0000 0.38410  0.68230  0.30520  Biso   1.000  Cl
  Cl8      1.0000 0.61590  0.18230  0.19480  Biso   1.000  Cl
  N1       1.0000 0.40530  0.31630  0.84070  Biso   1.000  N
  N2       1.0000 0.59470  0.81630  0.65930  Biso   1.000  N
  N3       1.0000 0.59470  0.68370  0.15930  Biso   1.000  N
  N4       1.0000 0.40530  0.18370  0.34070  Biso   1.000  N
  N5       1.0000 0.54790  0.29320  0.94530  Biso   1.000  N
  N6       1.0000 0.45210  0.79320  0.55470  Biso   1.000  N
  N7       1.0000 0.45210  0.70680  0.05470  Biso   1.000  N
  N8       1.0000 0.54790  0.20680  0.44530  Biso   1.000  N
  C1       1.0000 0.53870  0.22190  0.84650  Biso   1.000  C
  C2       1.0000 0.46130  0.72190  0.65350  Biso   1.000  C
  C3       1.0000 0.46130  0.77810  0.15350  Biso   1.000  C
  C4       1.0000 0.53870  0.27810  0.34650  Biso   1.000  C
  C5       1.0000 0.49690  0.27560  0.87890  Biso   1.000  C
  C6       1.0000 0.50310  0.77560  0.62110  Biso   1.000  C
  C7       1.0000 0.50310  0.72440  0.12110  Biso   1.000  C
  C8       1.0000 0.49690  0.22440  0.37890  Biso   1.000  C
  C9       1.0000 0.48170  0.34750  0.94900  Biso   1.000  C
  C10      1.0000 0.51830  0.84750  0.55100  Biso   1.000  C
  C11      1.0000 0.51830  0.65250  0.05100  Biso   1.000  C
  C12      1.0000 0.48170  0.15250  0.44900  Biso   1.000  C
  C13      1.0000 0.39330  0.36110  0.88470  Biso   1.000  C
  C14      1.0000 0.60670  0.86110  0.61530  Biso   1.000  C
  C15      1.0000 0.60670  0.63890  0.11530  Biso   1.000  C
  C16      1.0000 0.39330  0.13890  0.38470  Biso   1.000  C
  C17      1.0000 0.65890  0.26060  0.00370  Biso   1.000  C
  C18      1.0000 0.34110  0.76060  0.49630  Biso   1.000  C
  C19      1.0000 0.34110  0.73940  0.99630  Biso   1.000  C
  C20      1.0000 0.65890  0.23940  0.50370  Biso   1.000  C
  N9       1.0000 0.17770  0.25610  0.65900  Biso   1.000  N
  N10      1.0000 0.82230  0.75610  0.84100  Biso   1.000  N
  N11      1.0000 0.82230  0.74390  0.34100  Biso   1.000  N
  N12      1.0000 0.17770  0.24390  0.15900  Biso   1.000  N
  N13      1.0000 0.40170  0.21410  0.78110  Biso   1.000  N
  N14      1.0000 0.59830  0.71410  0.71890  Biso   1.000  N
  N15      1.0000 0.59830  0.78590  0.21890  Biso   1.000  N
  N16      1.0000 0.40170  0.28590  0.28110  Biso   1.000  N
  C21      1.0000 0.22240  0.18790  0.79450  Biso   1.000  C
  C22      1.0000 0.77760  0.68790  0.70550  Biso   1.000  C
  C23      1.0000 0.77760  0.81210  0.20550  Biso   1.000  C
  C24      1.0000 0.22240  0.31210  0.29450  Biso   1.000  C
  C25      1.0000 0.04510  0.21750  0.75900  Biso   1.000  C
  C26      1.0000 0.95490  0.71750  0.74100  Biso   1.000  C
  C27      1.0000 0.95490  0.78250  0.24100  Biso   1.000  C
  C28      1.0000 0.04510  0.28250  0.25900  Biso   1.000  C
  C29      1.0000 0.01830  0.22690  0.68130  Biso   1.000  C
  C30      1.0000 0.98170  0.72690  0.81870  Biso   1.000  C
  C31      1.0000 0.98170  0.77310  0.31870  Biso   1.000  C
  C32      1.0000 0.01830  0.27310  0.18130  Biso   1.000  C
  C33      1.0000 0.28780  0.21740  0.62060  Biso   1.000  C
  C34      1.0000 0.71220  0.71740  0.87940  Biso   1.000  C
  C35      1.0000 0.71220  0.78260  0.37940  Biso   1.000  C
  C36      1.0000 0.28780  0.28260  0.12060  Biso   1.000  C
  C37      1.0000 0.36280  0.16640  0.66290  Biso   1.000  C
  C38      1.0000 0.63720  0.66640  0.83710  Biso   1.000  C
  C39      1.0000 0.63720  0.83360  0.33710  Biso   1.000  C
  C40      1.0000 0.36280  0.33360  0.16290  Biso   1.000  C
  C41      1.0000 0.49040  0.17960  0.73130  Biso   1.000  C
  C42      1.0000 0.50960  0.67960  0.76870  Biso   1.000  C
  C43      1.0000 0.50960  0.82040  0.26870  Biso   1.000  C
  C44      1.0000 0.49040  0.32040  0.23130  Biso   1.000  C
  N17      1.0000 0.81670  0.40860  0.81240  Biso   1.000  N
  N18      1.0000 0.18330  0.90860  0.68760  Biso   1.000  N
  N19      1.0000 0.18330  0.59140  0.18760  Biso   1.000  N
  N20      1.0000 0.81670  0.09140  0.31240  Biso   1.000  N
  N21      1.0000 0.76930  0.45430  0.90470  Biso   1.000  N
  N22      1.0000 0.23070  0.95430  0.59530  Biso   1.000  N
  N23      1.0000 0.23070  0.54570  0.09530  Biso   1.000  N
  N24      1.0000 0.76930  0.04570  0.40470  Biso   1.000  N
  C45      1.0000 0.59750  0.48660  0.78460  Biso   1.000  C
  C46      1.0000 0.40250  0.98660  0.71540  Biso   1.000  C
  C47      1.0000 0.40250  0.51340  0.21540  Biso   1.000  C
  C48      1.0000 0.59750  0.01340  0.28460  Biso   1.000  C
  C49      1.0000 0.73110  0.45110  0.83430  Biso   1.000  C
  C50      1.0000 0.26890  0.95110  0.66570  Biso   1.000  C
  C51      1.0000 0.26890  0.54890  0.16570  Biso   1.000  C
  C52      1.0000 0.73110  0.04890  0.33430  Biso   1.000  C
  C53      1.0000 0.88320  0.41090  0.92810  Biso   1.000  C
  C54      1.0000 0.11680  0.91090  0.57190  Biso   1.000  C
  C55      1.0000 0.11680  0.58910  0.07190  Biso   1.000  C
  C56      1.0000 0.88320  0.08910  0.42810  Biso   1.000  C
  C57      1.0000 0.91540  0.38140  0.87130  Biso   1.000  C
  C58      1.0000 0.08460  0.88140  0.62870  Biso   1.000  C
  C59      1.0000 0.08460  0.61860  0.12870  Biso   1.000  C
  C60      1.0000 0.91540  0.11860  0.37130  Biso   1.000  C
  C61      1.0000 0.70450  0.49950  0.94750  Biso   1.000  C
  C62      1.0000 0.29550  0.99950  0.55250  Biso   1.000  C
  C63      1.0000 0.29550  0.50050  0.05250  Biso   1.000  C
  C64      1.0000 0.70450  0.00050  0.44750  Biso   1.000  C
  N25      1.0000 0.78980  0.41890  0.61040  Biso   1.000  N
  N26      1.0000 0.21020  0.91890  0.88960  Biso   1.000  N
  N27      1.0000 0.21020  0.58110  0.38960  Biso   1.000  N
  N28      1.0000 0.78980  0.08110  0.11040  Biso   1.000  N
  N29      1.0000 0.64270  0.47940  0.71250  Biso   1.000  N
  N30      1.0000 0.35730  0.97940  0.78750  Biso   1.000  N
  N31      1.0000 0.35730  0.52060  0.28750  Biso   1.000  N
  N32      1.0000 0.64270  0.02060  0.21250  Biso   1.000  N
  C65      1.0000 0.46110  0.47630  0.66160  Biso   1.000  C
  C66      1.0000 0.53890  0.97630  0.83840  Biso   1.000  C
  C67      1.0000 0.53890  0.52370  0.33840  Biso   1.000  C
  C68      1.0000 0.46110  0.02370  0.16160  Biso   1.000  C
  C69      1.0000 0.48700  0.47120  0.58590  Biso   1.000  C
  C70      1.0000 0.51300  0.97120  0.91410  Biso   1.000  C
  C71      1.0000 0.51300  0.52880  0.41410  Biso   1.000  C
  C72      1.0000 0.48700  0.02880  0.08590  Biso   1.000  C
  C73      1.0000 0.59700  0.42100  0.56910  Biso   1.000  C
  C74      1.0000 0.40300  0.92100  0.93090  Biso   1.000  C
  C75      1.0000 0.40300  0.57900  0.43090  Biso   1.000  C
  C76      1.0000 0.59700  0.07900  0.06910  Biso   1.000  C
  C77      1.0000 0.89960  0.47050  0.60190  Biso   1.000  C
  C78      1.0000 0.10040  0.97050  0.89810  Biso   1.000  C
  C79      1.0000 0.10040  0.52950  0.39810  Biso   1.000  C
  C80      1.0000 0.89960  0.02950  0.10190  Biso   1.000  C
  C81      1.0000 0.93370  0.50760  0.66630  Biso   1.000  C
  C82      1.0000 0.06630  0.00760  0.83370  Biso   1.000  C
  C83      1.0000 0.06630  0.49240  0.33370  Biso   1.000  C
  C84      1.0000 0.93370  0.99240  0.16630  Biso   1.000  C
  C85      1.0000 0.76370  0.52670  0.69630  Biso   1.000  C
  C86      1.0000 0.23630  0.02670  0.80370  Biso   1.000  C
  C87      1.0000 0.23630  0.47330  0.30370  Biso   1.000  C
  C88      1.0000 0.76370  0.97330  0.19630  Biso   1.000  C
  Cl9      1.0000 0.17540  0.56450  0.85840  Biso   1.000  Cl
  Cl10     1.0000 0.82460  0.06450  0.64160  Biso   1.000  Cl
  Cl11     1.0000 0.82460  0.43550  0.14160  Biso   1.000  Cl
  Cl12     1.0000 0.17540  0.93550  0.35840  Biso   1.000  Cl
  O1       1.0000 0.99560  0.57260  0.87320  Biso   1.000  O
  O2       1.0000 0.00440  0.07260  0.62680  Biso   1.000  O
  O3       1.0000 0.00440  0.42740  0.12680  Biso   1.000  O
  O4       1.0000 0.99560  0.92740  0.37320  Biso   1.000  O
  O5       1.0000 0.18420  0.58660  0.79140  Biso   1.000  O
  O6       1.0000 0.81580  0.08660  0.70860  Biso   1.000  O
  O7       1.0000 0.81580  0.41340  0.20860  Biso   1.000  O
  O8       1.0000 0.18420  0.91340  0.29140  Biso   1.000  O
  O9       1.0000 0.20950  0.50560  0.86070  Biso   1.000  O
  O10      1.0000 0.79050  0.00560  0.63930  Biso   1.000  O
  O11      1.0000 0.79050  0.49440  0.13930  Biso   1.000  O
  O12      1.0000 0.20950  0.99440  0.36070  Biso   1.000  O
  O13      1.0000 0.30590  0.59110  0.90940  Biso   1.000  O
  O14      1.0000 0.69410  0.09110  0.59060  Biso   1.000  O
  O15      1.0000 0.69410  0.40890  0.09060  Biso   1.000  O
  O16      1.0000 0.30590  0.90890  0.40940  Biso   1.000  O
  Cl13     1.0000 0.06040  0.15400  0.97370  Biso   1.000  Cl
  Cl14     1.0000 0.93960  0.65400  0.52630  Biso   1.000  Cl
  Cl15     1.0000 0.93960  0.84600  0.02630  Biso   1.000  Cl
  Cl16     1.0000 0.06040  0.34600  0.47370  Biso   1.000  Cl
  O17      1.0000 0.21450  0.12430  0.95850  Biso   1.000  O
  O18      1.0000 0.78550  0.62430  0.54150  Biso   1.000  O
  O19      1.0000 0.78550  0.87570  0.04150  Biso   1.000  O
  O20      1.0000 0.21450  0.37570  0.45850  Biso   1.000  O
  O21      1.0000 0.98780  0.16820  0.03770  Biso   1.000  O
  O22      1.0000 0.01220  0.66820  0.46230  Biso   1.000  O
  O23      1.0000 0.01220  0.83180  0.96230  Biso   1.000  O
  O24      1.0000 0.98780  0.33180  0.53770  Biso   1.000  O
  O25      1.0000 0.90360  0.12300  0.94210  Biso   1.000  O
  O26      1.0000 0.09640  0.62300  0.55790  Biso   1.000  O
  O27      1.0000 0.09640  0.87700  0.05790  Biso   1.000  O
  O28      1.0000 0.90360  0.37700  0.44210  Biso   1.000  O
  O29      1.0000 0.01900  0.20390  0.93540  Biso   1.000  O
  O30      1.0000 0.98100  0.70390  0.56460  Biso   1.000  O
  O31      1.0000 0.98100  0.79610  0.06460  Biso   1.000  O
  O32      1.0000 0.01900  0.29610  0.43540  Biso   1.000  O
  O33      1.0000 0.15090  0.10090  0.97220  Biso   1.000  O
  O34      1.0000 0.84910  0.60090  0.52780  Biso   1.000  O
  O35      1.0000 0.84910  0.89910  0.02780  Biso   1.000  O
  O36      1.0000 0.15090  0.39910  0.47220  Biso   1.000  O
  O37      1.0000 0.06400  0.15350  0.04320  Biso   1.000  O
  O38      1.0000 0.93600  0.65350  0.45680  Biso   1.000  O
  O39      1.0000 0.93600  0.84650  0.95680  Biso   1.000  O
  O40      1.0000 0.06400  0.34650  0.54320  Biso   1.000  O
  O41      1.0000 0.94220  0.16380  0.91590  Biso   1.000  O
  O42      1.0000 0.05780  0.66380  0.58410  Biso   1.000  O
  O43      1.0000 0.05780  0.83620  0.08410  Biso   1.000  O
  O44      1.0000 0.94220  0.33620  0.41590  Biso   1.000  O
  O45      1.0000 0.23440  0.18920  0.97720  Biso   1.000  O
  O46      1.0000 0.76560  0.68920  0.52280  Biso   1.000  O
  O47      1.0000 0.76560  0.81080  0.02280  Biso   1.000  O
  O48      1.0000 0.23440  0.31080  0.47720  Biso   1.000  O
  H1       1.0000 0.53160  0.19120  0.87830  Biso   1.000  H
  H2       1.0000 0.46840  0.69120  0.62170  Biso   1.000  H
  H3       1.0000 0.46840  0.80880  0.12170  Biso   1.000  H
  H4       1.0000 0.53160  0.30880  0.37830  Biso   1.000  H
  H5       1.0000 0.66260  0.22310  0.83590  Biso   1.000  H
  H6       1.0000 0.33740  0.72310  0.66410  Biso   1.000  H
  H7       1.0000 0.33740  0.77690  0.16410  Biso   1.000  H
  H8       1.0000 0.66260  0.27690  0.33590  Biso   1.000  H
  H9       1.0000 0.49530  0.37080  0.99030  Biso   1.000  H
  H10      1.0000 0.50470  0.87080  0.50970  Biso   1.000  H
  H11      1.0000 0.50470  0.62920  0.00970  Biso   1.000  H
  H12      1.0000 0.49530  0.12920  0.49030  Biso   1.000  H
  H13      1.0000 0.33240  0.39630  0.87120  Biso   1.000  H
  H14      1.0000 0.66760  0.89630  0.62880  Biso   1.000  H
  H15      1.0000 0.66760  0.60370  0.12880  Biso   1.000  H
  H16      1.0000 0.33240  0.10370  0.37120  Biso   1.000  H
  H17      1.0000 0.22470  0.18720  0.84440  Biso   1.000  H
  H18      1.0000 0.77530  0.68720  0.65560  Biso   1.000  H
  H19      1.0000 0.77530  0.81280  0.15560  Biso   1.000  H
  H20      1.0000 0.22470  0.31280  0.34440  Biso   1.000  H
  H21      1.0000 0.21760  0.14950  0.77840  Biso   1.000  H
  H22      1.0000 0.78240  0.64950  0.72160  Biso   1.000  H
  H23      1.0000 0.78240  0.85050  0.22160  Biso   1.000  H
  H24      1.0000 0.21760  0.35050  0.27840  Biso   1.000  H
  H25      1.0000 0.04190  0.25380  0.78090  Biso   1.000  H
  H26      1.0000 0.95810  0.75380  0.71910  Biso   1.000  H
  H27      1.0000 0.95810  0.74620  0.21910  Biso   1.000  H
  H28      1.0000 0.04190  0.24620  0.28090  Biso   1.000  H
  H29      1.0000 0.94030  0.19640  0.76890  Biso   1.000  H
  H30      1.0000 0.05970  0.69640  0.73110  Biso   1.000  H
  H31      1.0000 0.05970  0.80360  0.23110  Biso   1.000  H
  H32      1.0000 0.94030  0.30360  0.26890  Biso   1.000  H
  H33      1.0000 0.00080  0.19100  0.65800  Biso   1.000  H
  H34      1.0000 0.99920  0.69100  0.84200  Biso   1.000  H
  H35      1.0000 0.99920  0.80900  0.34200  Biso   1.000  H
  H36      1.0000 0.00080  0.30900  0.15800  Biso   1.000  H
  H37      1.0000 0.90720  0.24880  0.66660  Biso   1.000  H
  H38      1.0000 0.09280  0.74880  0.83340  Biso   1.000  H
  H39      1.0000 0.09280  0.75120  0.33340  Biso   1.000  H
  H40      1.0000 0.90720  0.25120  0.16660  Biso   1.000  H
  H41      1.0000 0.39120  0.23800  0.60840  Biso   1.000  H
  H42      1.0000 0.60880  0.73800  0.89160  Biso   1.000  H
  H43      1.0000 0.60880  0.76200  0.39160  Biso   1.000  H
  H44      1.0000 0.39120  0.26200  0.10840  Biso   1.000  H
  H45      1.0000 0.21000  0.20540  0.57770  Biso   1.000  H
  H46      1.0000 0.79000  0.70540  0.92230  Biso   1.000  H
  H47      1.0000 0.79000  0.79460  0.42230  Biso   1.000  H
  H48      1.0000 0.21000  0.29460  0.07770  Biso   1.000  H
  H49      1.0000 0.42780  0.14290  0.63480  Biso   1.000  H
  H50      1.0000 0.57220  0.64290  0.86520  Biso   1.000  H
  H51      1.0000 0.57220  0.85710  0.36520  Biso   1.000  H
  H52      1.0000 0.42780  0.35710  0.13480  Biso   1.000  H
  H53      1.0000 0.25870  0.14530  0.67340  Biso   1.000  H
  H54      1.0000 0.74130  0.64530  0.82660  Biso   1.000  H
  H55      1.0000 0.74130  0.85470  0.32660  Biso   1.000  H
  H56      1.0000 0.25870  0.35470  0.17340  Biso   1.000  H
  H57      1.0000 0.53510  0.14500  0.75410  Biso   1.000  H
  H58      1.0000 0.46490  0.64500  0.74590  Biso   1.000  H
  H59      1.0000 0.46490  0.85500  0.24590  Biso   1.000  H
  H60      1.0000 0.53510  0.35500  0.25410  Biso   1.000  H
  H61      1.0000 0.59640  0.19990  0.72090  Biso   1.000  H
  H62      1.0000 0.40360  0.69990  0.77910  Biso   1.000  H
  H63      1.0000 0.40360  0.80010  0.27910  Biso   1.000  H
  H64      1.0000 0.59640  0.30010  0.22090  Biso   1.000  H
  H65      1.0000 0.60950  0.52550  0.79840  Biso   1.000  H
  H66      1.0000 0.39050  0.02550  0.70160  Biso   1.000  H
  H67      1.0000 0.39050  0.47450  0.20160  Biso   1.000  H
  H68      1.0000 0.60950  0.97450  0.29840  Biso   1.000  H
  H69      1.0000 0.47160  0.47470  0.78500  Biso   1.000  H
  H70      1.0000 0.52840  0.97470  0.71500  Biso   1.000  H
  H71      1.0000 0.52840  0.52530  0.21500  Biso   1.000  H
  H72      1.0000 0.47160  0.02530  0.28500  Biso   1.000  H
  H73      1.0000 0.93090  0.40200  0.97650  Biso   1.000  H
  H74      1.0000 0.06910  0.90200  0.52350  Biso   1.000  H
  H75      1.0000 0.06910  0.59800  0.02350  Biso   1.000  H
  H76      1.0000 0.93090  0.09800  0.47650  Biso   1.000  H
  H77      1.0000 0.99260  0.34850  0.87150  Biso   1.000  H
  H78      1.0000 0.00740  0.84850  0.62850  Biso   1.000  H
  H79      1.0000 0.00740  0.65150  0.12850  Biso   1.000  H
  H80      1.0000 0.99260  0.15150  0.37150  Biso   1.000  H
  H81      1.0000 0.38900  0.50940  0.66680  Biso   1.000  H
  H82      1.0000 0.61100  0.00940  0.83320  Biso   1.000  H
  H83      1.0000 0.61100  0.49060  0.33320  Biso   1.000  H
  H84      1.0000 0.38900  0.99060  0.16680  Biso   1.000  H
  H85      1.0000 0.39200  0.44410  0.67290  Biso   1.000  H
  H86      1.0000 0.60800  0.94410  0.82710  Biso   1.000  H
  H87      1.0000 0.60800  0.55590  0.32710  Biso   1.000  H
  H88      1.0000 0.39200  0.05590  0.17290  Biso   1.000  H
  H89      1.0000 0.55050  0.50450  0.57440  Biso   1.000  H
  H90      1.0000 0.44950  0.00450  0.92560  Biso   1.000  H
  H91      1.0000 0.44950  0.49550  0.42560  Biso   1.000  H
  H92      1.0000 0.55050  0.99550  0.07440  Biso   1.000  H
  H93      1.0000 0.36660  0.47060  0.55590  Biso   1.000  H
  H94      1.0000 0.63340  0.97060  0.94410  Biso   1.000  H
  H95      1.0000 0.63340  0.52940  0.44410  Biso   1.000  H
  H96      1.0000 0.36660  0.02940  0.05590  Biso   1.000  H
  H97      1.0000 0.53170  0.38750  0.57850  Biso   1.000  H
  H98      1.0000 0.46830  0.88750  0.92150  Biso   1.000  H
  H99      1.0000 0.46830  0.61250  0.42150  Biso   1.000  H
  H100     1.0000 0.53170  0.11250  0.07850  Biso   1.000  H
  H101     1.0000 0.60330  0.42120  0.51980  Biso   1.000  H
  H102     1.0000 0.39670  0.92120  0.98020  Biso   1.000  H
  H103     1.0000 0.39670  0.57880  0.48020  Biso   1.000  H
  H104     1.0000 0.60330  0.07880  0.01980  Biso   1.000  H
  H105     1.0000 0.83450  0.49210  0.56300  Biso   1.000  H
  H106     1.0000 0.16550  0.99210  0.93700  Biso   1.000  H
  H107     1.0000 0.16550  0.50790  0.43700  Biso   1.000  H
  H108     1.0000 0.83450  0.00790  0.06300  Biso   1.000  H
  H109     1.0000 0.01750  0.45940  0.59050  Biso   1.000  H
  H110     1.0000 0.98250  0.95940  0.90950  Biso   1.000  H
  H111     1.0000 0.98250  0.54060  0.40950  Biso   1.000  H
  H112     1.0000 0.01750  0.04060  0.09050  Biso   1.000  H
  H113     1.0000 0.99940  0.54060  0.65540  Biso   1.000  H
  H114     1.0000 0.00060  0.04060  0.84460  Biso   1.000  H
  H115     1.0000 0.00060  0.45940  0.34460  Biso   1.000  H
  H116     1.0000 0.99940  0.95940  0.15540  Biso   1.000  H
  H117     1.0000 0.01530  0.48760  0.70270  Biso   1.000  H
  H118     1.0000 0.98470  0.98760  0.79730  Biso   1.000  H
  H119     1.0000 0.98470  0.51240  0.29730  Biso   1.000  H
  H120     1.0000 0.01530  0.01240  0.20270  Biso   1.000  H
  H121     1.0000 0.80560  0.54760  0.73880  Biso   1.000  H
  H122     1.0000 0.19440  0.04760  0.76120  Biso   1.000  H
  H123     1.0000 0.19440  0.45240  0.26120  Biso   1.000  H
  H124     1.0000 0.80560  0.95240  0.23880  Biso   1.000  H
  H125     1.0000 0.69050  0.55170  0.66330  Biso   1.000  H
  H126     1.0000 0.30950  0.05170  0.83670  Biso   1.000  H
  H127     1.0000 0.30950  0.44830  0.33670  Biso   1.000  H
  H128     1.0000 0.69050  0.94830  0.16330  Biso   1.000  H
