data_image0
_cell_length_a       4.0185
_cell_length_b       19.4997
_cell_length_c       7.2382
_cell_angle_alpha    90
_cell_angle_beta     92.118
_cell_angle_gamma    90

_symmetry_space_group_name_H-M    "P 1"
_symmetry_int_tables_number       1

loop_
  _symmetry_equiv_pos_as_xyz
  'x, y, z'

loop_
  _atom_site_label
  _atom_site_occupancy
  _atom_site_fract_x
  _atom_site_fract_y
  _atom_site_fract_z
  _atom_site_thermal_displace_type
  _atom_site_B_iso_or_equiv
  _atom_site_type_symbol
  Cu1      1.0000 0.24829  0.19840  0.56092  Biso   1.000  Cu
  Cu2      1.0000 0.75171  0.69840  0.43908  Biso   1.000  Cu
  Cl1      1.0000 0.60940  0.23225  0.35426  Biso   1.000  Cl
  Cl2      1.0000 0.39060  0.73225  0.64574  Biso   1.000  Cl
  N1       1.0000 0.22140  0.28233  0.71540  Biso   1.000  N
  N2       1.0000 0.77860  0.78233  0.28460  Biso   1.000  N
  C1       1.0000 0.32790  0.34530  0.66870  Biso   1.000  C
  C2       1.0000 0.67210  0.84530  0.33130  Biso   1.000  C
  C3       1.0000 0.29980  0.40080  0.78370  Biso   1.000  C
  C4       1.0000 0.70020  0.90080  0.21630  Biso   1.000  C
  C5       1.0000 0.16070  0.39140  0.95410  Biso   1.000  C
  C6       1.0000 0.83930  0.89140  0.04590  Biso   1.000  C
  C7       1.0000 0.04910  0.32690  0.00270  Biso   1.000  C
  C8       1.0000 0.95090  0.82690  0.99730  Biso   1.000  C
  C9       1.0000 0.08100  0.27300  0.87950  Biso   1.000  C
  C10      1.0000 0.91900  0.77300  0.12050  Biso   1.000  C
  C11      1.0000 0.96610  0.20120  0.92200  Biso   1.000  C
  C12      1.0000 0.03390  0.70120  0.07800  Biso   1.000  C
  N3       1.0000 0.02210  0.15860  0.76230  Biso   1.000  N
  N4       1.0000 0.97790  0.65860  0.23770  Biso   1.000  N
  C13      1.0000 0.93920  0.09350  0.75740  Biso   1.000  C
  C14      1.0000 0.06080  0.59350  0.24260  Biso   1.000  C
  O1       1.0000 0.80640  0.05991  0.88370  Biso   1.000  O
  O2       1.0000 0.19360  0.55991  0.11630  Biso   1.000  O
  C15      1.0000 0.01910  0.05740  0.57660  Biso   1.000  C
  C16      1.0000 0.98090  0.55740  0.42340  Biso   1.000  C
  C17      1.0000 0.17010  0.98700  0.60870  Biso   1.000  C
  C18      1.0000 0.82990  0.48700  0.39130  Biso   1.000  C
  O3       1.0000 0.24000  0.10123  0.47900  Biso   1.000  O
  O4       1.0000 0.76000  0.60123  0.52100  Biso   1.000  O
  O5       1.0000 0.31890  0.05464  0.14690  Biso   1.000  O
  O6       1.0000 0.68110  0.55464  0.85310  Biso   1.000  O
  H1       1.0000 0.26970  0.08800  0.36760  Biso   1.000  H
  H2       1.0000 0.73030  0.58800  0.63240  Biso   1.000  H
  H3       1.0000 0.47650  0.06200  0.07990  Biso   1.000  H
  H4       1.0000 0.52350  0.56200  0.92010  Biso   1.000  H
  H5       1.0000 0.14390  0.05100  0.08050  Biso   1.000  H
  H6       1.0000 0.85610  0.55100  0.91950  Biso   1.000  H
  H7       1.0000 0.42580  0.35140  0.55240  Biso   1.000  H
  H8       1.0000 0.57420  0.85140  0.44760  Biso   1.000  H
  H9       1.0000 0.37430  0.44480  0.74710  Biso   1.000  H
  H10      1.0000 0.62570  0.94480  0.25290  Biso   1.000  H
  H11      1.0000 0.14200  0.42880  0.03690  Biso   1.000  H
  H12      1.0000 0.85800  0.92880  0.96310  Biso   1.000  H
  H13      1.0000 0.95200  0.31970  0.11880  Biso   1.000  H
  H14      1.0000 0.04800  0.81970  0.88120  Biso   1.000  H
  H15      1.0000 0.73570  0.20160  0.94710  Biso   1.000  H
  H16      1.0000 0.26430  0.70160  0.05290  Biso   1.000  H
  H17      1.0000 0.08920  0.18380  0.02640  Biso   1.000  H
  H18      1.0000 0.91080  0.68380  0.97360  Biso   1.000  H
  H19      1.0000 0.81900  0.04970  0.50560  Biso   1.000  H
  H20      1.0000 0.18100  0.54970  0.49440  Biso   1.000  H
  H21      1.0000 0.21530  0.96660  0.49320  Biso   1.000  H
  H22      1.0000 0.78470  0.46660  0.50680  Biso   1.000  H
  H23      1.0000 0.37140  0.99130  0.68090  Biso   1.000  H
  H24      1.0000 0.62860  0.49130  0.31910  Biso   1.000  H
  H25      1.0000 0.01820  0.95900  0.67230  Biso   1.000  H
  H26      1.0000 0.98180  0.45900  0.32770  Biso   1.000  H
