data_image0
_cell_length_a       4.0535
_cell_length_b       19.3293
_cell_length_c       7.3828
_cell_angle_alpha    90
_cell_angle_beta     92.357
_cell_angle_gamma    90

_symmetry_space_group_name_H-M    "P 1"
_symmetry_int_tables_number       1

loop_
  _symmetry_equiv_pos_as_xyz
  'x, y, z'

loop_
  _atom_site_label
  _atom_site_occupancy
  _atom_site_fract_x
  _atom_site_fract_y
  _atom_site_fract_z
  _atom_site_thermal_displace_type
  _atom_site_B_iso_or_equiv
  _atom_site_type_symbol
  Cu1      1.0000 0.24290  0.73260  0.56235  Biso   1.000  Cu
  Cu2      1.0000 0.75710  0.23260  0.43765  Biso   1.000  Cu
  Br1      1.0000 0.62580  0.76615  0.34579  Biso   1.000  Br
  Br2      1.0000 0.37420  0.26615  0.65421  Biso   1.000  Br
  N1       1.0000 0.22380  0.81840  0.71050  Biso   1.000  N
  N2       1.0000 0.77620  0.31840  0.28950  Biso   1.000  N
  C1       1.0000 0.33100  0.88150  0.66330  Biso   1.000  C
  C2       1.0000 0.66900  0.38150  0.33670  Biso   1.000  C
  C3       1.0000 0.31100  0.93770  0.77420  Biso   1.000  C
  C4       1.0000 0.68900  0.43770  0.22580  Biso   1.000  C
  C5       1.0000 0.17600  0.92990  0.94260  Biso   1.000  C
  C6       1.0000 0.82400  0.42990  0.05740  Biso   1.000  C
  C7       1.0000 0.06400  0.86530  0.99200  Biso   1.000  C
  C8       1.0000 0.93600  0.36530  0.00800  Biso   1.000  C
  C9       1.0000 0.08600  0.80990  0.87320  Biso   1.000  C
  C10      1.0000 0.91400  0.30990  0.12680  Biso   1.000  C
  C11      1.0000 0.97000  0.73780  0.91630  Biso   1.000  C
  C12      1.0000 0.03000  0.23780  0.08370  Biso   1.000  C
  N3       1.0000 0.02570  0.69370  0.76210  Biso   1.000  N
  N4       1.0000 0.97430  0.19370  0.23790  Biso   1.000  N
  C13      1.0000 0.94200  0.62860  0.76100  Biso   1.000  C
  C14      1.0000 0.05800  0.12860  0.23900  Biso   1.000  C
  O1       1.0000 0.80740  0.59570  0.88780  Biso   1.000  O
  O2       1.0000 0.19260  0.09570  0.11220  Biso   1.000  O
  C15      1.0000 0.01600  0.59040  0.58580  Biso   1.000  C
  C16      1.0000 0.98400  0.09040  0.41420  Biso   1.000  C
  C17      1.0000 0.16400  0.51930  0.62200  Biso   1.000  C
  C18      1.0000 0.83600  0.01930  0.37800  Biso   1.000  C
  O3       1.0000 0.23730  0.63340  0.48820  Biso   1.000  O
  O4       1.0000 0.76270  0.13340  0.51180  Biso   1.000  O
  O5       1.0000 0.30610  0.59090  0.15160  Biso   1.000  O
  O6       1.0000 0.69390  0.09090  0.84840  Biso   1.000  O
  H1       1.0000 0.42380  0.88720  0.54820  Biso   1.000  H
  H2       1.0000 0.57620  0.38720  0.45180  Biso   1.000  H
  H3       1.0000 0.38830  0.98160  0.73660  Biso   1.000  H
  H4       1.0000 0.61170  0.48160  0.26340  Biso   1.000  H
  H5       1.0000 0.16030  0.96820  0.02240  Biso   1.000  H
  H6       1.0000 0.83970  0.46820  0.97760  Biso   1.000  H
  H7       1.0000 0.97280  0.85870  0.10720  Biso   1.000  H
  H8       1.0000 0.02720  0.35870  0.89280  Biso   1.000  H
  H9       1.0000 0.74090  0.73870  0.93940  Biso   1.000  H
  H10      1.0000 0.25910  0.23870  0.06060  Biso   1.000  H
  H11      1.0000 0.08980  0.72070  0.02010  Biso   1.000  H
  H12      1.0000 0.91020  0.22070  0.97990  Biso   1.000  H
  H13      1.0000 0.81710  0.58250  0.51650  Biso   1.000  H
  H14      1.0000 0.18290  0.08250  0.48350  Biso   1.000  H
  H15      1.0000 0.20600  0.49740  0.51000  Biso   1.000  H
  H16      1.0000 0.79400  0.99740  0.49000  Biso   1.000  H
  H17      1.0000 0.36460  0.52390  0.69190  Biso   1.000  H
  H18      1.0000 0.63540  0.02390  0.30810  Biso   1.000  H
  H19      1.0000 0.01300  0.49210  0.68660  Biso   1.000  H
  H20      1.0000 0.98700  0.99210  0.31340  Biso   1.000  H
