data_image0
_cell_length_a       11.8389
_cell_length_b       13.3768
_cell_length_c       28.5215
_cell_angle_alpha    90
_cell_angle_beta     98.209
_cell_angle_gamma    90

_symmetry_space_group_name_H-M    "P 1"
_symmetry_int_tables_number       1

loop_
  _symmetry_equiv_pos_as_xyz
  'x, y, z'

loop_
  _atom_site_label
  _atom_site_occupancy
  _atom_site_fract_x
  _atom_site_fract_y
  _atom_site_fract_z
  _atom_site_thermal_displace_type
  _atom_site_B_iso_or_equiv
  _atom_site_type_symbol
  Cu1      1.0000 0.54934  0.24846  0.57151  Biso   1.000  Cu
  Cu2      1.0000 0.04934  0.74846  0.07151  Biso   1.000  Cu
  Cu3      1.0000 0.04934  0.75154  0.57151  Biso   1.000  Cu
  Cu4      1.0000 0.54934  0.25154  0.07151  Biso   1.000  Cu
  Cu5      1.0000 0.45066  0.75154  0.42849  Biso   1.000  Cu
  Cu6      1.0000 0.95066  0.25154  0.92849  Biso   1.000  Cu
  Cu7      1.0000 0.95066  0.24846  0.42849  Biso   1.000  Cu
  Cu8      1.0000 0.45066  0.74846  0.92849  Biso   1.000  Cu
  Cu9      1.0000 0.25000  0.25000  0.25000  Biso   1.000  Cu
  Cu10     1.0000 0.75000  0.75000  0.75000  Biso   1.000  Cu
  Cu11     1.0000 0.75000  0.75000  0.25000  Biso   1.000  Cu
  Cu12     1.0000 0.25000  0.25000  0.75000  Biso   1.000  Cu
  N1       1.0000 0.50329  0.23505  0.48914  Biso   1.000  N
  N2       1.0000 0.00329  0.73505  0.98914  Biso   1.000  N
  N3       1.0000 0.00329  0.76495  0.48914  Biso   1.000  N
  N4       1.0000 0.50329  0.26495  0.98914  Biso   1.000  N
  N5       1.0000 0.49671  0.76495  0.51086  Biso   1.000  N
  N6       1.0000 0.99671  0.26495  0.01086  Biso   1.000  N
  N7       1.0000 0.99671  0.23505  0.51086  Biso   1.000  N
  N8       1.0000 0.49671  0.73505  0.01086  Biso   1.000  N
  N9       1.0000 0.44142  0.36467  0.57917  Biso   1.000  N
  N10      1.0000 0.94142  0.86467  0.07917  Biso   1.000  N
  N11      1.0000 0.94142  0.63533  0.57917  Biso   1.000  N
  N12      1.0000 0.44142  0.13533  0.07917  Biso   1.000  N
  N13      1.0000 0.55858  0.63533  0.42083  Biso   1.000  N
  N14      1.0000 0.05858  0.13533  0.92083  Biso   1.000  N
  N15      1.0000 0.05858  0.36467  0.42083  Biso   1.000  N
  N16      1.0000 0.55858  0.86467  0.92083  Biso   1.000  N
  N17      1.0000 0.66615  0.13629  0.58661  Biso   1.000  N
  N18      1.0000 0.16615  0.63629  0.08661  Biso   1.000  N
  N19      1.0000 0.16615  0.86371  0.58661  Biso   1.000  N
  N20      1.0000 0.66615  0.36371  0.08661  Biso   1.000  N
  N21      1.0000 0.33385  0.86371  0.41339  Biso   1.000  N
  N22      1.0000 0.83385  0.36371  0.91339  Biso   1.000  N
  N23      1.0000 0.83385  0.13629  0.41339  Biso   1.000  N
  N24      1.0000 0.33385  0.63629  0.91339  Biso   1.000  N
  N25      1.0000 0.26318  0.39903  0.25150  Biso   1.000  N
  N26      1.0000 0.76318  0.89903  0.75150  Biso   1.000  N
  N27      1.0000 0.76318  0.60097  0.25150  Biso   1.000  N
  N28      1.0000 0.26318  0.10097  0.75150  Biso   1.000  N
  N29      1.0000 0.73682  0.60097  0.74850  Biso   1.000  N
  N30      1.0000 0.23682  0.10097  0.24850  Biso   1.000  N
  N31      1.0000 0.23682  0.39903  0.74850  Biso   1.000  N
  N32      1.0000 0.73682  0.89903  0.24850  Biso   1.000  N
  O1       1.0000 0.31139  0.24479  0.31977  Biso   1.000  O
  O2       1.0000 0.81139  0.74479  0.81977  Biso   1.000  O
  O3       1.0000 0.81139  0.75521  0.31977  Biso   1.000  O
  O4       1.0000 0.31139  0.25521  0.81977  Biso   1.000  O
  O5       1.0000 0.68861  0.75521  0.68023  Biso   1.000  O
  O6       1.0000 0.18861  0.25521  0.18023  Biso   1.000  O
  O7       1.0000 0.18861  0.24479  0.68023  Biso   1.000  O
  O8       1.0000 0.68861  0.74479  0.18023  Biso   1.000  O
  O9       1.0000 0.49881  0.23888  0.31383  Biso   1.000  O
  O10      1.0000 0.99881  0.73888  0.81383  Biso   1.000  O
  O11      1.0000 0.99881  0.76112  0.31383  Biso   1.000  O
  O12      1.0000 0.49881  0.26112  0.81383  Biso   1.000  O
  O13      1.0000 0.50119  0.76112  0.68617  Biso   1.000  O
  O14      1.0000 0.00119  0.26112  0.18617  Biso   1.000  O
  O15      1.0000 0.00119  0.23888  0.68617  Biso   1.000  O
  O16      1.0000 0.50119  0.73888  0.18617  Biso   1.000  O
  O17      1.0000 0.16857  0.65479  0.55768  Biso   1.000  O
  O18      1.0000 0.66857  0.15479  0.05768  Biso   1.000  O
  O19      1.0000 0.66857  0.34521  0.55768  Biso   1.000  O
  O20      1.0000 0.16857  0.84521  0.05768  Biso   1.000  O
  O21      1.0000 0.83143  0.34521  0.44232  Biso   1.000  O
  O22      1.0000 0.33143  0.84521  0.94232  Biso   1.000  O
  O23      1.0000 0.33143  0.65479  0.44232  Biso   1.000  O
  O24      1.0000 0.83143  0.15479  0.94232  Biso   1.000  O
  O25      1.0000 0.19114  0.62945  0.63550  Biso   1.000  O
  O26      1.0000 0.69114  0.12945  0.13550  Biso   1.000  O
  O27      1.0000 0.69114  0.37055  0.63550  Biso   1.000  O
  O28      1.0000 0.19114  0.87055  0.13550  Biso   1.000  O
  O29      1.0000 0.80886  0.37055  0.36450  Biso   1.000  O
  O30      1.0000 0.30886  0.87055  0.86450  Biso   1.000  O
  O31      1.0000 0.30886  0.62945  0.36450  Biso   1.000  O
  O32      1.0000 0.80886  0.12945  0.86450  Biso   1.000  O
  O33      1.0000 0.92571  0.84691  0.57752  Biso   1.000  O
  O34      1.0000 0.42571  0.34691  0.07752  Biso   1.000  O
  O35      1.0000 0.42571  0.15309  0.57752  Biso   1.000  O
  O36      1.0000 0.92571  0.65309  0.07752  Biso   1.000  O
  O37      1.0000 0.07429  0.15309  0.42248  Biso   1.000  O
  O38      1.0000 0.57429  0.65309  0.92248  Biso   1.000  O
  O39      1.0000 0.57429  0.84691  0.42248  Biso   1.000  O
  O40      1.0000 0.07429  0.34691  0.92248  Biso   1.000  O
  O41      1.0000 0.96551  0.88563  0.65459  Biso   1.000  O
  O42      1.0000 0.46551  0.38563  0.15459  Biso   1.000  O
  O43      1.0000 0.46551  0.11437  0.65459  Biso   1.000  O
  O44      1.0000 0.96551  0.61437  0.15459  Biso   1.000  O
  O45      1.0000 0.03449  0.11437  0.34541  Biso   1.000  O
  O46      1.0000 0.53449  0.61437  0.84541  Biso   1.000  O
  O47      1.0000 0.53449  0.88563  0.34541  Biso   1.000  O
  O48      1.0000 0.03449  0.38563  0.84541  Biso   1.000  O
  O49      1.0000 0.42916  0.23732  0.22193  Biso   1.000  O
  O50      1.0000 0.92916  0.73732  0.72193  Biso   1.000  O
  O51      1.0000 0.92916  0.76268  0.22193  Biso   1.000  O
  O52      1.0000 0.42916  0.26268  0.72193  Biso   1.000  O
  O53      1.0000 0.57084  0.76268  0.77807  Biso   1.000  O
  O54      1.0000 0.07084  0.26268  0.27807  Biso   1.000  O
  O55      1.0000 0.07084  0.23732  0.77807  Biso   1.000  O
  O56      1.0000 0.57084  0.73732  0.27807  Biso   1.000  O
  H1       1.0000 0.47290  0.24490  0.25240  Biso   1.000  H
  H2       1.0000 0.97290  0.74490  0.75240  Biso   1.000  H
  H3       1.0000 0.97290  0.75510  0.25240  Biso   1.000  H
  H4       1.0000 0.47290  0.25510  0.75240  Biso   1.000  H
  H5       1.0000 0.52710  0.75510  0.74760  Biso   1.000  H
  H6       1.0000 0.02710  0.25510  0.24760  Biso   1.000  H
  H7       1.0000 0.02710  0.24490  0.74760  Biso   1.000  H
  H8       1.0000 0.52710  0.74490  0.24760  Biso   1.000  H
  H9       1.0000 0.43940  0.29060  0.20090  Biso   1.000  H
  H10      1.0000 0.93940  0.79060  0.70090  Biso   1.000  H
  H11      1.0000 0.93940  0.70940  0.20090  Biso   1.000  H
  H12      1.0000 0.43940  0.20940  0.70090  Biso   1.000  H
  H13      1.0000 0.56060  0.70940  0.79910  Biso   1.000  H
  H14      1.0000 0.06060  0.20940  0.29910  Biso   1.000  H
  H15      1.0000 0.06060  0.29060  0.79910  Biso   1.000  H
  H16      1.0000 0.56060  0.79060  0.29910  Biso   1.000  H
  C1       1.0000 0.39460  0.22975  0.46846  Biso   1.000  C
  C2       1.0000 0.89460  0.72975  0.96846  Biso   1.000  C
  C3       1.0000 0.89460  0.77025  0.46846  Biso   1.000  C
  C4       1.0000 0.39460  0.27025  0.96846  Biso   1.000  C
  C5       1.0000 0.60540  0.77025  0.53154  Biso   1.000  C
  C6       1.0000 0.10540  0.27025  0.03154  Biso   1.000  C
  C7       1.0000 0.10540  0.22975  0.53154  Biso   1.000  C
  C8       1.0000 0.60540  0.72975  0.03154  Biso   1.000  C
  H17      1.0000 0.33760  0.22360  0.48810  Biso   1.000  H
  H18      1.0000 0.83760  0.72360  0.98810  Biso   1.000  H
  H19      1.0000 0.83760  0.77640  0.48810  Biso   1.000  H
  H20      1.0000 0.33760  0.27640  0.98810  Biso   1.000  H
  H21      1.0000 0.66240  0.77640  0.51190  Biso   1.000  H
  H22      1.0000 0.16240  0.27640  0.01190  Biso   1.000  H
  H23      1.0000 0.16240  0.22360  0.51190  Biso   1.000  H
  H24      1.0000 0.66240  0.72360  0.01190  Biso   1.000  H
  C9       1.0000 0.36090  0.23276  0.41976  Biso   1.000  C
  C10      1.0000 0.86090  0.73276  0.91976  Biso   1.000  C
  C11      1.0000 0.86090  0.76724  0.41976  Biso   1.000  C
  C12      1.0000 0.36090  0.26724  0.91976  Biso   1.000  C
  C13      1.0000 0.63910  0.76724  0.58024  Biso   1.000  C
  C14      1.0000 0.13910  0.26724  0.08024  Biso   1.000  C
  C15      1.0000 0.13910  0.23276  0.58024  Biso   1.000  C
  C16      1.0000 0.63910  0.73276  0.08024  Biso   1.000  C
  H25      1.0000 0.28330  0.22940  0.40710  Biso   1.000  H
  H26      1.0000 0.78330  0.72940  0.90710  Biso   1.000  H
  H27      1.0000 0.78330  0.77060  0.40710  Biso   1.000  H
  H28      1.0000 0.28330  0.27060  0.90710  Biso   1.000  H
  H29      1.0000 0.71670  0.77060  0.59290  Biso   1.000  H
  H30      1.0000 0.21670  0.27060  0.09290  Biso   1.000  H
  H31      1.0000 0.21670  0.22940  0.59290  Biso   1.000  H
  H32      1.0000 0.71670  0.72940  0.09290  Biso   1.000  H
  C17      1.0000 0.44370  0.24073  0.39034  Biso   1.000  C
  C18      1.0000 0.94370  0.74073  0.89034  Biso   1.000  C
  C19      1.0000 0.94370  0.75927  0.39034  Biso   1.000  C
  C20      1.0000 0.44370  0.25927  0.89034  Biso   1.000  C
  C21      1.0000 0.55630  0.75927  0.60966  Biso   1.000  C
  C22      1.0000 0.05630  0.25927  0.10966  Biso   1.000  C
  C23      1.0000 0.05630  0.24073  0.60966  Biso   1.000  C
  C24      1.0000 0.55630  0.74073  0.10966  Biso   1.000  C
  C25      1.0000 0.55700  0.24734  0.41129  Biso   1.000  C
  C26      1.0000 0.05700  0.74734  0.91129  Biso   1.000  C
  C27      1.0000 0.05700  0.75266  0.41129  Biso   1.000  C
  C28      1.0000 0.55700  0.25266  0.91129  Biso   1.000  C
  C29      1.0000 0.44300  0.75266  0.58871  Biso   1.000  C
  C30      1.0000 0.94300  0.25266  0.08871  Biso   1.000  C
  C31      1.0000 0.94300  0.24734  0.58871  Biso   1.000  C
  C32      1.0000 0.44300  0.74734  0.08871  Biso   1.000  C
  H33      1.0000 0.61580  0.25380  0.39250  Biso   1.000  H
  H34      1.0000 0.11580  0.75380  0.89250  Biso   1.000  H
  H35      1.0000 0.11580  0.74620  0.39250  Biso   1.000  H
  H36      1.0000 0.61580  0.24620  0.89250  Biso   1.000  H
  H37      1.0000 0.38420  0.74620  0.60750  Biso   1.000  H
  H38      1.0000 0.88420  0.24620  0.10750  Biso   1.000  H
  H39      1.0000 0.88420  0.25380  0.60750  Biso   1.000  H
  H40      1.0000 0.38420  0.75380  0.10750  Biso   1.000  H
  C33      1.0000 0.58203  0.24426  0.46016  Biso   1.000  C
  C34      1.0000 0.08203  0.74426  0.96016  Biso   1.000  C
  C35      1.0000 0.08203  0.75574  0.46016  Biso   1.000  C
  C36      1.0000 0.58203  0.25574  0.96016  Biso   1.000  C
  C37      1.0000 0.41797  0.75574  0.53984  Biso   1.000  C
  C38      1.0000 0.91797  0.25574  0.03984  Biso   1.000  C
  C39      1.0000 0.91797  0.24426  0.53984  Biso   1.000  C
  C40      1.0000 0.41797  0.74426  0.03984  Biso   1.000  C
  H41      1.0000 0.65900  0.24890  0.47380  Biso   1.000  H
  H42      1.0000 0.15900  0.74890  0.97380  Biso   1.000  H
  H43      1.0000 0.15900  0.75110  0.47380  Biso   1.000  H
  H44      1.0000 0.65900  0.25110  0.97380  Biso   1.000  H
  H45      1.0000 0.34100  0.75110  0.52620  Biso   1.000  H
  H46      1.0000 0.84100  0.25110  0.02620  Biso   1.000  H
  H47      1.0000 0.84100  0.24890  0.52620  Biso   1.000  H
  H48      1.0000 0.34100  0.74890  0.02620  Biso   1.000  H
  C41      1.0000 0.41660  0.24153  0.33658  Biso   1.000  C
  C42      1.0000 0.91660  0.74153  0.83658  Biso   1.000  C
  C43      1.0000 0.91660  0.75847  0.33658  Biso   1.000  C
  C44      1.0000 0.41660  0.25847  0.83658  Biso   1.000  C
  C45      1.0000 0.58340  0.75847  0.66342  Biso   1.000  C
  C46      1.0000 0.08340  0.25847  0.16342  Biso   1.000  C
  C47      1.0000 0.08340  0.24153  0.66342  Biso   1.000  C
  C48      1.0000 0.58340  0.74153  0.16342  Biso   1.000  C
  C49      1.0000 0.41991  0.43549  0.54565  Biso   1.000  C
  C50      1.0000 0.91991  0.93549  0.04565  Biso   1.000  C
  C51      1.0000 0.91991  0.56451  0.54565  Biso   1.000  C
  C52      1.0000 0.41991  0.06451  0.04565  Biso   1.000  C
  C53      1.0000 0.58009  0.56451  0.45435  Biso   1.000  C
  C54      1.0000 0.08009  0.06451  0.95435  Biso   1.000  C
  C55      1.0000 0.08009  0.43549  0.45435  Biso   1.000  C
  C56      1.0000 0.58009  0.93549  0.95435  Biso   1.000  C
  H49      1.0000 0.45630  0.43070  0.51850  Biso   1.000  H
  H50      1.0000 0.95630  0.93070  0.01850  Biso   1.000  H
  H51      1.0000 0.95630  0.56930  0.51850  Biso   1.000  H
  H52      1.0000 0.45630  0.06930  0.01850  Biso   1.000  H
  H53      1.0000 0.54370  0.56930  0.48150  Biso   1.000  H
  H54      1.0000 0.04370  0.06930  0.98150  Biso   1.000  H
  H55      1.0000 0.04370  0.43070  0.48150  Biso   1.000  H
  H56      1.0000 0.54370  0.93070  0.98150  Biso   1.000  H
  C57      1.0000 0.34716  0.51479  0.54910  Biso   1.000  C
  C58      1.0000 0.84716  0.01479  0.04910  Biso   1.000  C
  C59      1.0000 0.84716  0.48521  0.54910  Biso   1.000  C
  C60      1.0000 0.34716  0.98521  0.04910  Biso   1.000  C
  C61      1.0000 0.65284  0.48521  0.45090  Biso   1.000  C
  C62      1.0000 0.15284  0.98521  0.95090  Biso   1.000  C
  C63      1.0000 0.15284  0.51479  0.45090  Biso   1.000  C
  C64      1.0000 0.65284  0.01479  0.95090  Biso   1.000  C
  H57      1.0000 0.33360  0.56190  0.52450  Biso   1.000  H
  H58      1.0000 0.83360  0.06190  0.02450  Biso   1.000  H
  H59      1.0000 0.83360  0.43810  0.52450  Biso   1.000  H
  H60      1.0000 0.33360  0.93810  0.02450  Biso   1.000  H
  H61      1.0000 0.66640  0.43810  0.47550  Biso   1.000  H
  H62      1.0000 0.16640  0.93810  0.97550  Biso   1.000  H
  H63      1.0000 0.16640  0.56190  0.47550  Biso   1.000  H
  H64      1.0000 0.66640  0.06190  0.97550  Biso   1.000  H
  C65      1.0000 0.29400  0.52457  0.58938  Biso   1.000  C
  C66      1.0000 0.79400  0.02457  0.08938  Biso   1.000  C
  C67      1.0000 0.79400  0.47543  0.58938  Biso   1.000  C
  C68      1.0000 0.29400  0.97543  0.08938  Biso   1.000  C
  C69      1.0000 0.70600  0.47543  0.41062  Biso   1.000  C
  C70      1.0000 0.20600  0.97543  0.91062  Biso   1.000  C
  C71      1.0000 0.20600  0.52457  0.41062  Biso   1.000  C
  C72      1.0000 0.70600  0.02457  0.91062  Biso   1.000  C
  C73      1.0000 0.31830  0.45257  0.62461  Biso   1.000  C
  C74      1.0000 0.81830  0.95257  0.12461  Biso   1.000  C
  C75      1.0000 0.81830  0.54743  0.62461  Biso   1.000  C
  C76      1.0000 0.31830  0.04743  0.12461  Biso   1.000  C
  C77      1.0000 0.68170  0.54743  0.37539  Biso   1.000  C
  C78      1.0000 0.18170  0.04743  0.87539  Biso   1.000  C
  C79      1.0000 0.18170  0.45257  0.37539  Biso   1.000  C
  C80      1.0000 0.68170  0.95257  0.87539  Biso   1.000  C
  H65      1.0000 0.28570  0.45720  0.65270  Biso   1.000  H
  H66      1.0000 0.78570  0.95720  0.15270  Biso   1.000  H
  H67      1.0000 0.78570  0.54280  0.65270  Biso   1.000  H
  H68      1.0000 0.28570  0.04280  0.15270  Biso   1.000  H
  H69      1.0000 0.71430  0.54280  0.34730  Biso   1.000  H
  H70      1.0000 0.21430  0.04280  0.84730  Biso   1.000  H
  H71      1.0000 0.21430  0.45720  0.34730  Biso   1.000  H
  H72      1.0000 0.71430  0.95720  0.84730  Biso   1.000  H
  C81      1.0000 0.39076  0.37404  0.61807  Biso   1.000  C
  C82      1.0000 0.89076  0.87404  0.11807  Biso   1.000  C
  C83      1.0000 0.89076  0.62596  0.61807  Biso   1.000  C
  C84      1.0000 0.39076  0.12596  0.11807  Biso   1.000  C
  C85      1.0000 0.60924  0.62596  0.38193  Biso   1.000  C
  C86      1.0000 0.10924  0.12596  0.88193  Biso   1.000  C
  C87      1.0000 0.10924  0.37404  0.38193  Biso   1.000  C
  C88      1.0000 0.60924  0.87404  0.88193  Biso   1.000  C
  H73      1.0000 0.40500  0.32530  0.64190  Biso   1.000  H
  H74      1.0000 0.90500  0.82530  0.14190  Biso   1.000  H
  H75      1.0000 0.90500  0.67470  0.64190  Biso   1.000  H
  H76      1.0000 0.40500  0.17470  0.14190  Biso   1.000  H
  H77      1.0000 0.59500  0.67470  0.35810  Biso   1.000  H
  H78      1.0000 0.09500  0.17470  0.85810  Biso   1.000  H
  H79      1.0000 0.09500  0.32530  0.35810  Biso   1.000  H
  H80      1.0000 0.59500  0.82530  0.85810  Biso   1.000  H
  C89      1.0000 0.21187  0.60928  0.59575  Biso   1.000  C
  C90      1.0000 0.71187  0.10928  0.09575  Biso   1.000  C
  C91      1.0000 0.71187  0.39072  0.59575  Biso   1.000  C
  C92      1.0000 0.21187  0.89072  0.09575  Biso   1.000  C
  C93      1.0000 0.78813  0.39072  0.40425  Biso   1.000  C
  C94      1.0000 0.28813  0.89072  0.90425  Biso   1.000  C
  C95      1.0000 0.28813  0.60928  0.40425  Biso   1.000  C
  C96      1.0000 0.78813  0.10928  0.90425  Biso   1.000  C
  C97      1.0000 0.67862  0.06639  0.55399  Biso   1.000  C
  C98      1.0000 0.17862  0.56639  0.05399  Biso   1.000  C
  C99      1.0000 0.17862  0.93361  0.55399  Biso   1.000  C
  C100     1.0000 0.67862  0.43361  0.05399  Biso   1.000  C
  C101     1.0000 0.32138  0.93361  0.44601  Biso   1.000  C
  C102     1.0000 0.82138  0.43361  0.94601  Biso   1.000  C
  C103     1.0000 0.82138  0.06639  0.44601  Biso   1.000  C
  C104     1.0000 0.32138  0.56639  0.94601  Biso   1.000  C
  H81      1.0000 0.63160  0.06950  0.52450  Biso   1.000  H
  H82      1.0000 0.13160  0.56950  0.02450  Biso   1.000  H
  H83      1.0000 0.13160  0.93050  0.52450  Biso   1.000  H
  H84      1.0000 0.63160  0.43050  0.02450  Biso   1.000  H
  H85      1.0000 0.36840  0.93050  0.47550  Biso   1.000  H
  H86      1.0000 0.86840  0.43050  0.97550  Biso   1.000  H
  H87      1.0000 0.86840  0.06950  0.47550  Biso   1.000  H
  H88      1.0000 0.36840  0.56950  0.97550  Biso   1.000  H
  C105     1.0000 0.75750  0.99018  0.56183  Biso   1.000  C
  C106     1.0000 0.25750  0.49018  0.06183  Biso   1.000  C
  C107     1.0000 0.25750  0.00982  0.56183  Biso   1.000  C
  C108     1.0000 0.75750  0.50982  0.06183  Biso   1.000  C
  C109     1.0000 0.24250  0.00982  0.43817  Biso   1.000  C
  C110     1.0000 0.74250  0.50982  0.93817  Biso   1.000  C
  C111     1.0000 0.74250  0.99018  0.43817  Biso   1.000  C
  C112     1.0000 0.24250  0.49018  0.93817  Biso   1.000  C
  H89      1.0000 0.76460  0.94360  0.53770  Biso   1.000  H
  H90      1.0000 0.26460  0.44360  0.03770  Biso   1.000  H
  H91      1.0000 0.26460  0.05640  0.53770  Biso   1.000  H
  H92      1.0000 0.76460  0.55640  0.03770  Biso   1.000  H
  H93      1.0000 0.23540  0.05640  0.46230  Biso   1.000  H
  H94      1.0000 0.73540  0.55640  0.96230  Biso   1.000  H
  H95      1.0000 0.73540  0.94360  0.46230  Biso   1.000  H
  H96      1.0000 0.23540  0.44360  0.96230  Biso   1.000  H
  C113     1.0000 0.82651  0.98217  0.60531  Biso   1.000  C
  C114     1.0000 0.32651  0.48217  0.10531  Biso   1.000  C
  C115     1.0000 0.32651  0.01783  0.60531  Biso   1.000  C
  C116     1.0000 0.82651  0.51783  0.10531  Biso   1.000  C
  C117     1.0000 0.17349  0.01783  0.39469  Biso   1.000  C
  C118     1.0000 0.67349  0.51783  0.89469  Biso   1.000  C
  C119     1.0000 0.67349  0.98217  0.39469  Biso   1.000  C
  C120     1.0000 0.17349  0.48217  0.89469  Biso   1.000  C
  C121     1.0000 0.81208  0.05240  0.63925  Biso   1.000  C
  C122     1.0000 0.31208  0.55240  0.13925  Biso   1.000  C
  C123     1.0000 0.31208  0.94760  0.63925  Biso   1.000  C
  C124     1.0000 0.81208  0.44760  0.13925  Biso   1.000  C
  C125     1.0000 0.18792  0.94760  0.36075  Biso   1.000  C
  C126     1.0000 0.68792  0.44760  0.86075  Biso   1.000  C
  C127     1.0000 0.68792  0.05240  0.36075  Biso   1.000  C
  C128     1.0000 0.18792  0.55240  0.86075  Biso   1.000  C
  H97      1.0000 0.85590  0.04910  0.66940  Biso   1.000  H
  H98      1.0000 0.35590  0.54910  0.16940  Biso   1.000  H
  H99      1.0000 0.35590  0.95090  0.66940  Biso   1.000  H
  H100     1.0000 0.85590  0.45090  0.16940  Biso   1.000  H
  H101     1.0000 0.14410  0.95090  0.33060  Biso   1.000  H
  H102     1.0000 0.64410  0.45090  0.83060  Biso   1.000  H
  H103     1.0000 0.64410  0.04910  0.33060  Biso   1.000  H
  H104     1.0000 0.14410  0.54910  0.83060  Biso   1.000  H
  C129     1.0000 0.73225  0.12829  0.62865  Biso   1.000  C
  C130     1.0000 0.23225  0.62829  0.12865  Biso   1.000  C
  C131     1.0000 0.23225  0.87171  0.62865  Biso   1.000  C
  C132     1.0000 0.73225  0.37171  0.12865  Biso   1.000  C
  C133     1.0000 0.26775  0.87171  0.37135  Biso   1.000  C
  C134     1.0000 0.76775  0.37171  0.87135  Biso   1.000  C
  C135     1.0000 0.76775  0.12829  0.37135  Biso   1.000  C
  C136     1.0000 0.26775  0.62829  0.87135  Biso   1.000  C
  H105     1.0000 0.72430  0.17620  0.65210  Biso   1.000  H
  H106     1.0000 0.22430  0.67620  0.15210  Biso   1.000  H
  H107     1.0000 0.22430  0.82380  0.65210  Biso   1.000  H
  H108     1.0000 0.72430  0.32380  0.15210  Biso   1.000  H
  H109     1.0000 0.27570  0.82380  0.34790  Biso   1.000  H
  H110     1.0000 0.77570  0.32380  0.84790  Biso   1.000  H
  H111     1.0000 0.77570  0.17620  0.34790  Biso   1.000  H
  H112     1.0000 0.27570  0.67620  0.84790  Biso   1.000  H
  C137     1.0000 0.91423  0.89817  0.61436  Biso   1.000  C
  C138     1.0000 0.41423  0.39817  0.11436  Biso   1.000  C
  C139     1.0000 0.41423  0.10183  0.61436  Biso   1.000  C
  C140     1.0000 0.91423  0.60183  0.11436  Biso   1.000  C
  C141     1.0000 0.08577  0.10183  0.38564  Biso   1.000  C
  C142     1.0000 0.58577  0.60183  0.88564  Biso   1.000  C
  C143     1.0000 0.58577  0.89817  0.38564  Biso   1.000  C
  C144     1.0000 0.08577  0.39817  0.88564  Biso   1.000  C
  C145     1.0000 0.17255  0.45711  0.23606  Biso   1.000  C
  C146     1.0000 0.67255  0.95711  0.73606  Biso   1.000  C
  C147     1.0000 0.67255  0.54289  0.23606  Biso   1.000  C
  C148     1.0000 0.17255  0.04289  0.73606  Biso   1.000  C
  C149     1.0000 0.82745  0.54289  0.76394  Biso   1.000  C
  C150     1.0000 0.32745  0.04289  0.26394  Biso   1.000  C
  C151     1.0000 0.32745  0.45711  0.76394  Biso   1.000  C
  C152     1.0000 0.82745  0.95711  0.26394  Biso   1.000  C
  H113     1.0000 0.10410  0.42600  0.22300  Biso   1.000  H
  H114     1.0000 0.60410  0.92600  0.72300  Biso   1.000  H
  H115     1.0000 0.60410  0.57400  0.22300  Biso   1.000  H
  H116     1.0000 0.10410  0.07400  0.72300  Biso   1.000  H
  H117     1.0000 0.89590  0.57400  0.77700  Biso   1.000  H
  H118     1.0000 0.39590  0.07400  0.27700  Biso   1.000  H
  H119     1.0000 0.39590  0.42600  0.77700  Biso   1.000  H
  H120     1.0000 0.89590  0.92600  0.27700  Biso   1.000  H
  C153     1.0000 0.17540  0.55991  0.23849  Biso   1.000  C
  C154     1.0000 0.67540  0.05991  0.73849  Biso   1.000  C
  C155     1.0000 0.67540  0.44009  0.23849  Biso   1.000  C
  C156     1.0000 0.17540  0.94009  0.73849  Biso   1.000  C
  C157     1.0000 0.82460  0.44009  0.76151  Biso   1.000  C
  C158     1.0000 0.32460  0.94009  0.26151  Biso   1.000  C
  C159     1.0000 0.32460  0.55991  0.76151  Biso   1.000  C
  C160     1.0000 0.82460  0.05991  0.26151  Biso   1.000  C
  H121     1.0000 0.10980  0.59740  0.22750  Biso   1.000  H
  H122     1.0000 0.60980  0.09740  0.72750  Biso   1.000  H
  H123     1.0000 0.60980  0.40260  0.22750  Biso   1.000  H
  H124     1.0000 0.10980  0.90260  0.72750  Biso   1.000  H
  H125     1.0000 0.89020  0.40260  0.77250  Biso   1.000  H
  H126     1.0000 0.39020  0.90260  0.27250  Biso   1.000  H
  H127     1.0000 0.39020  0.59740  0.77250  Biso   1.000  H
  H128     1.0000 0.89020  0.09740  0.27250  Biso   1.000  H
  C161     1.0000 0.27620  0.60807  0.25732  Biso   1.000  C
  C162     1.0000 0.77620  0.10807  0.75732  Biso   1.000  C
  C163     1.0000 0.77620  0.39193  0.25732  Biso   1.000  C
  C164     1.0000 0.27620  0.89193  0.75732  Biso   1.000  C
  C165     1.0000 0.72380  0.39193  0.74268  Biso   1.000  C
  C166     1.0000 0.22380  0.89193  0.24268  Biso   1.000  C
  C167     1.0000 0.22380  0.60807  0.74268  Biso   1.000  C
  C168     1.0000 0.72380  0.10807  0.24268  Biso   1.000  C
  C169     1.0000 0.37019  0.54817  0.27308  Biso   1.000  C
  C170     1.0000 0.87019  0.04817  0.77308  Biso   1.000  C
  C171     1.0000 0.87019  0.45183  0.27308  Biso   1.000  C
  C172     1.0000 0.37019  0.95183  0.77308  Biso   1.000  C
  C173     1.0000 0.62981  0.45183  0.72692  Biso   1.000  C
  C174     1.0000 0.12981  0.95183  0.22692  Biso   1.000  C
  C175     1.0000 0.12981  0.54817  0.72692  Biso   1.000  C
  C176     1.0000 0.62981  0.04817  0.22692  Biso   1.000  C
  H129     1.0000 0.43980  0.57750  0.28600  Biso   1.000  H
  H130     1.0000 0.93980  0.07750  0.78600  Biso   1.000  H
  H131     1.0000 0.93980  0.42250  0.28600  Biso   1.000  H
  H132     1.0000 0.43980  0.92250  0.78600  Biso   1.000  H
  H133     1.0000 0.56020  0.42250  0.71400  Biso   1.000  H
  H134     1.0000 0.06020  0.92250  0.21400  Biso   1.000  H
  H135     1.0000 0.06020  0.57750  0.71400  Biso   1.000  H
  H136     1.0000 0.56020  0.07750  0.21400  Biso   1.000  H
  C177     1.0000 0.36062  0.44535  0.26959  Biso   1.000  C
  C178     1.0000 0.86062  0.94535  0.76959  Biso   1.000  C
  C179     1.0000 0.86062  0.55465  0.26959  Biso   1.000  C
  C180     1.0000 0.36062  0.05465  0.76959  Biso   1.000  C
  C181     1.0000 0.63938  0.55465  0.73041  Biso   1.000  C
  C182     1.0000 0.13938  0.05465  0.23041  Biso   1.000  C
  C183     1.0000 0.13938  0.44535  0.73041  Biso   1.000  C
  C184     1.0000 0.63938  0.94535  0.23041  Biso   1.000  C
  H137     1.0000 0.42500  0.40610  0.28030  Biso   1.000  H
  H138     1.0000 0.92500  0.90610  0.78030  Biso   1.000  H
  H139     1.0000 0.92500  0.59390  0.28030  Biso   1.000  H
  H140     1.0000 0.42500  0.09390  0.78030  Biso   1.000  H
  H141     1.0000 0.57500  0.59390  0.71970  Biso   1.000  H
  H142     1.0000 0.07500  0.09390  0.21970  Biso   1.000  H
  H143     1.0000 0.07500  0.40610  0.71970  Biso   1.000  H
  H144     1.0000 0.57500  0.90610  0.21970  Biso   1.000  H
  C185     1.0000 0.28750  0.71735  0.26066  Biso   1.000  C
  C186     1.0000 0.78750  0.21735  0.76066  Biso   1.000  C
  C187     1.0000 0.78750  0.28265  0.26066  Biso   1.000  C
  C188     1.0000 0.28750  0.78265  0.76066  Biso   1.000  C
  C189     1.0000 0.71250  0.28265  0.73934  Biso   1.000  C
  C190     1.0000 0.21250  0.78265  0.23934  Biso   1.000  C
  C191     1.0000 0.21250  0.71735  0.73934  Biso   1.000  C
  C192     1.0000 0.71250  0.21735  0.23934  Biso   1.000  C
  H145     1.0000 0.35280  0.74310  0.27940  Biso   1.000  H
  H146     1.0000 0.85280  0.24310  0.77940  Biso   1.000  H
  H147     1.0000 0.85280  0.25690  0.27940  Biso   1.000  H
  H148     1.0000 0.35280  0.75690  0.77940  Biso   1.000  H
  H149     1.0000 0.64720  0.25690  0.72060  Biso   1.000  H
  H150     1.0000 0.14720  0.75690  0.22060  Biso   1.000  H
  H151     1.0000 0.14720  0.74310  0.72060  Biso   1.000  H
  H152     1.0000 0.64720  0.24310  0.22060  Biso   1.000  H
