data_image0
_cell_length_a       7.4073
_cell_length_b       9.847
_cell_length_c       11.9043
_cell_angle_alpha    110.756
_cell_angle_beta     97.626
_cell_angle_gamma    103.771

_symmetry_space_group_name_H-M    "P 1"
_symmetry_int_tables_number       1

loop_
  _symmetry_equiv_pos_as_xyz
  'x, y, z'

loop_
  _atom_site_label
  _atom_site_occupancy
  _atom_site_fract_x
  _atom_site_fract_y
  _atom_site_fract_z
  _atom_site_thermal_displace_type
  _atom_site_B_iso_or_equiv
  _atom_site_type_symbol
  Cu1      1.0000 0.88527  0.10147  0.31405  Biso   1.000  Cu
  Cu2      1.0000 0.11473  0.89853  0.68595  Biso   1.000  Cu
  Cu3      1.0000 0.76202  0.99997  0.51957  Biso   1.000  Cu
  Cu4      1.0000 0.23798  0.00003  0.48043  Biso   1.000  Cu
  N1       1.0000 0.96150  0.16230  0.49717  Biso   1.000  N
  N2       1.0000 0.03850  0.83770  0.50283  Biso   1.000  N
  N3       1.0000 0.05930  0.28750  0.57580  Biso   1.000  N
  N4       1.0000 0.94070  0.71250  0.42420  Biso   1.000  N
  N5       1.0000 0.15760  0.40060  0.64810  Biso   1.000  N
  N6       1.0000 0.84240  0.59940  0.35190  Biso   1.000  N
  N7       1.0000 0.71970  0.92470  0.33458  Biso   1.000  N
  N8       1.0000 0.28030  0.07530  0.66542  Biso   1.000  N
  N9       1.0000 0.57980  0.82590  0.25960  Biso   1.000  N
  N10      1.0000 0.42020  0.17410  0.74040  Biso   1.000  N
  N11      1.0000 0.45090  0.73210  0.18840  Biso   1.000  N
  N12      1.0000 0.54910  0.26790  0.81160  Biso   1.000  N
  N13      1.0000 0.14330  0.94690  0.30460  Biso   1.000  N
  N14      1.0000 0.85670  0.05310  0.69540  Biso   1.000  N
  N15      1.0000 0.07080  0.81910  0.22540  Biso   1.000  N
  N16      1.0000 0.92920  0.18090  0.77460  Biso   1.000  N
  N17      1.0000 0.00190  0.70320  0.14390  Biso   1.000  N
  N18      1.0000 0.99810  0.29680  0.85610  Biso   1.000  N
  N19      1.0000 0.47260  0.15830  0.49920  Biso   1.000  N
  N20      1.0000 0.52740  0.84170  0.50080  Biso   1.000  N
  N21      1.0000 0.53220  0.18580  0.41932  Biso   1.000  N
  N22      1.0000 0.46780  0.81420  0.58068  Biso   1.000  N
  N23      1.0000 0.59950  0.21710  0.34690  Biso   1.000  N
  N24      1.0000 0.40050  0.78290  0.65310  Biso   1.000  N
  N25      1.0000 0.05510  0.29020  0.31049  Biso   1.000  N
  N26      1.0000 0.94490  0.70980  0.68951  Biso   1.000  N
  N27      1.0000 0.01100  0.33630  0.21820  Biso   1.000  N
  N28      1.0000 0.98900  0.66370  0.78180  Biso   1.000  N
  C1       1.0000 0.81870  0.27460  0.14030  Biso   1.000  C
  C2       1.0000 0.18130  0.72540  0.85970  Biso   1.000  C
  H1       1.0000 0.80600  0.32400  0.08200  Biso   1.000  H
  H2       1.0000 0.19400  0.67600  0.91800  Biso   1.000  H
  H3       1.0000 0.74000  0.29100  0.19300  Biso   1.000  H
  H4       1.0000 0.26000  0.70900  0.80700  Biso   1.000  H
  C3       1.0000 0.15990  0.44840  0.22150  Biso   1.000  C
  C4       1.0000 0.84010  0.55160  0.77850  Biso   1.000  C
  H5       1.0000 0.14700  0.49300  0.17500  Biso   1.000  H
  H6       1.0000 0.85300  0.50700  0.82500  Biso   1.000  H
  C5       1.0000 0.30540  0.47510  0.31690  Biso   1.000  C
  C6       1.0000 0.69460  0.52490  0.68310  Biso   1.000  C
  H7       1.0000 0.42100  0.54500  0.33900  Biso   1.000  H
  H8       1.0000 0.57900  0.45500  0.66100  Biso   1.000  H
  C7       1.0000 0.23510  0.37450  0.36940  Biso   1.000  C
  C8       1.0000 0.76490  0.62550  0.63060  Biso   1.000  C
  H9       1.0000 0.28100  0.35900  0.43000  Biso   1.000  H
  H10      1.0000 0.71900  0.64100  0.57000  Biso   1.000  H
  N29      1.0000 0.78770  0.01930  0.13065  Biso   1.000  N
  N30      1.0000 0.21230  0.98070  0.86935  Biso   1.000  N
  N31      1.0000 0.77560  0.11200  0.07039  Biso   1.000  N
  N32      1.0000 0.22440  0.88800  0.92961  Biso   1.000  N
  C9       1.0000 0.72040  0.03140  0.94760  Biso   1.000  C
  C10      1.0000 0.27960  0.96860  0.05240  Biso   1.000  C
  H11      1.0000 0.71200  0.08600  0.90000  Biso   1.000  H
  H12      1.0000 0.28800  0.91400  0.10000  Biso   1.000  H
  C11      1.0000 0.69680  0.88220  0.92610  Biso   1.000  C
  C12      1.0000 0.30320  0.11780  0.07390  Biso   1.000  C
  H13      1.0000 0.66100  0.81200  0.85800  Biso   1.000  H
  H14      1.0000 0.33900  0.18800  0.14200  Biso   1.000  H
  C13      1.0000 0.74080  0.87940  0.04230  Biso   1.000  C
  C14      1.0000 0.25920  0.12060  0.95770  Biso   1.000  C
  H15      1.0000 0.73800  0.79900  0.06200  Biso   1.000  H
  H16      1.0000 0.26200  0.20100  0.93800  Biso   1.000  H
