data_image0
_cell_length_a       15.098
_cell_length_b       28.257
_cell_length_c       16.887
_cell_angle_alpha    90
_cell_angle_beta     102.185
_cell_angle_gamma    90

_symmetry_space_group_name_H-M    "P 1"
_symmetry_int_tables_number       1

loop_
  _symmetry_equiv_pos_as_xyz
  'x, y, z'

loop_
  _atom_site_label
  _atom_site_occupancy
  _atom_site_fract_x
  _atom_site_fract_y
  _atom_site_fract_z
  _atom_site_thermal_displace_type
  _atom_site_B_iso_or_equiv
  _atom_site_type_symbol
  Gd1      1.0000 0.03332  0.71130  0.76646  Biso   1.000  Gd
  Gd2      1.0000 0.96668  0.21130  0.23354  Biso   1.000  Gd
  Gd3      1.0000 0.64636  0.69650  0.10692  Biso   1.000  Gd
  Gd4      1.0000 0.35364  0.19650  0.89308  Biso   1.000  Gd
  Cu1      1.0000 0.03018  0.84630  0.73940  Biso   1.000  Cu
  Cu2      1.0000 0.96982  0.34630  0.26060  Biso   1.000  Cu
  Cu3      1.0000 0.26524  0.74990  0.72457  Biso   1.000  Cu
  Cu4      1.0000 0.73476  0.24990  0.27543  Biso   1.000  Cu
  Cu5      1.0000 0.17650  0.59900  0.75829  Biso   1.000  Cu
  Cu6      1.0000 0.82350  0.09900  0.24171  Biso   1.000  Cu
  Cu7      1.0000 0.89692  0.60390  0.81890  Biso   1.000  Cu
  Cu8      1.0000 0.10308  0.10390  0.18110  Biso   1.000  Cu
  Cu9      1.0000 0.80814  0.75830  0.81679  Biso   1.000  Cu
  Cu10     1.0000 0.19186  0.25830  0.18321  Biso   1.000  Cu
  Cu11     1.0000 0.86542  0.73410  0.03747  Biso   1.000  Cu
  Cu12     1.0000 0.13458  0.23410  0.96253  Biso   1.000  Cu
  Cu13     1.0000 0.62836  0.83060  0.05366  Biso   1.000  Cu
  Cu14     1.0000 0.37164  0.33060  0.94634  Biso   1.000  Cu
  Cu15     1.0000 0.40868  0.74120  0.12825  Biso   1.000  Cu
  Cu16     1.0000 0.59132  0.24120  0.87175  Biso   1.000  Cu
  Cu17     1.0000 0.50660  0.58860  0.15046  Biso   1.000  Cu
  Cu18     1.0000 0.49340  0.08860  0.84954  Biso   1.000  Cu
  Cu19     1.0000 0.78069  0.58290  0.08025  Biso   1.000  Cu
  Cu20     1.0000 0.21931  0.08290  0.91975  Biso   1.000  Cu
  O1       1.0000 0.13880  0.87420  0.72040  Biso   1.000  O
  O2       1.0000 0.86120  0.37420  0.27960  Biso   1.000  O
  O3       1.0000 0.09790  0.78870  0.75940  Biso   1.000  O
  O4       1.0000 0.90210  0.28870  0.24060  Biso   1.000  O
  O5       1.0000 0.34830  0.69940  0.71870  Biso   1.000  O
  O6       1.0000 0.65170  0.19940  0.28130  Biso   1.000  O
  O7       1.0000 0.18330  0.70130  0.74190  Biso   1.000  O
  O8       1.0000 0.81670  0.20130  0.25810  Biso   1.000  O
  O9       1.0000 0.12600  0.54190  0.78870  Biso   1.000  O
  O10      1.0000 0.87400  0.04190  0.21130  Biso   1.000  O
  O11      1.0000 0.07150  0.62970  0.78030  Biso   1.000  O
  O12      1.0000 0.92850  0.12970  0.21970  Biso   1.000  O
  O13      1.0000 0.78090  0.61850  0.83920  Biso   1.000  O
  O14      1.0000 0.21910  0.11850  0.16080  Biso   1.000  O
  O15      1.0000 0.91920  0.67190  0.82570  Biso   1.000  O
  O16      1.0000 0.08080  0.17190  0.17430  Biso   1.000  O
  O17      1.0000 0.78700  0.82360  0.79250  Biso   1.000  O
  O18      1.0000 0.21300  0.32360  0.20750  Biso   1.000  O
  O19      1.0000 0.92090  0.76870  0.78490  Biso   1.000  O
  O20      1.0000 0.07910  0.26870  0.21510  Biso   1.000  O
  O21      1.0000 0.87030  0.79980  0.00690  Biso   1.000  O
  O22      1.0000 0.12970  0.29980  0.99310  Biso   1.000  O
  O23      1.0000 0.73970  0.74800  0.03670  Biso   1.000  O
  O24      1.0000 0.26030  0.24800  0.96330  Biso   1.000  O
  O25      1.0000 0.52840  0.86140  0.08460  Biso   1.000  O
  O26      1.0000 0.47160  0.36140  0.91540  Biso   1.000  O
  O27      1.0000 0.57890  0.77420  0.08980  Biso   1.000  O
  O28      1.0000 0.42110  0.27420  0.91020  Biso   1.000  O
  O29      1.0000 0.32880  0.69420  0.15300  Biso   1.000  O
  O30      1.0000 0.67120  0.19420  0.84700  Biso   1.000  O
  O31      1.0000 0.49340  0.69160  0.12970  Biso   1.000  O
  O32      1.0000 0.50660  0.19160  0.87030  Biso   1.000  O
  O33      1.0000 0.56550  0.52820  0.15250  Biso   1.000  O
  O34      1.0000 0.43450  0.02820  0.84750  Biso   1.000  O
  O35      1.0000 0.61330  0.61420  0.12420  Biso   1.000  O
  O36      1.0000 0.38670  0.11420  0.87580  Biso   1.000  O
  O37      1.0000 0.89710  0.59350  0.05520  Biso   1.000  O
  O38      1.0000 0.10290  0.09350  0.94480  Biso   1.000  O
  O39      1.0000 0.77230  0.65020  0.08190  Biso   1.000  O
  O40      1.0000 0.22770  0.15020  0.91810  Biso   1.000  O
  O41      1.0000 0.66560  0.68690  0.25360  Biso   1.000  O
  O42      1.0000 0.33440  0.18690  0.74640  Biso   1.000  O
  O43      1.0000 0.76650  0.73230  0.21320  Biso   1.000  O
  O44      1.0000 0.23350  0.23230  0.78680  Biso   1.000  O
  O45      1.0000 0.91830  0.67910  0.65200  Biso   1.000  O
  O46      1.0000 0.08170  0.17910  0.34800  Biso   1.000  O
  O47      1.0000 0.00810  0.73480  0.62250  Biso   1.000  O
  O48      1.0000 0.99190  0.23480  0.37750  Biso   1.000  O
  O49      1.0000 0.57800  0.67570  0.97640  Biso   1.000  O
  O50      1.0000 0.42200  0.17570  0.02360  Biso   1.000  O
  O51      1.0000 0.51620  0.60860  0.92760  Biso   1.000  O
  O52      1.0000 0.48380  0.10860  0.07240  Biso   1.000  O
  O53      1.0000 0.17090  0.78260  0.97240  Biso   1.000  O
  O54      1.0000 0.82910  0.28260  0.02760  Biso   1.000  O
  O55      1.0000 0.09620  0.72460  0.90330  Biso   1.000  O
  O56      1.0000 0.90380  0.22460  0.09670  Biso   1.000  O
  O57      1.0000 0.60230  0.59660  0.30040  Biso   1.000  O
  O58      1.0000 0.39770  0.09660  0.69960  Biso   1.000  O
  O59      1.0000 0.28730  0.51500  0.99220  Biso   1.000  O
  O60      1.0000 0.71270  0.01500  0.00780  Biso   1.000  O
  O61      1.0000 0.80860  0.44670  0.88350  Biso   1.000  O
  O62      1.0000 0.19140  0.94670  0.11650  Biso   1.000  O
  O63      1.0000 0.13170  0.81930  0.42910  Biso   1.000  O
  O64      1.0000 0.86830  0.31930  0.57090  Biso   1.000  O
  O65      1.0000 0.04000  0.83160  0.27030  Biso   1.000  O
  O66      1.0000 0.96000  0.33160  0.72970  Biso   1.000  O
  O67      1.0000 0.82260  0.60280  0.67740  Biso   1.000  O
  O68      1.0000 0.17740  0.10280  0.32260  Biso   1.000  O
  O69      1.0000 0.97960  0.83570  0.59290  Biso   1.000  O
  O70      1.0000 0.02040  0.33570  0.40710  Biso   1.000  O
  O71      1.0000 0.99850  0.51240  0.03530  Biso   1.000  O
  O72      1.0000 0.00150  0.01240  0.96470  Biso   1.000  O
  O73      1.0000 0.05520  0.92450  0.90250  Biso   1.000  O
  O74      1.0000 0.94480  0.42450  0.09750  Biso   1.000  O
  O75      1.0000 0.15080  0.85170  0.15490  Biso   1.000  O
  O76      1.0000 0.84920  0.35170  0.84510  Biso   1.000  O
  O77      1.0000 0.50770  0.81100  0.82570  Biso   1.000  O
  O78      1.0000 0.49230  0.31100  0.17430  Biso   1.000  O
  O79      1.0000 0.21370  0.65910  0.52650  Biso   1.000  O
  O80      1.0000 0.78630  0.15910  0.47350  Biso   1.000  O
  O81      1.0000 0.67850  0.47650  0.93540  Biso   1.000  O
  O82      1.0000 0.32150  0.97650  0.06460  Biso   1.000  O
  O83      1.0000 0.17510  0.74980  0.56030  Biso   1.000  O
  O84      1.0000 0.82490  0.24980  0.43970  Biso   1.000  O
  O85      1.0000 0.51730  0.94730  0.90880  Biso   1.000  O
  O86      1.0000 0.48270  0.44730  0.09120  Biso   1.000  O
  O87      1.0000 0.23660  0.87520  0.93350  Biso   1.000  O
  O88      1.0000 0.76340  0.37520  0.06650  Biso   1.000  O
  O89      1.0000 0.49150  0.95530  0.07020  Biso   1.000  O
  O90      1.0000 0.50850  0.45530  0.92980  Biso   1.000  O
  O91      1.0000 0.03410  0.84100  0.99090  Biso   1.000  O
  O92      1.0000 0.96590  0.34100  0.00910  Biso   1.000  O
  O93      1.0000 0.68930  0.57220  0.94040  Biso   1.000  O
  O94      1.0000 0.31070  0.07220  0.05960  Biso   1.000  O
  O95      1.0000 0.64950  0.87910  0.82380  Biso   1.000  O
  O96      1.0000 0.35050  0.37910  0.17620  Biso   1.000  O
  O97      1.0000 0.40210  0.53240  0.88950  Biso   1.000  O
  O98      1.0000 0.59790  0.03240  0.11050  Biso   1.000  O
  O99      1.0000 0.11170  0.59720  0.60440  Biso   1.000  O
  O100     1.0000 0.88830  0.09720  0.39560  Biso   1.000  O
  O101     1.0000 0.92660  0.75330  0.18070  Biso   1.000  O
  O102     1.0000 0.07340  0.25330  0.81930  Biso   1.000  O
  O103     1.0000 0.40900  0.86710  0.89780  Biso   1.000  O
  O104     1.0000 0.59100  0.36710  0.10220  Biso   1.000  O
  O105     1.0000 0.70100  0.97430  0.81600  Biso   1.000  O
  O106     1.0000 0.29900  0.47430  0.18400  Biso   1.000  O
  N1       1.0000 0.33440  0.80420  0.69750  Biso   1.000  N
  N2       1.0000 0.66560  0.30420  0.30250  Biso   1.000  N
  H1       1.0000 0.39090  0.80400  0.73110  Biso   1.000  H
  H2       1.0000 0.60910  0.30400  0.26890  Biso   1.000  H
  H3       1.0000 0.34200  0.80070  0.64520  Biso   1.000  H
  H4       1.0000 0.65800  0.30070  0.35480  Biso   1.000  H
  N3       1.0000 0.18440  0.79690  0.74110  Biso   1.000  N
  N4       1.0000 0.81560  0.29690  0.25890  Biso   1.000  N
  N5       1.0000 0.29580  0.57450  0.74210  Biso   1.000  N
  N6       1.0000 0.70420  0.07450  0.25790  Biso   1.000  N
  H5       1.0000 0.32180  0.55610  0.78580  Biso   1.000  H
  H6       1.0000 0.67820  0.05610  0.21420  Biso   1.000  H
  H7       1.0000 0.28650  0.55580  0.69650  Biso   1.000  H
  H8       1.0000 0.71350  0.05580  0.30350  Biso   1.000  H
  N7       1.0000 0.22720  0.65930  0.74220  Biso   1.000  N
  N8       1.0000 0.77280  0.15930  0.25780  Biso   1.000  N
  N9       1.0000 0.89590  0.53240  0.82850  Biso   1.000  N
  N10      1.0000 0.10410  0.03240  0.17150  Biso   1.000  N
  H9       1.0000 0.87690  0.52390  0.87480  Biso   1.000  H
  H10      1.0000 0.12310  0.02390  0.12520  Biso   1.000  H
  H11      1.0000 0.85610  0.51980  0.78480  Biso   1.000  H
  H12      1.0000 0.14390  0.01980  0.21520  Biso   1.000  H
  N11      1.0000 0.01560  0.59380  0.79920  Biso   1.000  N
  N12      1.0000 0.98440  0.09380  0.20080  Biso   1.000  N
  N13      1.0000 0.69670  0.73870  0.85520  Biso   1.000  N
  N14      1.0000 0.30330  0.23870  0.14480  Biso   1.000  N
  H13      1.0000 0.70390  0.74430  0.90990  Biso   1.000  H
  H14      1.0000 0.29610  0.24430  0.09010  Biso   1.000  H
  H15      1.0000 0.64720  0.75550  0.82830  Biso   1.000  H
  H16      1.0000 0.35280  0.25550  0.17170  Biso   1.000  H
  N15      1.0000 0.83800  0.69400  0.83360  Biso   1.000  N
  N16      1.0000 0.16200  0.19400  0.16640  Biso   1.000  N
  N17      1.0000 0.95030  0.90490  0.73640  Biso   1.000  N
  N18      1.0000 0.04970  0.40490  0.26360  Biso   1.000  N
  H17      1.0000 0.97190  0.92350  0.78110  Biso   1.000  H
  H18      1.0000 0.02810  0.42350  0.21890  Biso   1.000  H
  H19      1.0000 0.95190  0.92240  0.69080  Biso   1.000  H
  H20      1.0000 0.04810  0.42240  0.30920  Biso   1.000  H
  N19      1.0000 0.92510  0.81550  0.76250  Biso   1.000  N
  N20      1.0000 0.07490  0.31550  0.23750  Biso   1.000  N
  N21      1.0000 0.68510  0.88260  0.00180  Biso   1.000  N
  N22      1.0000 0.31490  0.38260  0.99820  Biso   1.000  N
  H21      1.0000 0.65850  0.88440  0.94760  Biso   1.000  H
  H22      1.0000 0.34150  0.38440  0.05240  Biso   1.000  H
  H23      1.0000 0.67670  0.91110  0.02560  Biso   1.000  H
  H24      1.0000 0.32330  0.41110  0.97440  Biso   1.000  H
  N23      1.0000 0.72770  0.79490  0.03100  Biso   1.000  N
  N24      1.0000 0.27230  0.29490  0.96900  Biso   1.000  N
  N25      1.0000 0.32880  0.79760  0.11720  Biso   1.000  N
  N26      1.0000 0.67120  0.29760  0.88280  Biso   1.000  N
  H25      1.0000 0.28820  0.79660  0.06820  Biso   1.000  H
  H26      1.0000 0.71180  0.29660  0.93180  Biso   1.000  H
  H27      1.0000 0.29650  0.79760  0.15770  Biso   1.000  H
  H28      1.0000 0.70350  0.29760  0.84230  Biso   1.000  H
  N27      1.0000 0.49270  0.78530  0.10600  Biso   1.000  N
  N28      1.0000 0.50730  0.28530  0.89400  Biso   1.000  N
  N29      1.0000 0.38330  0.56870  0.15720  Biso   1.000  N
  N30      1.0000 0.61670  0.06870  0.84280  Biso   1.000  N
  H29      1.0000 0.35590  0.55420  0.10960  Biso   1.000  H
  H30      1.0000 0.64410  0.05420  0.89040  Biso   1.000  H
  H31      1.0000 0.38660  0.54710  0.19850  Biso   1.000  H
  H32      1.0000 0.61340  0.04710  0.80150  Biso   1.000  H
  N31      1.0000 0.45240  0.64930  0.14620  Biso   1.000  N
  N32      1.0000 0.54760  0.14930  0.85380  Biso   1.000  N
  N33      1.0000 0.78260  0.51210  0.09290  Biso   1.000  N
  N34      1.0000 0.21740  0.01210  0.90710  Biso   1.000  N
  H33      1.0000 0.77720  0.49810  0.04290  Biso   1.000  H
  H34      1.0000 0.22280  0.99810  0.95710  Biso   1.000  H
  H35      1.0000 0.83720  0.50290  0.12460  Biso   1.000  H
  H36      1.0000 0.16280  0.00290  0.87540  Biso   1.000  H
  N35      1.0000 0.67200  0.57670  0.11930  Biso   1.000  N
  N36      1.0000 0.32800  0.07670  0.88070  Biso   1.000  N
  N37      1.0000 0.98840  0.71150  0.02410  Biso   1.000  N
  N38      1.0000 0.01160  0.21150  0.97590  Biso   1.000  N
  H37      1.0000 0.99810  0.72100  0.97450  Biso   1.000  H
  H38      1.0000 0.00190  0.22100  0.02550  Biso   1.000  H
  H39      1.0000 0.03280  0.72480  0.06370  Biso   1.000  H
  H40      1.0000 0.96720  0.22480  0.93630  Biso   1.000  H
  N39      1.0000 0.84860  0.66890  0.06150  Biso   1.000  N
  N40      1.0000 0.15140  0.16890  0.93850  Biso   1.000  N
  C1       1.0000 0.19690  0.84070  0.72270  Biso   1.000  C
  C2       1.0000 0.80310  0.34070  0.27730  Biso   1.000  C
  C3       1.0000 0.29090  0.85120  0.70480  Biso   1.000  C
  C4       1.0000 0.70910  0.35120  0.29520  Biso   1.000  C
  H41      1.0000 0.32800  0.86870  0.75180  Biso   1.000  H
  H42      1.0000 0.67200  0.36870  0.24820  Biso   1.000  H
  C5       1.0000 0.27980  0.88260  0.62790  Biso   1.000  C
  C6       1.0000 0.72020  0.38260  0.37210  Biso   1.000  C
  H43      1.0000 0.24110  0.86610  0.58150  Biso   1.000  H
  H44      1.0000 0.75890  0.36610  0.41850  Biso   1.000  H
  H45      1.0000 0.24960  0.91260  0.63690  Biso   1.000  H
  H46      1.0000 0.75040  0.41260  0.36310  Biso   1.000  H
  C7       1.0000 0.37310  0.89360  0.60790  Biso   1.000  C
  C8       1.0000 0.62690  0.39360  0.39210  Biso   1.000  C
  C9       1.0000 0.44090  0.91400  0.66030  Biso   1.000  C
  C10      1.0000 0.55910  0.41400  0.33970  Biso   1.000  C
  H47      1.0000 0.43290  0.92090  0.71340  Biso   1.000  H
  H48      1.0000 0.56710  0.42090  0.28660  Biso   1.000  H
  C11      1.0000 0.52180  0.92540  0.64020  Biso   1.000  C
  C12      1.0000 0.47820  0.42540  0.35980  Biso   1.000  C
  H49      1.0000 0.56810  0.94130  0.67750  Biso   1.000  H
  H50      1.0000 0.43190  0.44130  0.32250  Biso   1.000  H
  C13      1.0000 0.53410  0.91230  0.56010  Biso   1.000  C
  C14      1.0000 0.46590  0.41230  0.43990  Biso   1.000  C
  H51      1.0000 0.58960  0.91910  0.54440  Biso   1.000  H
  H52      1.0000 0.41040  0.41910  0.45560  Biso   1.000  H
  C15      1.0000 0.46860  0.89130  0.50990  Biso   1.000  C
  C16      1.0000 0.53140  0.39130  0.49010  Biso   1.000  C
  H53      1.0000 0.47590  0.88390  0.45670  Biso   1.000  H
  H54      1.0000 0.52410  0.38390  0.54330  Biso   1.000  H
  C17      1.0000 0.38830  0.87970  0.53290  Biso   1.000  C
  C18      1.0000 0.61170  0.37970  0.46710  Biso   1.000  C
  H55      1.0000 0.34330  0.86210  0.49700  Biso   1.000  H
  H56      1.0000 0.65670  0.36210  0.50300  Biso   1.000  H
  C19      1.0000 0.30720  0.66110  0.73020  Biso   1.000  C
  C20      1.0000 0.69280  0.16110  0.26980  Biso   1.000  C
  C21      1.0000 0.35810  0.61360  0.73310  Biso   1.000  C
  C22      1.0000 0.64190  0.11360  0.26690  Biso   1.000  C
  H57      1.0000 0.40660  0.61400  0.78350  Biso   1.000  H
  H58      1.0000 0.59340  0.11400  0.21650  Biso   1.000  H
  C23      1.0000 0.40530  0.60850  0.66290  Biso   1.000  C
  C24      1.0000 0.59470  0.10850  0.33710  Biso   1.000  C
  H59      1.0000 0.35960  0.60840  0.61140  Biso   1.000  H
  H60      1.0000 0.64040  0.10840  0.38860  Biso   1.000  H
  H61      1.0000 0.44610  0.63580  0.66210  Biso   1.000  H
  H62      1.0000 0.55390  0.13580  0.33790  Biso   1.000  H
  C25      1.0000 0.45900  0.56370  0.66970  Biso   1.000  C
  C26      1.0000 0.54100  0.06370  0.33030  Biso   1.000  C
  C27      1.0000 0.52880  0.55420  0.72670  Biso   1.000  C
  C28      1.0000 0.47120  0.05420  0.27330  Biso   1.000  C
  H63      1.0000 0.54780  0.57770  0.76690  Biso   1.000  H
  H64      1.0000 0.45220  0.07770  0.23310  Biso   1.000  H
  C29      1.0000 0.57860  0.51190  0.73380  Biso   1.000  C
  C30      1.0000 0.42140  0.01190  0.26620  Biso   1.000  C
  H65      1.0000 0.62950  0.50600  0.77630  Biso   1.000  H
  H66      1.0000 0.37050  0.00600  0.22370  Biso   1.000  H
  C31      1.0000 0.54440  0.47780  0.66920  Biso   1.000  C
  C32      1.0000 0.45560  0.97780  0.33080  Biso   1.000  C
  H67      1.0000 0.57510  0.44840  0.67030  Biso   1.000  H
  H68      1.0000 0.42490  0.94840  0.32970  Biso   1.000  H
  C33      1.0000 0.47500  0.48520  0.61060  Biso   1.000  C
  C34      1.0000 0.52500  0.98520  0.38940  Biso   1.000  C
  H69      1.0000 0.45410  0.46250  0.56940  Biso   1.000  H
  H70      1.0000 0.54590  0.96250  0.43060  Biso   1.000  H
  C35      1.0000 0.43310  0.52960  0.61310  Biso   1.000  C
  C36      1.0000 0.56690  0.02960  0.38690  Biso   1.000  C
  H71      1.0000 0.38200  0.53630  0.57110  Biso   1.000  H
  H72      1.0000 0.61800  0.03630  0.42890  Biso   1.000  H
  C37      1.0000 0.05040  0.55150  0.80340  Biso   1.000  C
  C38      1.0000 0.94960  0.05150  0.19660  Biso   1.000  C
  C39      1.0000 0.98670  0.51400  0.83140  Biso   1.000  C
  C40      1.0000 0.01330  0.01400  0.16860  Biso   1.000  C
  H73      1.0000 0.01390  0.50360  0.88790  Biso   1.000  H
  H74      1.0000 0.98610  0.00360  0.11210  Biso   1.000  H
  C41      1.0000 0.98050  0.46820  0.76970  Biso   1.000  C
  C42      1.0000 0.01950  0.96820  0.23030  Biso   1.000  C
  H75      1.0000 0.04240  0.45990  0.76350  Biso   1.000  H
  H76      1.0000 0.95760  0.95990  0.23650  Biso   1.000  H
  H77      1.0000 0.95620  0.44070  0.79470  Biso   1.000  H
  H78      1.0000 0.04380  0.94070  0.20530  Biso   1.000  H
  C43      1.0000 0.92770  0.47580  0.69530  Biso   1.000  C
  C44      1.0000 0.07230  0.97580  0.30470  Biso   1.000  C
  C45      1.0000 0.84360  0.46120  0.67340  Biso   1.000  C
  C46      1.0000 0.15640  0.96120  0.32660  Biso   1.000  C
  H79      1.0000 0.81610  0.44940  0.71500  Biso   1.000  H
  H80      1.0000 0.18390  0.94940  0.28500  Biso   1.000  H
  C47      1.0000 0.79090  0.46150  0.59530  Biso   1.000  C
  C48      1.0000 0.20910  0.96150  0.40470  Biso   1.000  C
  H81      1.0000 0.73010  0.45030  0.58370  Biso   1.000  H
  H82      1.0000 0.26990  0.95030  0.41630  Biso   1.000  H
  C49      1.0000 0.83490  0.48000  0.53140  Biso   1.000  C
  C50      1.0000 0.16510  0.98000  0.46860  Biso   1.000  C
  H83      1.0000 0.80400  0.48140  0.47630  Biso   1.000  H
  H84      1.0000 0.19600  0.98140  0.52370  Biso   1.000  H
  C51      1.0000 0.91980  0.49460  0.55530  Biso   1.000  C
  C52      1.0000 0.08020  0.99460  0.44470  Biso   1.000  C
  H85      1.0000 0.94950  0.50680  0.51530  Biso   1.000  H
  H86      1.0000 0.05050  0.00680  0.48470  Biso   1.000  H
  C53      1.0000 0.96870  0.49320  0.63600  Biso   1.000  C
  C54      1.0000 0.03130  0.99320  0.36400  Biso   1.000  C
  H87      1.0000 0.02960  0.50410  0.64930  Biso   1.000  H
  H88      1.0000 0.97040  0.00410  0.35070  Biso   1.000  H
  C55      1.0000 0.77430  0.66440  0.83890  Biso   1.000  C
  C56      1.0000 0.22570  0.16440  0.16110  Biso   1.000  C
  C57      1.0000 0.68360  0.68720  0.83790  Biso   1.000  C
  C58      1.0000 0.31640  0.18720  0.16210  Biso   1.000  C
  H89      1.0000 0.65860  0.67280  0.88270  Biso   1.000  H
  H90      1.0000 0.34140  0.17280  0.11730  Biso   1.000  H
  C59      1.0000 0.61460  0.67630  0.75510  Biso   1.000  C
  C60      1.0000 0.38540  0.17630  0.24490  Biso   1.000  C
  H91      1.0000 0.62860  0.64500  0.73460  Biso   1.000  H
  H92      1.0000 0.37140  0.14500  0.26540  Biso   1.000  H
  H93      1.0000 0.55210  0.67520  0.76460  Biso   1.000  H
  H94      1.0000 0.44790  0.17520  0.23540  Biso   1.000  H
  C61      1.0000 0.62030  0.71370  0.69240  Biso   1.000  C
  C62      1.0000 0.37970  0.21370  0.30760  Biso   1.000  C
  C63      1.0000 0.55240  0.74560  0.67340  Biso   1.000  C
  C64      1.0000 0.44760  0.24560  0.32660  Biso   1.000  C
  H95      1.0000 0.50170  0.74330  0.69820  Biso   1.000  H
  H96      1.0000 0.49830  0.24330  0.30180  Biso   1.000  H
  C65      1.0000 0.55550  0.78340  0.61590  Biso   1.000  C
  C66      1.0000 0.44450  0.28340  0.38410  Biso   1.000  C
  H97      1.0000 0.50690  0.80520  0.60090  Biso   1.000  H
  H98      1.0000 0.49310  0.30520  0.39910  Biso   1.000  H
  C67      1.0000 0.63430  0.78630  0.58320  Biso   1.000  C
  C68      1.0000 0.36570  0.28630  0.41680  Biso   1.000  C
  H99      1.0000 0.64020  0.81110  0.54680  Biso   1.000  H
  H100     1.0000 0.35980  0.31110  0.45320  Biso   1.000  H
  C69      1.0000 0.70120  0.75390  0.60360  Biso   1.000  C
  C70      1.0000 0.29880  0.25390  0.39640  Biso   1.000  C
  H101     1.0000 0.75340  0.75660  0.58100  Biso   1.000  H
  H102     1.0000 0.24660  0.25660  0.41900  Biso   1.000  H
  C71      1.0000 0.69610  0.71590  0.65770  Biso   1.000  C
  C72      1.0000 0.30390  0.21590  0.34230  Biso   1.000  C
  H103     1.0000 0.74280  0.69280  0.66970  Biso   1.000  H
  H104     1.0000 0.25720  0.19280  0.33030  Biso   1.000  H
  C73      1.0000 0.85810  0.84050  0.76830  Biso   1.000  C
  C74      1.0000 0.14190  0.34050  0.23170  Biso   1.000  C
  C75      1.0000 0.85940  0.89110  0.73580  Biso   1.000  C
  C76      1.0000 0.14060  0.39110  0.26420  Biso   1.000  C
  H105     1.0000 0.83340  0.91300  0.77150  Biso   1.000  H
  H106     1.0000 0.16660  0.41300  0.22850  Biso   1.000  H
  C77      1.0000 0.79730  0.89060  0.65110  Biso   1.000  C
  C78      1.0000 0.20270  0.39060  0.34890  Biso   1.000  C
  H107     1.0000 0.81330  0.86280  0.62150  Biso   1.000  H
  H108     1.0000 0.18670  0.36280  0.37850  Biso   1.000  H
  H109     1.0000 0.73420  0.88610  0.65760  Biso   1.000  H
  H110     1.0000 0.26580  0.38610  0.34240  Biso   1.000  H
  C79      1.0000 0.79970  0.93240  0.60100  Biso   1.000  C
  C80      1.0000 0.20030  0.43240  0.39900  Biso   1.000  C
  C81      1.0000 0.81770  0.93360  0.52850  Biso   1.000  C
  C82      1.0000 0.18230  0.43360  0.47150  Biso   1.000  C
  H111     1.0000 0.82740  0.90440  0.50380  Biso   1.000  H
  H112     1.0000 0.17260  0.40440  0.49620  Biso   1.000  H
  C83      1.0000 0.82340  0.97480  0.48570  Biso   1.000  C
  C84      1.0000 0.17660  0.47480  0.51430  Biso   1.000  C
  H113     1.0000 0.83660  0.97360  0.43320  Biso   1.000  H
  H114     1.0000 0.16340  0.47360  0.56680  Biso   1.000  H
  C85      1.0000 0.80870  0.02050  0.52240  Biso   1.000  C
  C86      1.0000 0.19130  0.52050  0.47760  Biso   1.000  C
  H115     1.0000 0.81210  0.04950  0.49460  Biso   1.000  H
  H116     1.0000 0.18790  0.54950  0.50540  Biso   1.000  H
  C87      1.0000 0.79060  0.01960  0.59520  Biso   1.000  C
  C88      1.0000 0.20940  0.51960  0.40480  Biso   1.000  C
  H117     1.0000 0.78060  0.04820  0.62160  Biso   1.000  H
  H118     1.0000 0.21940  0.54820  0.37840  Biso   1.000  H
  C89      1.0000 0.78630  0.97520  0.63410  Biso   1.000  C
  C90      1.0000 0.21370  0.47520  0.36590  Biso   1.000  C
  H119     1.0000 0.77310  0.97540  0.68660  Biso   1.000  H
  H120     1.0000 0.22690  0.47540  0.31340  Biso   1.000  H
  C91      1.0000 0.79510  0.81990  0.01420  Biso   1.000  C
  C92      1.0000 0.20490  0.31990  0.98580  Biso   1.000  C
  C93      1.0000 0.78410  0.87260  0.01200  Biso   1.000  C
  C94      1.0000 0.21590  0.37260  0.98800  Biso   1.000  C
  H121     1.0000 0.80490  0.88510  0.96350  Biso   1.000  H
  H122     1.0000 0.19510  0.38510  0.03650  Biso   1.000  H
  C95      1.0000 0.84240  0.89700  0.09060  Biso   1.000  C
  C96      1.0000 0.15760  0.39700  0.90940  Biso   1.000  C
  H123     1.0000 0.90110  0.88030  0.10690  Biso   1.000  H
  H124     1.0000 0.09890  0.38030  0.89310  Biso   1.000  H
  H125     1.0000 0.85510  0.93020  0.07820  Biso   1.000  H
  H126     1.0000 0.14490  0.43020  0.92180  Biso   1.000  H
  C97      1.0000 0.79230  0.89590  0.16130  Biso   1.000  C
  C98      1.0000 0.20770  0.39590  0.83870  Biso   1.000  C
  C99      1.0000 0.75010  0.93730  0.18230  Biso   1.000  C
  C100     1.0000 0.24990  0.43730  0.81770  Biso   1.000  C
  H127     1.0000 0.75210  0.96610  0.15370  Biso   1.000  H
  H128     1.0000 0.24790  0.46610  0.84630  Biso   1.000  H
  C101     1.0000 0.70510  0.93440  0.24680  Biso   1.000  C
  C102     1.0000 0.29490  0.43440  0.75320  Biso   1.000  C
  H129     1.0000 0.67640  0.96230  0.26040  Biso   1.000  H
  H130     1.0000 0.32360  0.46230  0.73960  Biso   1.000  H
  C103     1.0000 0.69880  0.89190  0.29450  Biso   1.000  C
  C104     1.0000 0.30120  0.39190  0.70550  Biso   1.000  C
  H131     1.0000 0.67000  0.89260  0.33940  Biso   1.000  H
  H132     1.0000 0.33000  0.39260  0.66060  Biso   1.000  H
  C105     1.0000 0.73790  0.84870  0.27130  Biso   1.000  C
  C106     1.0000 0.26210  0.34870  0.72870  Biso   1.000  C
  H133     1.0000 0.73090  0.81910  0.29620  Biso   1.000  H
  H134     1.0000 0.26910  0.31910  0.70380  Biso   1.000  H
  C107     1.0000 0.78590  0.85300  0.21060  Biso   1.000  C
  C108     1.0000 0.21410  0.35300  0.78940  Biso   1.000  C
  H135     1.0000 0.81810  0.82590  0.19920  Biso   1.000  H
  H136     1.0000 0.18190  0.32590  0.80080  Biso   1.000  H
  C109     1.0000 0.47510  0.82710  0.10120  Biso   1.000  C
  C110     1.0000 0.52490  0.32710  0.89880  Biso   1.000  C
  C111     1.0000 0.38250  0.84050  0.12210  Biso   1.000  C
  C112     1.0000 0.61750  0.34050  0.87790  Biso   1.000  C
  H137     1.0000 0.35070  0.86270  0.07930  Biso   1.000  H
  H138     1.0000 0.64930  0.36270  0.92070  Biso   1.000  H
  C113     1.0000 0.39440  0.86600  0.20430  Biso   1.000  C
  C114     1.0000 0.60560  0.36600  0.79570  Biso   1.000  C
  H139     1.0000 0.44000  0.89140  0.20620  Biso   1.000  H
  H140     1.0000 0.56000  0.39140  0.79380  Biso   1.000  H
  H141     1.0000 0.33630  0.88130  0.20740  Biso   1.000  H
  H142     1.0000 0.66370  0.38130  0.79260  Biso   1.000  H
  C115     1.0000 0.42250  0.83600  0.27630  Biso   1.000  C
  C116     1.0000 0.57750  0.33600  0.72370  Biso   1.000  C
  C117     1.0000 0.50330  0.81650  0.29660  Biso   1.000  C
  C118     1.0000 0.49670  0.31650  0.70340  Biso   1.000  C
  H143     1.0000 0.54800  0.82450  0.26690  Biso   1.000  H
  H144     1.0000 0.45200  0.32450  0.73310  Biso   1.000  H
  C119     1.0000 0.52530  0.78400  0.36110  Biso   1.000  C
  C120     1.0000 0.47470  0.28400  0.63890  Biso   1.000  C
  H145     1.0000 0.58400  0.77060  0.37760  Biso   1.000  H
  H146     1.0000 0.41600  0.27060  0.62240  Biso   1.000  H
  C121     1.0000 0.45050  0.77260  0.40080  Biso   1.000  C
  C122     1.0000 0.54950  0.27260  0.59920  Biso   1.000  C
  H147     1.0000 0.46130  0.75140  0.44550  Biso   1.000  H
  H148     1.0000 0.53870  0.25140  0.55450  Biso   1.000  H
  C123     1.0000 0.36770  0.79100  0.37620  Biso   1.000  C
  C124     1.0000 0.63230  0.29100  0.62380  Biso   1.000  C
  H149     1.0000 0.31970  0.78170  0.40120  Biso   1.000  H
  H150     1.0000 0.68030  0.28170  0.59880  Biso   1.000  H
  C125     1.0000 0.35260  0.82410  0.31330  Biso   1.000  C
  C126     1.0000 0.64740  0.32410  0.68670  Biso   1.000  C
  H151     1.0000 0.29460  0.83830  0.29620  Biso   1.000  H
  H152     1.0000 0.70540  0.33830  0.70380  Biso   1.000  H
  C127     1.0000 0.37250  0.65450  0.15730  Biso   1.000  C
  C128     1.0000 0.62750  0.15450  0.84270  Biso   1.000  C
  C129     1.0000 0.32620  0.61090  0.17260  Biso   1.000  C
  C130     1.0000 0.67380  0.11090  0.82740  Biso   1.000  C
  H153     1.0000 0.26680  0.60940  0.13300  Biso   1.000  H
  H154     1.0000 0.73320  0.10940  0.86700  Biso   1.000  H
  C131     1.0000 0.30820  0.60750  0.25600  Biso   1.000  C
  C132     1.0000 0.69180  0.10750  0.74400  Biso   1.000  C
  H155     1.0000 0.26800  0.58010  0.25820  Biso   1.000  H
  H156     1.0000 0.73200  0.08010  0.74180  Biso   1.000  H
  H157     1.0000 0.27560  0.63630  0.26700  Biso   1.000  H
  H158     1.0000 0.72440  0.13630  0.73300  Biso   1.000  H
  C133     1.0000 0.39290  0.60210  0.32170  Biso   1.000  C
  C134     1.0000 0.60710  0.10210  0.67830  Biso   1.000  C
  C135     1.0000 0.43210  0.56150  0.34630  Biso   1.000  C
  C136     1.0000 0.56790  0.06150  0.65370  Biso   1.000  C
  H159     1.0000 0.40150  0.53400  0.32230  Biso   1.000  H
  H160     1.0000 0.59850  0.03400  0.67770  Biso   1.000  H
  C137     1.0000 0.51070  0.55360  0.40160  Biso   1.000  C
  C138     1.0000 0.48930  0.05360  0.59840  Biso   1.000  C
  H161     1.0000 0.53450  0.52290  0.41600  Biso   1.000  H
  H162     1.0000 0.46550  0.02290  0.58400  Biso   1.000  H
  C139     1.0000 0.55520  0.59760  0.43700  Biso   1.000  C
  C140     1.0000 0.44480  0.09760  0.56300  Biso   1.000  C
  H163     1.0000 0.61030  0.59600  0.47630  Biso   1.000  H
  H164     1.0000 0.38970  0.09600  0.52370  Biso   1.000  H
  C141     1.0000 0.51910  0.63880  0.41450  Biso   1.000  C
  C142     1.0000 0.48090  0.13880  0.58550  Biso   1.000  C
  H165     1.0000 0.54810  0.66700  0.43720  Biso   1.000  H
  H166     1.0000 0.45190  0.16700  0.56280  Biso   1.000  H
  C143     1.0000 0.43710  0.64130  0.35630  Biso   1.000  C
  C144     1.0000 0.56290  0.14130  0.64370  Biso   1.000  C
  H167     1.0000 0.41170  0.67160  0.34080  Biso   1.000  H
  H168     1.0000 0.58830  0.17160  0.65920  Biso   1.000  H
  C145     1.0000 0.64260  0.53550  0.13240  Biso   1.000  C
  C146     1.0000 0.35740  0.03550  0.86760  Biso   1.000  C
  C147     1.0000 0.70510  0.49480  0.13200  Biso   1.000  C
  C148     1.0000 0.29490  0.99480  0.86800  Biso   1.000  C
  H169     1.0000 0.67090  0.47000  0.09570  Biso   1.000  H
  H170     1.0000 0.32910  0.97000  0.90430  Biso   1.000  H
  C149     1.0000 0.74160  0.47270  0.20990  Biso   1.000  C
  C150     1.0000 0.25840  0.97270  0.79010  Biso   1.000  C
  H171     1.0000 0.77900  0.44520  0.20100  Biso   1.000  H
  H172     1.0000 0.22100  0.94520  0.79900  Biso   1.000  H
  H173     1.0000 0.69060  0.46060  0.23250  Biso   1.000  H
  H174     1.0000 0.30940  0.96060  0.76750  Biso   1.000  H
  C151     1.0000 0.79710  0.50420  0.27020  Biso   1.000  C
  C152     1.0000 0.20290  0.00420  0.72980  Biso   1.000  C
  C153     1.0000 0.88390  0.50880  0.28380  Biso   1.000  C
  C154     1.0000 0.11610  0.00880  0.71620  Biso   1.000  C
  H175     1.0000 0.91740  0.48890  0.25560  Biso   1.000  H
  H176     1.0000 0.08260  0.98890  0.74440  Biso   1.000  H
  C155     1.0000 0.93160  0.54250  0.33900  Biso   1.000  C
  C156     1.0000 0.06840  0.04250  0.66100  Biso   1.000  C
  H177     1.0000 0.99550  0.54610  0.34940  Biso   1.000  H
  H178     1.0000 0.00450  0.04610  0.65060  Biso   1.000  H
  C157     1.0000 0.87270  0.57100  0.37840  Biso   1.000  C
  C158     1.0000 0.12730  0.07100  0.62160  Biso   1.000  C
  H179     1.0000 0.90040  0.59430  0.41610  Biso   1.000  H
  H180     1.0000 0.09960  0.09430  0.58390  Biso   1.000  H
  C159     1.0000 0.78470  0.56680  0.36550  Biso   1.000  C
  C160     1.0000 0.21530  0.06680  0.63450  Biso   1.000  C
  H181     1.0000 0.74910  0.58610  0.39270  Biso   1.000  H
  H182     1.0000 0.25090  0.08610  0.60730  Biso   1.000  H
  C161     1.0000 0.74560  0.53190  0.30910  Biso   1.000  C
  C162     1.0000 0.25440  0.03190  0.69090  Biso   1.000  C
  H183     1.0000 0.68170  0.52770  0.29780  Biso   1.000  H
  H184     1.0000 0.31830  0.02770  0.70220  Biso   1.000  H
  C163     1.0000 0.90860  0.64060  0.04900  Biso   1.000  C
  C164     1.0000 0.09140  0.14060  0.95100  Biso   1.000  C
  C165     1.0000 0.99340  0.66010  0.03010  Biso   1.000  C
  C166     1.0000 0.00660  0.16010  0.96990  Biso   1.000  C
  H185     1.0000 0.99740  0.64790  0.97540  Biso   1.000  H
  H186     1.0000 0.00260  0.14790  0.02460  Biso   1.000  H
  C167     1.0000 0.07780  0.64300  0.08950  Biso   1.000  C
  C168     1.0000 0.92220  0.14300  0.91050  Biso   1.000  C
  H187     1.0000 0.07600  0.60810  0.09330  Biso   1.000  H
  H188     1.0000 0.92400  0.10810  0.90670  Biso   1.000  H
  H189     1.0000 0.13210  0.65180  0.06870  Biso   1.000  H
  H190     1.0000 0.86790  0.15180  0.93130  Biso   1.000  H
  C169     1.0000 0.08510  0.66350  0.17090  Biso   1.000  C
  C170     1.0000 0.91490  0.16350  0.82910  Biso   1.000  C
  C171     1.0000 0.13700  0.70600  0.19900  Biso   1.000  C
  C172     1.0000 0.86300  0.20600  0.80100  Biso   1.000  C
  H191     1.0000 0.16920  0.72100  0.16340  Biso   1.000  H
  H192     1.0000 0.83080  0.22100  0.83660  Biso   1.000  H
  C173     1.0000 0.14190  0.72570  0.27560  Biso   1.000  C
  C174     1.0000 0.85810  0.22570  0.72440  Biso   1.000  C
  H193     1.0000 0.17480  0.75390  0.29210  Biso   1.000  H
  H194     1.0000 0.82520  0.25390  0.70790  Biso   1.000  H
  C175     1.0000 0.09470  0.70090  0.32750  Biso   1.000  C
  C176     1.0000 0.90530  0.20090  0.67250  Biso   1.000  C
  H195     1.0000 0.09910  0.71270  0.38090  Biso   1.000  H
  H196     1.0000 0.90090  0.21270  0.61910  Biso   1.000  H
  C177     1.0000 0.04310  0.66110  0.30510  Biso   1.000  C
  C178     1.0000 0.95690  0.16110  0.69490  Biso   1.000  C
  H197     1.0000 0.01270  0.64660  0.34250  Biso   1.000  H
  H198     1.0000 0.98730  0.14660  0.65750  Biso   1.000  H
  C179     1.0000 0.03580  0.64320  0.23260  Biso   1.000  C
  C180     1.0000 0.96420  0.14320  0.76740  Biso   1.000  C
  H199     1.0000 0.99800  0.61630  0.21800  Biso   1.000  H
  H200     1.0000 0.00200  0.11630  0.78200  Biso   1.000  H
  C181     1.0000 0.73890  0.70930  0.26840  Biso   1.000  C
  C182     1.0000 0.26110  0.20930  0.73160  Biso   1.000  C
  C183     1.0000 0.79210  0.70980  0.35450  Biso   1.000  C
  C184     1.0000 0.20790  0.20980  0.64550  Biso   1.000  C
  C185     1.0000 0.76390  0.67890  0.41250  Biso   1.000  C
  C186     1.0000 0.23610  0.17890  0.58750  Biso   1.000  C
  H201     1.0000 0.71420  0.65800  0.39640  Biso   1.000  H
  H202     1.0000 0.28580  0.15800  0.60360  Biso   1.000  H
  C187     1.0000 0.86920  0.73660  0.37500  Biso   1.000  C
  C188     1.0000 0.13080  0.23660  0.62500  Biso   1.000  C
  H203     1.0000 0.88850  0.75610  0.33600  Biso   1.000  H
  H204     1.0000 0.11150  0.25610  0.66400  Biso   1.000  H
  C189     1.0000 0.81070  0.68060  0.49170  Biso   1.000  C
  C190     1.0000 0.18930  0.18060  0.50830  Biso   1.000  C
  H205     1.0000 0.78870  0.66340  0.53180  Biso   1.000  H
  H206     1.0000 0.21130  0.16340  0.46820  Biso   1.000  H
  C191     1.0000 0.91830  0.73440  0.45430  Biso   1.000  C
  C192     1.0000 0.08170  0.23440  0.54570  Biso   1.000  C
  H207     1.0000 0.97300  0.75190  0.46940  Biso   1.000  H
  H208     1.0000 0.02700  0.25190  0.53060  Biso   1.000  H
  C193     1.0000 0.88800  0.70650  0.51340  Biso   1.000  C
  C194     1.0000 0.11200  0.20650  0.48660  Biso   1.000  C
  C195     1.0000 0.94320  0.70680  0.60010  Biso   1.000  C
  C196     1.0000 0.05680  0.20680  0.39990  Biso   1.000  C
  C197     1.0000 0.51060  0.65180  0.94920  Biso   1.000  C
  C198     1.0000 0.48940  0.15180  0.05080  Biso   1.000  C
  C199     1.0000 0.42010  0.67510  0.93990  Biso   1.000  C
  C200     1.0000 0.57990  0.17510  0.06010  Biso   1.000  C
  C201     1.0000 0.34150  0.64840  0.94010  Biso   1.000  C
  C202     1.0000 0.65850  0.14840  0.05990  Biso   1.000  C
  H209     1.0000 0.34400  0.61480  0.94110  Biso   1.000  H
  H210     1.0000 0.65600  0.11480  0.05890  Biso   1.000  H
  C203     1.0000 0.41240  0.72470  0.93520  Biso   1.000  C
  C204     1.0000 0.58760  0.22470  0.06480  Biso   1.000  C
  H211     1.0000 0.46450  0.74310  0.93310  Biso   1.000  H
  H212     1.0000 0.53550  0.24310  0.06690  Biso   1.000  H
  C205     1.0000 0.33370  0.74670  0.93350  Biso   1.000  C
  C206     1.0000 0.66630  0.24670  0.06650  Biso   1.000  C
  H213     1.0000 0.33100  0.78020  0.93200  Biso   1.000  H
  H214     1.0000 0.66900  0.28020  0.06800  Biso   1.000  H
  C207     1.0000 0.25880  0.67210  0.93860  Biso   1.000  C
  C208     1.0000 0.74120  0.17210  0.06140  Biso   1.000  C
  H215     1.0000 0.20610  0.65430  0.94100  Biso   1.000  H
  H216     1.0000 0.79390  0.15430  0.05900  Biso   1.000  H
  C209     1.0000 0.25350  0.71980  0.93400  Biso   1.000  C
  C210     1.0000 0.74650  0.21980  0.06600  Biso   1.000  C
  C211     1.0000 0.16870  0.74430  0.93650  Biso   1.000  C
  C212     1.0000 0.83130  0.24430  0.06350  Biso   1.000  C
  C213     1.0000 0.73500  0.58600  0.62290  Biso   1.000  C
  C214     1.0000 0.26500  0.08600  0.37710  Biso   1.000  C
  H217     1.0000 0.73460  0.59370  0.56760  Biso   1.000  H
  H218     1.0000 0.26540  0.09370  0.43240  Biso   1.000  H
  H219     1.0000 0.72910  0.55240  0.62820  Biso   1.000  H
  H220     1.0000 0.27090  0.05240  0.37180  Biso   1.000  H
  H221     1.0000 0.68430  0.60150  0.63850  Biso   1.000  H
  H222     1.0000 0.31570  0.10150  0.36150  Biso   1.000  H
