data_image0
_cell_length_a       35.17
_cell_length_b       10.44
_cell_length_c       11.966
_cell_angle_alpha    90
_cell_angle_beta     90
_cell_angle_gamma    90

_symmetry_space_group_name_H-M    "P 1"
_symmetry_int_tables_number       1

loop_
  _symmetry_equiv_pos_as_xyz
  'x, y, z'

loop_
  _atom_site_label
  _atom_site_occupancy
  _atom_site_fract_x
  _atom_site_fract_y
  _atom_site_fract_z
  _atom_site_thermal_displace_type
  _atom_site_B_iso_or_equiv
  _atom_site_type_symbol
  Cu1      1.0000 0.40397  0.25000  0.03894  Biso   1.000  Cu
  Cu2      1.0000 0.90397  0.25000  0.46106  Biso   1.000  Cu
  Cu3      1.0000 0.09603  0.75000  0.53894  Biso   1.000  Cu
  Cu4      1.0000 0.59603  0.75000  0.96106  Biso   1.000  Cu
  N1       1.0000 0.40886  0.12280  0.50070  Biso   1.000  N
  N2       1.0000 0.90886  0.12280  0.99930  Biso   1.000  N
  N3       1.0000 0.40886  0.37720  0.50070  Biso   1.000  N
  N4       1.0000 0.09114  0.62280  0.00070  Biso   1.000  N
  N5       1.0000 0.59114  0.87720  0.49930  Biso   1.000  N
  N6       1.0000 0.09114  0.87720  0.00070  Biso   1.000  N
  N7       1.0000 0.59114  0.62280  0.49930  Biso   1.000  N
  N8       1.0000 0.90886  0.37720  0.99930  Biso   1.000  N
  N9       1.0000 0.42404  0.11360  0.14380  Biso   1.000  N
  N10      1.0000 0.92404  0.11360  0.35620  Biso   1.000  N
  N11      1.0000 0.42404  0.38640  0.14380  Biso   1.000  N
  N12      1.0000 0.07596  0.61360  0.64380  Biso   1.000  N
  N13      1.0000 0.57596  0.88640  0.85620  Biso   1.000  N
  N14      1.0000 0.07596  0.88640  0.64380  Biso   1.000  N
  N15      1.0000 0.57596  0.61360  0.85620  Biso   1.000  N
  N16      1.0000 0.92404  0.38640  0.35620  Biso   1.000  N
  N17      1.0000 0.36831  0.11230  0.97960  Biso   1.000  N
  N18      1.0000 0.86831  0.11230  0.52040  Biso   1.000  N
  N19      1.0000 0.36831  0.38770  0.97960  Biso   1.000  N
  N20      1.0000 0.13169  0.61230  0.47960  Biso   1.000  N
  N21      1.0000 0.63169  0.88770  0.02040  Biso   1.000  N
  N22      1.0000 0.13169  0.88770  0.47960  Biso   1.000  N
  N23      1.0000 0.63169  0.61230  0.02040  Biso   1.000  N
  N24      1.0000 0.86831  0.38770  0.52040  Biso   1.000  N
  N25      1.0000 0.27080  0.88050  0.13780  Biso   1.000  N
  N26      1.0000 0.77080  0.88050  0.36220  Biso   1.000  N
  N27      1.0000 0.27080  0.61950  0.13780  Biso   1.000  N
  N28      1.0000 0.22920  0.38050  0.63780  Biso   1.000  N
  N29      1.0000 0.72920  0.11950  0.86220  Biso   1.000  N
  N30      1.0000 0.22920  0.11950  0.63780  Biso   1.000  N
  N31      1.0000 0.72920  0.38050  0.86220  Biso   1.000  N
  N32      1.0000 0.77080  0.61950  0.36220  Biso   1.000  N
  C1       1.0000 0.45480  0.04500  0.12200  Biso   1.000  C
  C2       1.0000 0.95480  0.04500  0.37800  Biso   1.000  C
  C3       1.0000 0.45480  0.45500  0.12200  Biso   1.000  C
  C4       1.0000 0.04520  0.54500  0.62200  Biso   1.000  C
  C5       1.0000 0.54520  0.95500  0.87800  Biso   1.000  C
  C6       1.0000 0.04520  0.95500  0.62200  Biso   1.000  C
  C7       1.0000 0.54520  0.54500  0.87800  Biso   1.000  C
  C8       1.0000 0.95480  0.45500  0.37800  Biso   1.000  C
  H1       1.0000 0.46730  0.05770  0.05430  Biso   1.000  H
  H2       1.0000 0.96730  0.05770  0.44570  Biso   1.000  H
  H3       1.0000 0.46730  0.44230  0.05430  Biso   1.000  H
  H4       1.0000 0.03270  0.55770  0.55430  Biso   1.000  H
  H5       1.0000 0.53270  0.94230  0.94570  Biso   1.000  H
  H6       1.0000 0.03270  0.94230  0.55430  Biso   1.000  H
  H7       1.0000 0.53270  0.55770  0.94570  Biso   1.000  H
  H8       1.0000 0.96730  0.44230  0.44570  Biso   1.000  H
  C9       1.0000 0.46910  0.95610  0.19540  Biso   1.000  C
  C10      1.0000 0.96910  0.95610  0.30460  Biso   1.000  C
  C11      1.0000 0.46910  0.54390  0.19540  Biso   1.000  C
  C12      1.0000 0.03090  0.45610  0.69540  Biso   1.000  C
  C13      1.0000 0.53090  0.04390  0.80460  Biso   1.000  C
  C14      1.0000 0.03090  0.04390  0.69540  Biso   1.000  C
  C15      1.0000 0.53090  0.45610  0.80460  Biso   1.000  C
  C16      1.0000 0.96910  0.54390  0.30460  Biso   1.000  C
  H9       1.0000 0.49060  0.90840  0.17730  Biso   1.000  H
  H10      1.0000 0.99060  0.90840  0.32270  Biso   1.000  H
  H11      1.0000 0.49060  0.59160  0.17730  Biso   1.000  H
  H12      1.0000 0.00940  0.40840  0.67730  Biso   1.000  H
  H13      1.0000 0.50940  0.09160  0.82270  Biso   1.000  H
  H14      1.0000 0.00940  0.09160  0.67730  Biso   1.000  H
  H15      1.0000 0.50940  0.40840  0.82270  Biso   1.000  H
  H16      1.0000 0.99060  0.59160  0.32270  Biso   1.000  H
  C17      1.0000 0.45110  0.93900  0.29590  Biso   1.000  C
  C18      1.0000 0.95110  0.93900  0.20410  Biso   1.000  C
  C19      1.0000 0.45110  0.56100  0.29590  Biso   1.000  C
  C20      1.0000 0.04890  0.43900  0.79590  Biso   1.000  C
  C21      1.0000 0.54890  0.06100  0.70410  Biso   1.000  C
  C22      1.0000 0.04890  0.06100  0.79590  Biso   1.000  C
  C23      1.0000 0.54890  0.43900  0.70410  Biso   1.000  C
  C24      1.0000 0.95110  0.56100  0.20410  Biso   1.000  C
  H17      1.0000 0.46040  0.87860  0.34610  Biso   1.000  H
  H18      1.0000 0.96040  0.87860  0.15390  Biso   1.000  H
  H19      1.0000 0.46040  0.62140  0.34610  Biso   1.000  H
  H20      1.0000 0.03960  0.37860  0.84610  Biso   1.000  H
  H21      1.0000 0.53960  0.12140  0.65390  Biso   1.000  H
  H22      1.0000 0.03960  0.12140  0.84610  Biso   1.000  H
  H23      1.0000 0.53960  0.37860  0.65390  Biso   1.000  H
  H24      1.0000 0.96040  0.62140  0.15390  Biso   1.000  H
  C25      1.0000 0.41950  0.00960  0.32360  Biso   1.000  C
  C26      1.0000 0.91950  0.00960  0.17640  Biso   1.000  C
  C27      1.0000 0.41950  0.49040  0.32360  Biso   1.000  C
  C28      1.0000 0.08050  0.50960  0.82360  Biso   1.000  C
  C29      1.0000 0.58050  0.99040  0.67640  Biso   1.000  C
  C30      1.0000 0.08050  0.99040  0.82360  Biso   1.000  C
  C31      1.0000 0.58050  0.50960  0.67640  Biso   1.000  C
  C32      1.0000 0.91950  0.49040  0.17640  Biso   1.000  C
  C33      1.0000 0.40682  0.09370  0.24320  Biso   1.000  C
  C34      1.0000 0.90682  0.09370  0.25680  Biso   1.000  C
  C35      1.0000 0.40682  0.40630  0.24320  Biso   1.000  C
  C36      1.0000 0.09318  0.59370  0.74320  Biso   1.000  C
  C37      1.0000 0.59318  0.90630  0.75680  Biso   1.000  C
  C38      1.0000 0.09318  0.90630  0.74320  Biso   1.000  C
  C39      1.0000 0.59318  0.59370  0.75680  Biso   1.000  C
  C40      1.0000 0.90682  0.40630  0.25680  Biso   1.000  C
  H25      1.0000 0.38490  0.14010  0.25840  Biso   1.000  H
  H26      1.0000 0.88490  0.14010  0.24160  Biso   1.000  H
  H27      1.0000 0.38490  0.35990  0.25840  Biso   1.000  H
  H28      1.0000 0.11510  0.64010  0.75840  Biso   1.000  H
  H29      1.0000 0.61510  0.85990  0.74160  Biso   1.000  H
  H30      1.0000 0.11510  0.85990  0.75840  Biso   1.000  H
  H31      1.0000 0.61510  0.64010  0.74160  Biso   1.000  H
  H32      1.0000 0.88490  0.35990  0.24160  Biso   1.000  H
  C41      1.0000 0.39930  0.00590  0.43530  Biso   1.000  C
  C42      1.0000 0.89930  0.00590  0.06470  Biso   1.000  C
  C43      1.0000 0.39930  0.49410  0.43530  Biso   1.000  C
  C44      1.0000 0.10070  0.50590  0.93530  Biso   1.000  C
  C45      1.0000 0.60070  0.99410  0.56470  Biso   1.000  C
  C46      1.0000 0.10070  0.99410  0.93530  Biso   1.000  C
  C47      1.0000 0.60070  0.50590  0.56470  Biso   1.000  C
  C48      1.0000 0.89930  0.49410  0.06470  Biso   1.000  C
  H33      1.0000 0.37210  0.00150  0.42360  Biso   1.000  H
  H34      1.0000 0.87210  0.00150  0.07640  Biso   1.000  H
  H35      1.0000 0.37210  0.49850  0.42360  Biso   1.000  H
  H36      1.0000 0.12790  0.50150  0.92360  Biso   1.000  H
  H37      1.0000 0.62790  0.99850  0.57640  Biso   1.000  H
  H38      1.0000 0.12790  0.99850  0.92360  Biso   1.000  H
  H39      1.0000 0.62790  0.50150  0.57640  Biso   1.000  H
  H40      1.0000 0.87210  0.49850  0.07640  Biso   1.000  H
  H41      1.0000 0.40710  0.93020  0.47640  Biso   1.000  H
  H42      1.0000 0.90710  0.93020  0.02360  Biso   1.000  H
  H43      1.0000 0.40710  0.56980  0.47640  Biso   1.000  H
  H44      1.0000 0.09290  0.43020  0.97640  Biso   1.000  H
  H45      1.0000 0.59290  0.06980  0.52360  Biso   1.000  H
  H46      1.0000 0.09290  0.06980  0.97640  Biso   1.000  H
  H47      1.0000 0.59290  0.43020  0.52360  Biso   1.000  H
  H48      1.0000 0.90710  0.56980  0.02360  Biso   1.000  H
  C49      1.0000 0.45030  0.12680  0.52730  Biso   1.000  C
  C50      1.0000 0.95030  0.12680  0.97270  Biso   1.000  C
  C51      1.0000 0.45030  0.37320  0.52730  Biso   1.000  C
  C52      1.0000 0.04970  0.62680  0.02730  Biso   1.000  C
  C53      1.0000 0.54970  0.87320  0.47270  Biso   1.000  C
  C54      1.0000 0.04970  0.87320  0.02730  Biso   1.000  C
  C55      1.0000 0.54970  0.62680  0.47270  Biso   1.000  C
  C56      1.0000 0.95030  0.37320  0.97270  Biso   1.000  C
  H49      1.0000 0.45600  0.06060  0.58170  Biso   1.000  H
  H50      1.0000 0.95600  0.06060  0.91830  Biso   1.000  H
  H51      1.0000 0.45600  0.43940  0.58170  Biso   1.000  H
  H52      1.0000 0.04400  0.56060  0.08170  Biso   1.000  H
  H53      1.0000 0.54400  0.93940  0.41830  Biso   1.000  H
  H54      1.0000 0.04400  0.93940  0.08170  Biso   1.000  H
  H55      1.0000 0.54400  0.56060  0.41830  Biso   1.000  H
  H56      1.0000 0.95600  0.43940  0.91830  Biso   1.000  H
  H57      1.0000 0.46460  0.10780  0.46000  Biso   1.000  H
  H58      1.0000 0.96460  0.10780  0.04000  Biso   1.000  H
  H59      1.0000 0.46460  0.39220  0.46000  Biso   1.000  H
  H60      1.0000 0.03540  0.60780  0.96000  Biso   1.000  H
  H61      1.0000 0.53540  0.89220  0.54000  Biso   1.000  H
  H62      1.0000 0.03540  0.89220  0.96000  Biso   1.000  H
  H63      1.0000 0.53540  0.60780  0.54000  Biso   1.000  H
  H64      1.0000 0.96460  0.39220  0.04000  Biso   1.000  H
  C57      1.0000 0.46300  0.25000  0.57150  Biso   1.000  C
  C58      1.0000 0.96300  0.25000  0.92850  Biso   1.000  C
  C59      1.0000 0.03700  0.75000  0.07150  Biso   1.000  C
  C60      1.0000 0.53700  0.75000  0.42850  Biso   1.000  C
  H65      1.0000 0.49050  0.25000  0.56680  Biso   1.000  H
  H66      1.0000 0.99050  0.25000  0.93320  Biso   1.000  H
  H67      1.0000 0.00950  0.75000  0.06680  Biso   1.000  H
  H68      1.0000 0.50950  0.75000  0.43320  Biso   1.000  H
  H69      1.0000 0.45670  0.25000  0.65040  Biso   1.000  H
  H70      1.0000 0.95670  0.25000  0.84960  Biso   1.000  H
  H71      1.0000 0.04330  0.75000  0.15040  Biso   1.000  H
  H72      1.0000 0.54330  0.75000  0.34960  Biso   1.000  H
  C61      1.0000 0.38290  0.12530  0.60100  Biso   1.000  C
  C62      1.0000 0.88290  0.12530  0.89900  Biso   1.000  C
  C63      1.0000 0.38290  0.37470  0.60100  Biso   1.000  C
  C64      1.0000 0.11710  0.62530  0.10100  Biso   1.000  C
  C65      1.0000 0.61710  0.87470  0.39900  Biso   1.000  C
  C66      1.0000 0.11710  0.87470  0.10100  Biso   1.000  C
  C67      1.0000 0.61710  0.62530  0.39900  Biso   1.000  C
  C68      1.0000 0.88290  0.37470  0.89900  Biso   1.000  C
  H73      1.0000 0.35880  0.08680  0.58050  Biso   1.000  H
  H74      1.0000 0.85880  0.08680  0.91950  Biso   1.000  H
  H75      1.0000 0.35880  0.41320  0.58050  Biso   1.000  H
  H76      1.0000 0.14120  0.58680  0.08050  Biso   1.000  H
  H77      1.0000 0.64120  0.91320  0.41950  Biso   1.000  H
  H78      1.0000 0.14120  0.91320  0.08050  Biso   1.000  H
  H79      1.0000 0.64120  0.58680  0.41950  Biso   1.000  H
  H80      1.0000 0.85880  0.41320  0.91950  Biso   1.000  H
  H81      1.0000 0.39400  0.07330  0.65970  Biso   1.000  H
  H82      1.0000 0.89400  0.07330  0.84030  Biso   1.000  H
  H83      1.0000 0.39400  0.42670  0.65970  Biso   1.000  H
  H84      1.0000 0.10600  0.57330  0.15970  Biso   1.000  H
  H85      1.0000 0.60600  0.92670  0.34030  Biso   1.000  H
  H86      1.0000 0.10600  0.92670  0.15970  Biso   1.000  H
  H87      1.0000 0.60600  0.57330  0.34030  Biso   1.000  H
  H88      1.0000 0.89400  0.42670  0.84030  Biso   1.000  H
  C69      1.0000 0.37600  0.25000  0.64350  Biso   1.000  C
  C70      1.0000 0.87600  0.25000  0.85650  Biso   1.000  C
  C71      1.0000 0.12400  0.75000  0.14350  Biso   1.000  C
  C72      1.0000 0.62400  0.75000  0.35650  Biso   1.000  C
  H89      1.0000 0.38870  0.25000  0.71550  Biso   1.000  H
  H90      1.0000 0.88870  0.25000  0.78450  Biso   1.000  H
  H91      1.0000 0.11130  0.75000  0.21550  Biso   1.000  H
  H92      1.0000 0.61130  0.75000  0.28450  Biso   1.000  H
  H93      1.0000 0.34900  0.25000  0.66030  Biso   1.000  H
  H94      1.0000 0.84900  0.25000  0.83970  Biso   1.000  H
  H95      1.0000 0.15100  0.75000  0.16030  Biso   1.000  H
  H96      1.0000 0.65100  0.75000  0.33970  Biso   1.000  H
  C73      1.0000 0.37720  0.03320  0.89420  Biso   1.000  C
  C74      1.0000 0.87720  0.03320  0.60580  Biso   1.000  C
  C75      1.0000 0.37720  0.46680  0.89420  Biso   1.000  C
  C76      1.0000 0.12280  0.53320  0.39420  Biso   1.000  C
  C77      1.0000 0.62280  0.96680  0.10580  Biso   1.000  C
  C78      1.0000 0.12280  0.96680  0.39420  Biso   1.000  C
  C79      1.0000 0.62280  0.53320  0.10580  Biso   1.000  C
  C80      1.0000 0.87720  0.46680  0.60580  Biso   1.000  C
  H97      1.0000 0.40080  0.04140  0.85990  Biso   1.000  H
  H98      1.0000 0.90080  0.04140  0.64010  Biso   1.000  H
  H99      1.0000 0.40080  0.45860  0.85990  Biso   1.000  H
  H100     1.0000 0.09920  0.54140  0.35990  Biso   1.000  H
  H101     1.0000 0.59920  0.95860  0.14010  Biso   1.000  H
  H102     1.0000 0.09920  0.95860  0.35990  Biso   1.000  H
  H103     1.0000 0.59920  0.54140  0.14010  Biso   1.000  H
  H104     1.0000 0.90080  0.45860  0.64010  Biso   1.000  H
  C81      1.0000 0.35240  0.94040  0.85620  Biso   1.000  C
  C82      1.0000 0.85240  0.94040  0.64380  Biso   1.000  C
  C83      1.0000 0.35240  0.55960  0.85620  Biso   1.000  C
  C84      1.0000 0.14760  0.44040  0.35620  Biso   1.000  C
  C85      1.0000 0.64760  0.05960  0.14380  Biso   1.000  C
  C86      1.0000 0.14760  0.05960  0.35620  Biso   1.000  C
  C87      1.0000 0.64760  0.44040  0.14380  Biso   1.000  C
  C88      1.0000 0.85240  0.55960  0.64380  Biso   1.000  C
  H105     1.0000 0.35910  0.88780  0.79660  Biso   1.000  H
  H106     1.0000 0.85910  0.88780  0.70340  Biso   1.000  H
  H107     1.0000 0.35910  0.61220  0.79660  Biso   1.000  H
  H108     1.0000 0.14090  0.38780  0.29660  Biso   1.000  H
  H109     1.0000 0.64090  0.11220  0.20340  Biso   1.000  H
  H110     1.0000 0.14090  0.11220  0.29660  Biso   1.000  H
  H111     1.0000 0.64090  0.38780  0.20340  Biso   1.000  H
  H112     1.0000 0.85910  0.61220  0.70340  Biso   1.000  H
  C89      1.0000 0.31770  0.92700  0.90780  Biso   1.000  C
  C90      1.0000 0.81770  0.92700  0.59220  Biso   1.000  C
  C91      1.0000 0.31770  0.57300  0.90780  Biso   1.000  C
  C92      1.0000 0.18230  0.42700  0.40780  Biso   1.000  C
  C93      1.0000 0.68230  0.07300  0.09220  Biso   1.000  C
  C94      1.0000 0.18230  0.07300  0.40780  Biso   1.000  C
  C95      1.0000 0.68230  0.42700  0.09220  Biso   1.000  C
  C96      1.0000 0.81770  0.57300  0.59220  Biso   1.000  C
  H113     1.0000 0.30040  0.86700  0.88100  Biso   1.000  H
  H114     1.0000 0.80040  0.86700  0.61900  Biso   1.000  H
  H115     1.0000 0.30040  0.63300  0.88100  Biso   1.000  H
  H116     1.0000 0.19960  0.36700  0.38100  Biso   1.000  H
  H117     1.0000 0.69960  0.13300  0.11900  Biso   1.000  H
  H118     1.0000 0.19960  0.13300  0.38100  Biso   1.000  H
  H119     1.0000 0.69960  0.36700  0.11900  Biso   1.000  H
  H120     1.0000 0.80040  0.63300  0.61900  Biso   1.000  H
  C97      1.0000 0.30848  0.00010  0.99710  Biso   1.000  C
  C98      1.0000 0.80848  0.00010  0.50290  Biso   1.000  C
  C99      1.0000 0.30848  0.49990  0.99710  Biso   1.000  C
  C100     1.0000 0.19152  0.50010  0.49710  Biso   1.000  C
  C101     1.0000 0.69152  0.99990  0.00290  Biso   1.000  C
  C102     1.0000 0.19152  0.99990  0.49710  Biso   1.000  C
  C103     1.0000 0.69152  0.50010  0.00290  Biso   1.000  C
  C104     1.0000 0.80848  0.49990  0.50290  Biso   1.000  C
  C105     1.0000 0.33469  0.09110  0.02880  Biso   1.000  C
  C106     1.0000 0.83469  0.09110  0.47120  Biso   1.000  C
  C107     1.0000 0.33469  0.40890  0.02880  Biso   1.000  C
  C108     1.0000 0.16531  0.59110  0.52880  Biso   1.000  C
  C109     1.0000 0.66531  0.90890  0.97120  Biso   1.000  C
  C110     1.0000 0.16531  0.90890  0.52880  Biso   1.000  C
  C111     1.0000 0.66531  0.59110  0.97120  Biso   1.000  C
  C112     1.0000 0.83469  0.40890  0.47120  Biso   1.000  C
  H121     1.0000 0.32850  0.14230  0.08970  Biso   1.000  H
  H122     1.0000 0.82850  0.14230  0.41030  Biso   1.000  H
  H123     1.0000 0.32850  0.35770  0.08970  Biso   1.000  H
  H124     1.0000 0.17150  0.64230  0.58970  Biso   1.000  H
  H125     1.0000 0.67150  0.85770  0.91030  Biso   1.000  H
  H126     1.0000 0.17150  0.85770  0.58970  Biso   1.000  H
  H127     1.0000 0.67150  0.64230  0.91030  Biso   1.000  H
  H128     1.0000 0.82850  0.35770  0.41030  Biso   1.000  H
  C113     1.0000 0.27213  0.99300  0.06010  Biso   1.000  C
  C114     1.0000 0.77213  0.99300  0.43990  Biso   1.000  C
  C115     1.0000 0.27213  0.50700  0.06010  Biso   1.000  C
  C116     1.0000 0.22787  0.49300  0.56010  Biso   1.000  C
  C117     1.0000 0.72787  0.00700  0.93990  Biso   1.000  C
  C118     1.0000 0.22787  0.00700  0.56010  Biso   1.000  C
  C119     1.0000 0.72787  0.49300  0.93990  Biso   1.000  C
  C120     1.0000 0.77213  0.50700  0.43990  Biso   1.000  C
  H129     1.0000 0.25120  0.98700  0.00760  Biso   1.000  H
  H130     1.0000 0.75120  0.98700  0.49240  Biso   1.000  H
  H131     1.0000 0.25120  0.51300  0.00760  Biso   1.000  H
  H132     1.0000 0.24880  0.48700  0.50760  Biso   1.000  H
  H133     1.0000 0.74880  0.01300  0.99240  Biso   1.000  H
  H134     1.0000 0.24880  0.01300  0.50760  Biso   1.000  H
  H135     1.0000 0.74880  0.48700  0.99240  Biso   1.000  H
  H136     1.0000 0.75120  0.51300  0.49240  Biso   1.000  H
  H137     1.0000 0.26890  0.07110  0.10300  Biso   1.000  H
  H138     1.0000 0.76890  0.07110  0.39700  Biso   1.000  H
  H139     1.0000 0.26890  0.42890  0.10300  Biso   1.000  H
  H140     1.0000 0.23110  0.57110  0.60300  Biso   1.000  H
  H141     1.0000 0.73110  0.92890  0.89700  Biso   1.000  H
  H142     1.0000 0.23110  0.92890  0.60300  Biso   1.000  H
  H143     1.0000 0.73110  0.57110  0.89700  Biso   1.000  H
  H144     1.0000 0.76890  0.42890  0.39700  Biso   1.000  H
  C121     1.0000 0.30406  0.87360  0.21900  Biso   1.000  C
  C122     1.0000 0.80406  0.87360  0.28100  Biso   1.000  C
  C123     1.0000 0.30406  0.62640  0.21900  Biso   1.000  C
  C124     1.0000 0.19594  0.37360  0.71900  Biso   1.000  C
  C125     1.0000 0.69594  0.12640  0.78100  Biso   1.000  C
  C126     1.0000 0.19594  0.12640  0.71900  Biso   1.000  C
  C127     1.0000 0.69594  0.37360  0.78100  Biso   1.000  C
  C128     1.0000 0.80406  0.62640  0.28100  Biso   1.000  C
  H145     1.0000 0.29460  0.87570  0.29520  Biso   1.000  H
  H146     1.0000 0.79460  0.87570  0.20480  Biso   1.000  H
  H147     1.0000 0.29460  0.62430  0.29520  Biso   1.000  H
  H148     1.0000 0.20540  0.37570  0.79520  Biso   1.000  H
  H149     1.0000 0.70540  0.12430  0.70480  Biso   1.000  H
  H150     1.0000 0.20540  0.12430  0.79520  Biso   1.000  H
  H151     1.0000 0.70540  0.37570  0.70480  Biso   1.000  H
  H152     1.0000 0.79460  0.62430  0.20480  Biso   1.000  H
  H153     1.0000 0.32050  0.94710  0.20820  Biso   1.000  H
  H154     1.0000 0.82050  0.94710  0.29180  Biso   1.000  H
  H155     1.0000 0.32050  0.55290  0.20820  Biso   1.000  H
  H156     1.0000 0.17950  0.44710  0.70820  Biso   1.000  H
  H157     1.0000 0.67950  0.05290  0.79180  Biso   1.000  H
  H158     1.0000 0.17950  0.05290  0.70820  Biso   1.000  H
  H159     1.0000 0.67950  0.44710  0.79180  Biso   1.000  H
  H160     1.0000 0.82050  0.55290  0.29180  Biso   1.000  H
  C129     1.0000 0.32680  0.75000  0.20030  Biso   1.000  C
  C130     1.0000 0.82680  0.75000  0.29970  Biso   1.000  C
  C131     1.0000 0.17320  0.25000  0.70030  Biso   1.000  C
  C132     1.0000 0.67320  0.25000  0.79970  Biso   1.000  C
  H161     1.0000 0.33650  0.75000  0.12450  Biso   1.000  H
  H162     1.0000 0.83650  0.75000  0.37550  Biso   1.000  H
  H163     1.0000 0.16350  0.25000  0.62450  Biso   1.000  H
  H164     1.0000 0.66350  0.25000  0.87550  Biso   1.000  H
  H165     1.0000 0.34850  0.75000  0.25050  Biso   1.000  H
  H166     1.0000 0.84850  0.75000  0.24950  Biso   1.000  H
  H167     1.0000 0.15150  0.25000  0.75050  Biso   1.000  H
  H168     1.0000 0.65150  0.25000  0.74950  Biso   1.000  H
  C133     1.0000 0.23312  0.87200  0.19320  Biso   1.000  C
  C134     1.0000 0.73312  0.87200  0.30680  Biso   1.000  C
  C135     1.0000 0.23312  0.62800  0.19320  Biso   1.000  C
  C136     1.0000 0.26688  0.37200  0.69320  Biso   1.000  C
  C137     1.0000 0.76688  0.12800  0.80680  Biso   1.000  C
  C138     1.0000 0.26688  0.12800  0.69320  Biso   1.000  C
  C139     1.0000 0.76688  0.37200  0.80680  Biso   1.000  C
  C140     1.0000 0.73312  0.62800  0.30680  Biso   1.000  C
  H169     1.0000 0.21330  0.87640  0.13680  Biso   1.000  H
  H170     1.0000 0.71330  0.87640  0.36320  Biso   1.000  H
  H171     1.0000 0.21330  0.62360  0.13680  Biso   1.000  H
  H172     1.0000 0.28670  0.37640  0.63680  Biso   1.000  H
  H173     1.0000 0.78670  0.12360  0.86320  Biso   1.000  H
  H174     1.0000 0.28670  0.12360  0.63680  Biso   1.000  H
  H175     1.0000 0.78670  0.37640  0.86320  Biso   1.000  H
  H176     1.0000 0.71330  0.62360  0.36320  Biso   1.000  H
  H177     1.0000 0.23000  0.94490  0.24260  Biso   1.000  H
  H178     1.0000 0.73000  0.94490  0.25740  Biso   1.000  H
  H179     1.0000 0.23000  0.55510  0.24260  Biso   1.000  H
  H180     1.0000 0.27000  0.44490  0.74260  Biso   1.000  H
  H181     1.0000 0.77000  0.05510  0.75740  Biso   1.000  H
  H182     1.0000 0.27000  0.05510  0.74260  Biso   1.000  H
  H183     1.0000 0.77000  0.44490  0.75740  Biso   1.000  H
  H184     1.0000 0.73000  0.55510  0.25740  Biso   1.000  H
  C141     1.0000 0.22840  0.75000  0.25970  Biso   1.000  C
  C142     1.0000 0.72840  0.75000  0.24030  Biso   1.000  C
  C143     1.0000 0.27160  0.25000  0.75970  Biso   1.000  C
  C144     1.0000 0.77160  0.25000  0.74030  Biso   1.000  C
  H185     1.0000 0.20330  0.75000  0.29330  Biso   1.000  H
  H186     1.0000 0.70330  0.75000  0.20670  Biso   1.000  H
  H187     1.0000 0.29670  0.25000  0.79330  Biso   1.000  H
  H188     1.0000 0.79670  0.25000  0.70670  Biso   1.000  H
  H189     1.0000 0.24690  0.75000  0.31990  Biso   1.000  H
  H190     1.0000 0.74690  0.75000  0.18010  Biso   1.000  H
  H191     1.0000 0.25310  0.25000  0.81990  Biso   1.000  H
  H192     1.0000 0.75310  0.25000  0.68010  Biso   1.000  H
  Cl1      1.0000 0.45114  0.25000  0.89415  Biso   1.000  Cl
  Cl2      1.0000 0.95114  0.25000  0.60585  Biso   1.000  Cl
  Cl3      1.0000 0.04886  0.75000  0.39415  Biso   1.000  Cl
  Cl4      1.0000 0.54886  0.75000  0.10585  Biso   1.000  Cl
  Cl5      1.0000 0.54659  0.25000  0.32070  Biso   1.000  Cl
  Cl6      1.0000 0.04659  0.25000  0.17930  Biso   1.000  Cl
  Cl7      1.0000 0.95341  0.75000  0.82070  Biso   1.000  Cl
  Cl8      1.0000 0.45341  0.75000  0.67930  Biso   1.000  Cl
  Cl9      1.0000 0.31263  0.75000  0.55420  Biso   1.000  Cl
  Cl10     1.0000 0.81263  0.75000  0.94580  Biso   1.000  Cl
  Cl11     1.0000 0.18737  0.25000  0.05420  Biso   1.000  Cl
  Cl12     1.0000 0.68737  0.25000  0.44580  Biso   1.000  Cl
  Cl13     1.0000 0.29652  0.25000  0.34980  Biso   1.000  Cl
  Cl14     1.0000 0.79652  0.25000  0.15020  Biso   1.000  Cl
  Cl15     1.0000 0.20348  0.75000  0.84980  Biso   1.000  Cl
  Cl16     1.0000 0.70348  0.75000  0.65020  Biso   1.000  Cl
  O1       1.0000 0.50780  0.25000  0.28480  Biso   1.000  O
  O2       1.0000 0.00780  0.25000  0.21520  Biso   1.000  O
  O3       1.0000 0.99220  0.75000  0.78480  Biso   1.000  O
  O4       1.0000 0.49220  0.75000  0.71520  Biso   1.000  O
  O5       1.0000 0.56310  0.14410  0.28250  Biso   1.000  O
  O6       1.0000 0.06310  0.14410  0.21750  Biso   1.000  O
  O7       1.0000 0.56310  0.35590  0.28250  Biso   1.000  O
  O8       1.0000 0.93690  0.64410  0.78250  Biso   1.000  O
  O9       1.0000 0.43690  0.85590  0.71750  Biso   1.000  O
  O10      1.0000 0.93690  0.85590  0.78250  Biso   1.000  O
  O11      1.0000 0.43690  0.64410  0.71750  Biso   1.000  O
  O12      1.0000 0.06310  0.35590  0.21750  Biso   1.000  O
  O13      1.0000 0.54660  0.25000  0.44030  Biso   1.000  O
  O14      1.0000 0.04660  0.25000  0.05970  Biso   1.000  O
  O15      1.0000 0.95340  0.75000  0.94030  Biso   1.000  O
  O16      1.0000 0.45340  0.75000  0.55970  Biso   1.000  O
  O17      1.0000 0.34180  0.75000  0.47990  Biso   1.000  O
  O18      1.0000 0.84180  0.75000  0.02010  Biso   1.000  O
  O19      1.0000 0.15820  0.25000  0.97990  Biso   1.000  O
  O20      1.0000 0.65820  0.25000  0.52010  Biso   1.000  O
  O21      1.0000 0.31590  0.85160  0.61340  Biso   1.000  O
  O22      1.0000 0.81590  0.85160  0.88660  Biso   1.000  O
  O23      1.0000 0.31590  0.64840  0.61340  Biso   1.000  O
  O24      1.0000 0.18410  0.35160  0.11340  Biso   1.000  O
  O25      1.0000 0.68410  0.14840  0.38660  Biso   1.000  O
  O26      1.0000 0.18410  0.14840  0.11340  Biso   1.000  O
  O27      1.0000 0.68410  0.35160  0.38660  Biso   1.000  O
  O28      1.0000 0.81590  0.64840  0.88660  Biso   1.000  O
  O29      1.0000 0.27630  0.75000  0.50040  Biso   1.000  O
  O30      1.0000 0.77630  0.75000  0.99960  Biso   1.000  O
  O31      1.0000 0.22370  0.25000  0.00040  Biso   1.000  O
  O32      1.0000 0.72370  0.25000  0.49960  Biso   1.000  O
  O33      1.0000 0.27530  0.25000  0.43810  Biso   1.000  O
  O34      1.0000 0.77530  0.25000  0.06190  Biso   1.000  O
  O35      1.0000 0.22470  0.75000  0.93810  Biso   1.000  O
  O36      1.0000 0.72470  0.75000  0.56190  Biso   1.000  O
  O37      1.0000 0.33210  0.25000  0.34100  Biso   1.000  O
  O38      1.0000 0.83210  0.25000  0.15900  Biso   1.000  O
  O39      1.0000 0.16790  0.75000  0.84100  Biso   1.000  O
  O40      1.0000 0.66790  0.75000  0.65900  Biso   1.000  O
  O41      1.0000 0.30290  0.12600  0.38060  Biso   1.000  O
  O42      1.0000 0.80290  0.12600  0.11940  Biso   1.000  O
  O43      1.0000 0.30290  0.37400  0.38060  Biso   1.000  O
  O44      1.0000 0.19710  0.62600  0.88060  Biso   1.000  O
  O45      1.0000 0.69710  0.87400  0.61940  Biso   1.000  O
  O46      1.0000 0.19710  0.87400  0.88060  Biso   1.000  O
  O47      1.0000 0.69710  0.62600  0.61940  Biso   1.000  O
  O48      1.0000 0.80290  0.37400  0.11940  Biso   1.000  O
  O49      1.0000 0.29730  0.25000  0.23880  Biso   1.000  O
  O50      1.0000 0.79730  0.25000  0.26120  Biso   1.000  O
  O51      1.0000 0.20270  0.75000  0.73880  Biso   1.000  O
  O52      1.0000 0.70270  0.75000  0.76120  Biso   1.000  O
  O53      1.0000 0.26970  0.17900  0.29800  Biso   1.000  O
  O54      1.0000 0.76970  0.17900  0.20200  Biso   1.000  O
  O55      1.0000 0.26970  0.32100  0.29800  Biso   1.000  O
  O56      1.0000 0.23030  0.67900  0.79800  Biso   1.000  O
  O57      1.0000 0.73030  0.82100  0.70200  Biso   1.000  O
  O58      1.0000 0.23030  0.82100  0.79800  Biso   1.000  O
  O59      1.0000 0.73030  0.67900  0.70200  Biso   1.000  O
  O60      1.0000 0.76970  0.32100  0.20200  Biso   1.000  O
