data_image0
_cell_length_a       22.708
_cell_length_b       10.553
_cell_length_c       19.758
_cell_angle_alpha    90
_cell_angle_beta     90
_cell_angle_gamma    90

_symmetry_space_group_name_H-M    "P 1"
_symmetry_int_tables_number       1

loop_
  _symmetry_equiv_pos_as_xyz
  'x, y, z'

loop_
  _atom_site_label
  _atom_site_occupancy
  _atom_site_fract_x
  _atom_site_fract_y
  _atom_site_fract_z
  _atom_site_thermal_displace_type
  _atom_site_B_iso_or_equiv
  _atom_site_type_symbol
  Cu1      1.0000 0.22300  0.65734  0.28153  Biso   1.000  Cu
  Cu2      1.0000 0.77700  0.34266  0.28153  Biso   1.000  Cu
  Cu3      1.0000 0.27700  0.15734  0.71847  Biso   1.000  Cu
  Cu4      1.0000 0.72300  0.84266  0.71847  Biso   1.000  Cu
  N1       1.0000 0.16270  0.71790  0.34980  Biso   1.000  N
  N2       1.0000 0.83730  0.28210  0.34980  Biso   1.000  N
  N3       1.0000 0.33730  0.21790  0.65020  Biso   1.000  N
  N4       1.0000 0.66270  0.78210  0.65020  Biso   1.000  N
  N5       1.0000 0.99450  0.36450  0.82410  Biso   1.000  N
  N6       1.0000 0.00550  0.63550  0.82410  Biso   1.000  N
  N7       1.0000 0.50550  0.86450  0.17590  Biso   1.000  N
  N8       1.0000 0.49450  0.13550  0.17590  Biso   1.000  N
  N9       1.0000 0.17520  0.76060  0.20130  Biso   1.000  N
  N10      1.0000 0.82480  0.23940  0.20130  Biso   1.000  N
  N11      1.0000 0.32480  0.26060  0.79870  Biso   1.000  N
  N12      1.0000 0.67520  0.73940  0.79870  Biso   1.000  N
  N13      1.0000 0.21730  0.09920  0.78430  Biso   1.000  N
  N14      1.0000 0.78270  0.90080  0.78430  Biso   1.000  N
  N15      1.0000 0.28270  0.59920  0.21570  Biso   1.000  N
  N16      1.0000 0.71730  0.40080  0.21570  Biso   1.000  N
  O1       1.0000 0.17460  0.50170  0.26320  Biso   1.000  O
  O2       1.0000 0.82540  0.49830  0.26320  Biso   1.000  O
  O3       1.0000 0.32540  0.00170  0.73680  Biso   1.000  O
  O4       1.0000 0.67460  0.99830  0.73680  Biso   1.000  O
  O5       1.0000 0.21250  0.35780  0.33210  Biso   1.000  O
  O6       1.0000 0.78750  0.64220  0.33210  Biso   1.000  O
  O7       1.0000 0.28750  0.85780  0.66790  Biso   1.000  O
  O8       1.0000 0.71250  0.14220  0.66790  Biso   1.000  O
  O9       1.0000 0.03650  0.86470  0.47840  Biso   1.000  O
  O10      1.0000 0.96350  0.13530  0.47840  Biso   1.000  O
  O11      1.0000 0.46350  0.36470  0.52160  Biso   1.000  O
  O12      1.0000 0.53650  0.63530  0.52160  Biso   1.000  O
  O13      1.0000 0.97250  0.15080  0.64750  Biso   1.000  O
  O14      1.0000 0.02750  0.84920  0.64750  Biso   1.000  O
  O15      1.0000 0.52750  0.65080  0.35250  Biso   1.000  O
  O16      1.0000 0.47250  0.34920  0.35250  Biso   1.000  O
  O17      1.0000 0.06980  0.96460  0.07360  Biso   1.000  O
  O18      1.0000 0.93020  0.03540  0.07360  Biso   1.000  O
  O19      1.0000 0.43020  0.46460  0.92640  Biso   1.000  O
  O20      1.0000 0.56980  0.53540  0.92640  Biso   1.000  O
  O21      1.0000 0.07740  0.98310  0.90290  Biso   1.000  O
  O22      1.0000 0.92260  0.01690  0.90290  Biso   1.000  O
  O23      1.0000 0.42260  0.48310  0.09710  Biso   1.000  O
  O24      1.0000 0.57740  0.51690  0.09710  Biso   1.000  O
  C1       1.0000 0.17690  0.79190  0.39620  Biso   1.000  C
  C2       1.0000 0.82310  0.20810  0.39620  Biso   1.000  C
  C3       1.0000 0.32310  0.29190  0.60380  Biso   1.000  C
  C4       1.0000 0.67690  0.70810  0.60380  Biso   1.000  C
  H1       1.0000 0.21650  0.81410  0.39870  Biso   1.000  H
  H2       1.0000 0.78350  0.18590  0.39870  Biso   1.000  H
  H3       1.0000 0.28350  0.31410  0.60130  Biso   1.000  H
  H4       1.0000 0.71650  0.68590  0.60130  Biso   1.000  H
  C5       1.0000 0.13840  0.84730  0.44680  Biso   1.000  C
  C6       1.0000 0.86160  0.15270  0.44680  Biso   1.000  C
  C7       1.0000 0.36160  0.34730  0.55320  Biso   1.000  C
  C8       1.0000 0.63840  0.65270  0.55320  Biso   1.000  C
  H5       1.0000 0.15250  0.89660  0.48220  Biso   1.000  H
  H6       1.0000 0.84750  0.10340  0.48220  Biso   1.000  H
  H7       1.0000 0.34750  0.39660  0.51780  Biso   1.000  H
  H8       1.0000 0.65250  0.60340  0.51780  Biso   1.000  H
  C9       1.0000 0.08140  0.82270  0.43890  Biso   1.000  C
  C10      1.0000 0.91860  0.17730  0.43890  Biso   1.000  C
  C11      1.0000 0.41860  0.32270  0.56110  Biso   1.000  C
  C12      1.0000 0.58140  0.67730  0.56110  Biso   1.000  C
  C13      1.0000 0.06540  0.73750  0.38440  Biso   1.000  C
  C14      1.0000 0.93460  0.26250  0.38440  Biso   1.000  C
  C15      1.0000 0.43460  0.23750  0.61560  Biso   1.000  C
  C16      1.0000 0.56540  0.76250  0.61560  Biso   1.000  C
  H9       1.0000 0.02630  0.71350  0.37860  Biso   1.000  H
  H10      1.0000 0.97370  0.28650  0.37860  Biso   1.000  H
  H11      1.0000 0.47370  0.21350  0.62140  Biso   1.000  H
  H12      1.0000 0.52630  0.78650  0.62140  Biso   1.000  H
  C17      1.0000 0.10640  0.69380  0.34290  Biso   1.000  C
  C18      1.0000 0.89360  0.30620  0.34290  Biso   1.000  C
  C19      1.0000 0.39360  0.19380  0.65710  Biso   1.000  C
  C20      1.0000 0.60640  0.80620  0.65710  Biso   1.000  C
  H13      1.0000 0.09460  0.64320  0.30680  Biso   1.000  H
  H14      1.0000 0.90540  0.35680  0.30680  Biso   1.000  H
  H15      1.0000 0.40540  0.14320  0.69320  Biso   1.000  H
  H16      1.0000 0.59460  0.85680  0.69320  Biso   1.000  H
  C21      1.0000 0.05410  0.96220  0.52270  Biso   1.000  C
  C22      1.0000 0.94590  0.03780  0.52270  Biso   1.000  C
  C23      1.0000 0.44590  0.46220  0.47730  Biso   1.000  C
  C24      1.0000 0.55410  0.53780  0.47730  Biso   1.000  C
  H17      1.0000 0.06640  0.03570  0.49680  Biso   1.000  H
  H18      1.0000 0.93360  0.96430  0.49680  Biso   1.000  H
  H19      1.0000 0.43360  0.53570  0.50320  Biso   1.000  H
  H20      1.0000 0.56640  0.46430  0.50320  Biso   1.000  H
  H21      1.0000 0.08740  0.93400  0.54960  Biso   1.000  H
  H22      1.0000 0.91260  0.06600  0.54960  Biso   1.000  H
  H23      1.0000 0.41260  0.43400  0.45040  Biso   1.000  H
  H24      1.0000 0.58740  0.56600  0.45040  Biso   1.000  H
  C25      1.0000 0.00000  0.00000  0.98710  Biso   1.000  C
  C26      1.0000 0.50000  0.50000  0.01290  Biso   1.000  C
  C27      1.0000 0.03120  0.89480  0.02760  Biso   1.000  C
  C28      1.0000 0.96880  0.10520  0.02760  Biso   1.000  C
  C29      1.0000 0.46880  0.39480  0.97240  Biso   1.000  C
  C30      1.0000 0.53120  0.60520  0.97240  Biso   1.000  C
  H25      1.0000 0.00290  0.84400  0.05250  Biso   1.000  H
  H26      1.0000 0.99710  0.15600  0.05250  Biso   1.000  H
  H27      1.0000 0.49710  0.34400  0.94750  Biso   1.000  H
  H28      1.0000 0.50290  0.65600  0.94750  Biso   1.000  H
  H29      1.0000 0.05370  0.84000  0.99790  Biso   1.000  H
  H30      1.0000 0.94630  0.16000  0.99790  Biso   1.000  H
  H31      1.0000 0.44630  0.34000  0.00210  Biso   1.000  H
  H32      1.0000 0.55370  0.66000  0.00210  Biso   1.000  H
  C31      1.0000 0.13860  0.95490  0.16370  Biso   1.000  C
  C32      1.0000 0.86140  0.04510  0.16370  Biso   1.000  C
  C33      1.0000 0.36140  0.45490  0.83630  Biso   1.000  C
  C34      1.0000 0.63860  0.54510  0.83630  Biso   1.000  C
  H33      1.0000 0.13680  0.04270  0.16680  Biso   1.000  H
  H34      1.0000 0.86320  0.95730  0.16680  Biso   1.000  H
  H35      1.0000 0.36320  0.54270  0.83320  Biso   1.000  H
  H36      1.0000 0.63680  0.45730  0.83320  Biso   1.000  H
  C35      1.0000 0.00000  0.00000  0.57180  Biso   1.000  C
  C36      1.0000 0.50000  0.50000  0.42820  Biso   1.000  C
  C37      1.0000 0.12380  0.02600  0.86920  Biso   1.000  C
  C38      1.0000 0.87620  0.97400  0.86920  Biso   1.000  C
  C39      1.0000 0.37620  0.52600  0.13080  Biso   1.000  C
  C40      1.0000 0.62380  0.47400  0.13080  Biso   1.000  C
  C41      1.0000 0.04520  0.07500  0.94320  Biso   1.000  C
  C42      1.0000 0.95480  0.92500  0.94320  Biso   1.000  C
  C43      1.0000 0.45480  0.57500  0.05680  Biso   1.000  C
  C44      1.0000 0.54520  0.42500  0.05680  Biso   1.000  C
  H37      1.0000 0.02490  0.13450  0.91400  Biso   1.000  H
  H38      1.0000 0.97510  0.86550  0.91400  Biso   1.000  H
  H39      1.0000 0.47510  0.63450  0.08600  Biso   1.000  H
  H40      1.0000 0.52490  0.36550  0.08600  Biso   1.000  H
  H41      1.0000 0.07210  0.12190  0.97200  Biso   1.000  H
  H42      1.0000 0.92790  0.87810  0.97200  Biso   1.000  H
  H43      1.0000 0.42790  0.62190  0.02800  Biso   1.000  H
  H44      1.0000 0.57210  0.37810  0.02800  Biso   1.000  H
  C45      1.0000 0.10460  0.89490  0.11580  Biso   1.000  C
  C46      1.0000 0.89540  0.10510  0.11580  Biso   1.000  C
  C47      1.0000 0.39540  0.39490  0.88420  Biso   1.000  C
  C48      1.0000 0.60460  0.60510  0.88420  Biso   1.000  C
  C49      1.0000 0.10990  0.76330  0.11050  Biso   1.000  C
  C50      1.0000 0.89010  0.23670  0.11050  Biso   1.000  C
  C51      1.0000 0.39010  0.26330  0.88950  Biso   1.000  C
  C52      1.0000 0.60990  0.73670  0.88950  Biso   1.000  C
  H45      1.0000 0.09020  0.71750  0.07730  Biso   1.000  H
  H46      1.0000 0.90980  0.28250  0.07730  Biso   1.000  H
  H47      1.0000 0.40980  0.21750  0.92270  Biso   1.000  H
  H48      1.0000 0.59020  0.78250  0.92270  Biso   1.000  H
  C53      1.0000 0.98280  0.22450  0.70400  Biso   1.000  C
  C54      1.0000 0.01720  0.77550  0.70400  Biso   1.000  C
  C55      1.0000 0.51720  0.72450  0.29600  Biso   1.000  C
  C56      1.0000 0.48280  0.27550  0.29600  Biso   1.000  C
  C57      1.0000 0.12250  0.31240  0.27800  Biso   1.000  C
  C58      1.0000 0.87750  0.68760  0.27800  Biso   1.000  C
  C59      1.0000 0.37750  0.81240  0.72200  Biso   1.000  C
  C60      1.0000 0.62250  0.18760  0.72200  Biso   1.000  C
  C61      1.0000 0.08010  0.35210  0.23400  Biso   1.000  C
  C62      1.0000 0.91990  0.64790  0.23400  Biso   1.000  C
  C63      1.0000 0.41990  0.85210  0.76600  Biso   1.000  C
  C64      1.0000 0.58010  0.14790  0.76600  Biso   1.000  C
  H49      1.0000 0.08220  0.43220  0.21450  Biso   1.000  H
  H50      1.0000 0.91780  0.56780  0.21450  Biso   1.000  H
  H51      1.0000 0.41780  0.93220  0.78550  Biso   1.000  H
  H52      1.0000 0.58220  0.06780  0.78550  Biso   1.000  H
  C65      1.0000 0.14480  0.70690  0.15580  Biso   1.000  C
  C66      1.0000 0.85520  0.29310  0.15580  Biso   1.000  C
  C67      1.0000 0.35520  0.20690  0.84420  Biso   1.000  C
  C68      1.0000 0.64480  0.79310  0.84420  Biso   1.000  C
  H53      1.0000 0.14710  0.61900  0.15370  Biso   1.000  H
  H54      1.0000 0.85290  0.38100  0.15370  Biso   1.000  H
  H55      1.0000 0.35290  0.11900  0.84630  Biso   1.000  H
  H56      1.0000 0.64710  0.88100  0.84630  Biso   1.000  H
  C69      1.0000 0.15180  0.94080  0.83060  Biso   1.000  C
  C70      1.0000 0.84820  0.05920  0.83060  Biso   1.000  C
  C71      1.0000 0.34820  0.44080  0.16940  Biso   1.000  C
  C72      1.0000 0.65180  0.55920  0.16940  Biso   1.000  C
  H57      1.0000 0.14230  0.85520  0.83200  Biso   1.000  H
  H58      1.0000 0.85770  0.14480  0.83200  Biso   1.000  H
  H59      1.0000 0.35770  0.35520  0.16800  Biso   1.000  H
  H60      1.0000 0.64230  0.64480  0.16800  Biso   1.000  H
  O25      1.0000 0.28700  0.71790  0.34050  Biso   1.000  O
  O26      1.0000 0.71300  0.28210  0.34050  Biso   1.000  O
  O27      1.0000 0.21300  0.21790  0.65950  Biso   1.000  O
  O28      1.0000 0.78700  0.78210  0.65950  Biso   1.000  O
  C73      1.0000 0.19790  0.98880  0.78630  Biso   1.000  C
  C74      1.0000 0.80210  0.01120  0.78630  Biso   1.000  C
  C75      1.0000 0.30210  0.48880  0.21370  Biso   1.000  C
  C76      1.0000 0.69790  0.51120  0.21370  Biso   1.000  C
  H61      1.0000 0.21470  0.93100  0.75650  Biso   1.000  H
  H62      1.0000 0.78530  0.06900  0.75650  Biso   1.000  H
  H63      1.0000 0.28530  0.43100  0.24350  Biso   1.000  H
  H64      1.0000 0.71470  0.56900  0.24350  Biso   1.000  H
  C77      1.0000 0.03920  0.25730  0.72930  Biso   1.000  C
  C78      1.0000 0.96080  0.74270  0.72930  Biso   1.000  C
  C79      1.0000 0.46080  0.75730  0.27070  Biso   1.000  C
  C80      1.0000 0.53920  0.24270  0.27070  Biso   1.000  C
  H65      1.0000 0.07340  0.23470  0.70640  Biso   1.000  H
  H66      1.0000 0.92660  0.76530  0.70640  Biso   1.000  H
  H67      1.0000 0.42660  0.73470  0.29360  Biso   1.000  H
  H68      1.0000 0.57340  0.26530  0.29360  Biso   1.000  H
  C81      1.0000 0.02390  0.16200  0.24600  Biso   1.000  C
  C82      1.0000 0.97610  0.83800  0.24600  Biso   1.000  C
  C83      1.0000 0.47610  0.66200  0.75400  Biso   1.000  C
  C84      1.0000 0.52390  0.33800  0.75400  Biso   1.000  C
  H69      1.0000 0.99170  0.11300  0.23320  Biso   1.000  H
  H70      1.0000 0.00830  0.88700  0.23320  Biso   1.000  H
  H71      1.0000 0.50830  0.61300  0.76680  Biso   1.000  H
  H72      1.0000 0.49170  0.38700  0.76680  Biso   1.000  H
  C85      1.0000 0.02060  0.10820  0.60850  Biso   1.000  C
  C86      1.0000 0.97940  0.89180  0.60850  Biso   1.000  C
  C87      1.0000 0.47940  0.60820  0.39150  Biso   1.000  C
  C88      1.0000 0.52060  0.39180  0.39150  Biso   1.000  C
  H73      1.0000 0.05330  0.08520  0.63760  Biso   1.000  H
  H74      1.0000 0.94670  0.91480  0.63760  Biso   1.000  H
  H75      1.0000 0.44670  0.58520  0.36240  Biso   1.000  H
  H76      1.0000 0.55330  0.41480  0.36240  Biso   1.000  H
  H77      1.0000 0.03350  0.17400  0.57760  Biso   1.000  H
  H78      1.0000 0.96650  0.82600  0.57760  Biso   1.000  H
  H79      1.0000 0.46650  0.67400  0.42240  Biso   1.000  H
  H80      1.0000 0.53350  0.32600  0.42240  Biso   1.000  H
  C89      1.0000 0.17350  0.89350  0.20520  Biso   1.000  C
  C90      1.0000 0.82650  0.10650  0.20520  Biso   1.000  C
  C91      1.0000 0.32650  0.39350  0.79480  Biso   1.000  C
  C92      1.0000 0.67350  0.60650  0.79480  Biso   1.000  C
  H81      1.0000 0.19660  0.93680  0.23640  Biso   1.000  H
  H82      1.0000 0.80340  0.06320  0.23640  Biso   1.000  H
  H83      1.0000 0.30340  0.43680  0.76360  Biso   1.000  H
  H84      1.0000 0.69660  0.56320  0.76360  Biso   1.000  H
  C93      1.0000 0.18790  0.17580  0.82520  Biso   1.000  C
  C94      1.0000 0.81210  0.82420  0.82520  Biso   1.000  C
  C95      1.0000 0.31210  0.67580  0.17480  Biso   1.000  C
  C96      1.0000 0.68790  0.32420  0.17480  Biso   1.000  C
  H85      1.0000 0.19970  0.26020  0.82580  Biso   1.000  H
  H86      1.0000 0.80030  0.73980  0.82580  Biso   1.000  H
  H87      1.0000 0.30030  0.76020  0.17420  Biso   1.000  H
  H88      1.0000 0.69970  0.23980  0.17420  Biso   1.000  H
  C97      1.0000 0.06500  0.12450  0.29530  Biso   1.000  C
  C98      1.0000 0.93500  0.87550  0.29530  Biso   1.000  C
  C99      1.0000 0.43500  0.62450  0.70470  Biso   1.000  C
  C100     1.0000 0.56500  0.37550  0.70470  Biso   1.000  C
  H89      1.0000 0.05870  0.04930  0.31870  Biso   1.000  H
  H90      1.0000 0.94130  0.95070  0.31870  Biso   1.000  H
  H91      1.0000 0.44130  0.54930  0.68130  Biso   1.000  H
  H92      1.0000 0.55870  0.45070  0.68130  Biso   1.000  H
  C101     1.0000 0.36040  0.90100  0.39400  Biso   1.000  C
  C102     1.0000 0.63960  0.09900  0.39400  Biso   1.000  C
  C103     1.0000 0.13960  0.40100  0.60600  Biso   1.000  C
  C104     1.0000 0.86040  0.59900  0.60600  Biso   1.000  C
  H93      1.0000 0.37180  0.98260  0.37670  Biso   1.000  H
  H94      1.0000 0.62820  0.01740  0.37670  Biso   1.000  H
  H95      1.0000 0.12820  0.48260  0.62330  Biso   1.000  H
  H96      1.0000 0.87180  0.51740  0.62330  Biso   1.000  H
  H97      1.0000 0.39470  0.84940  0.39980  Biso   1.000  H
  H98      1.0000 0.60530  0.15060  0.39980  Biso   1.000  H
  H99      1.0000 0.10530  0.34940  0.60020  Biso   1.000  H
  H100     1.0000 0.89470  0.65060  0.60020  Biso   1.000  H
  H101     1.0000 0.34100  0.91200  0.43680  Biso   1.000  H
  H102     1.0000 0.65900  0.08800  0.43680  Biso   1.000  H
  H103     1.0000 0.15900  0.41200  0.56320  Biso   1.000  H
  H104     1.0000 0.84100  0.58800  0.56320  Biso   1.000  H
  C105     1.0000 0.11370  0.19480  0.31000  Biso   1.000  C
  C106     1.0000 0.88630  0.80520  0.31000  Biso   1.000  C
  C107     1.0000 0.38630  0.69480  0.69000  Biso   1.000  C
  C108     1.0000 0.61370  0.30520  0.69000  Biso   1.000  C
  H105     1.0000 0.14120  0.16500  0.34110  Biso   1.000  H
  H106     1.0000 0.85880  0.83500  0.34110  Biso   1.000  H
  H107     1.0000 0.35880  0.66500  0.65890  Biso   1.000  H
  H108     1.0000 0.64120  0.33500  0.65890  Biso   1.000  H
  C109     1.0000 0.17580  0.39500  0.29740  Biso   1.000  C
  C110     1.0000 0.82420  0.60500  0.29740  Biso   1.000  C
  C111     1.0000 0.32420  0.89500  0.70260  Biso   1.000  C
  C112     1.0000 0.67580  0.10500  0.70260  Biso   1.000  C
  O29      1.0000 0.30020  0.89240  0.28720  Biso   1.000  O
  O30      1.0000 0.69980  0.10760  0.28720  Biso   1.000  O
  O31      1.0000 0.19980  0.39240  0.71280  Biso   1.000  O
  O32      1.0000 0.80020  0.60760  0.71280  Biso   1.000  O
  C113     1.0000 0.04110  0.32410  0.78900  Biso   1.000  C
  C114     1.0000 0.95890  0.67590  0.78900  Biso   1.000  C
  C115     1.0000 0.45890  0.82410  0.21100  Biso   1.000  C
  C116     1.0000 0.54110  0.17590  0.21100  Biso   1.000  C
  H109     1.0000 0.07810  0.34270  0.80650  Biso   1.000  H
  H110     1.0000 0.92190  0.65730  0.80650  Biso   1.000  H
  H111     1.0000 0.42190  0.84270  0.19350  Biso   1.000  H
  H112     1.0000 0.57810  0.15730  0.19350  Biso   1.000  H
  C117     1.0000 0.03610  0.27570  0.21940  Biso   1.000  C
  C118     1.0000 0.96390  0.72430  0.21940  Biso   1.000  C
  C119     1.0000 0.46390  0.77570  0.78060  Biso   1.000  C
  C120     1.0000 0.53610  0.22430  0.78060  Biso   1.000  C
  H113     1.0000 0.01020  0.30430  0.18640  Biso   1.000  H
  H114     1.0000 0.98980  0.69570  0.18640  Biso   1.000  H
  H115     1.0000 0.48980  0.80430  0.81360  Biso   1.000  H
  H116     1.0000 0.51020  0.19570  0.81360  Biso   1.000  H
  C121     1.0000 0.94520  0.31650  0.80190  Biso   1.000  C
  C122     1.0000 0.05480  0.68350  0.80190  Biso   1.000  C
  C123     1.0000 0.55480  0.81650  0.19810  Biso   1.000  C
  C124     1.0000 0.44520  0.18350  0.19810  Biso   1.000  C
  H117     1.0000 0.91410  0.32050  0.83230  Biso   1.000  H
  H118     1.0000 0.08590  0.67950  0.83230  Biso   1.000  H
  H119     1.0000 0.58590  0.82050  0.16770  Biso   1.000  H
  H120     1.0000 0.41410  0.17950  0.16770  Biso   1.000  H
  C125     1.0000 0.31020  0.82520  0.33470  Biso   1.000  C
  C126     1.0000 0.68980  0.17480  0.33470  Biso   1.000  C
  C127     1.0000 0.18980  0.32520  0.66530  Biso   1.000  C
  C128     1.0000 0.81020  0.67480  0.66530  Biso   1.000  C
  C129     1.0000 0.93230  0.26270  0.74280  Biso   1.000  C
  C130     1.0000 0.06770  0.73730  0.74280  Biso   1.000  C
  C131     1.0000 0.56770  0.76270  0.25720  Biso   1.000  C
  C132     1.0000 0.43230  0.23730  0.25720  Biso   1.000  C
  H121     1.0000 0.89380  0.25080  0.72790  Biso   1.000  H
  H122     1.0000 0.10620  0.74920  0.72790  Biso   1.000  H
  H123     1.0000 0.60620  0.75080  0.27210  Biso   1.000  H
  H124     1.0000 0.39380  0.24920  0.27210  Biso   1.000  H
  C133     1.0000 0.14290  0.14420  0.86600  Biso   1.000  C
  C134     1.0000 0.85710  0.85580  0.86600  Biso   1.000  C
  C135     1.0000 0.35710  0.64420  0.13400  Biso   1.000  C
  C136     1.0000 0.64290  0.35580  0.13400  Biso   1.000  C
  H125     1.0000 0.12500  0.20620  0.89240  Biso   1.000  H
  H126     1.0000 0.87500  0.79380  0.89240  Biso   1.000  H
  H127     1.0000 0.37500  0.70620  0.10760  Biso   1.000  H
  H128     1.0000 0.62500  0.29380  0.10760  Biso   1.000  H
