data_image0
_cell_length_a       16.9553
_cell_length_b       7.8694
_cell_length_c       22.512
_cell_angle_alpha    90
_cell_angle_beta     106.335
_cell_angle_gamma    90

_symmetry_space_group_name_H-M    "P 1"
_symmetry_int_tables_number       1

loop_
  _symmetry_equiv_pos_as_xyz
  'x, y, z'

loop_
  _atom_site_label
  _atom_site_occupancy
  _atom_site_fract_x
  _atom_site_fract_y
  _atom_site_fract_z
  _atom_site_thermal_displace_type
  _atom_site_B_iso_or_equiv
  _atom_site_type_symbol
  Cu1      1.0000 0.22819  0.41585  0.11960  Biso   1.000  Cu
  Cu2      1.0000 0.22819  0.08415  0.61960  Biso   1.000  Cu
  Cu3      1.0000 0.77181  0.58415  0.88040  Biso   1.000  Cu
  Cu4      1.0000 0.77181  0.91585  0.38040  Biso   1.000  Cu
  Cu5      1.0000 0.22614  0.58522  0.25830  Biso   1.000  Cu
  Cu6      1.0000 0.22614  0.91478  0.75830  Biso   1.000  Cu
  Cu7      1.0000 0.77386  0.41478  0.74170  Biso   1.000  Cu
  Cu8      1.0000 0.77386  0.08522  0.24170  Biso   1.000  Cu
  O1       1.0000 0.29200  0.49650  0.20366  Biso   1.000  O
  O2       1.0000 0.29200  0.00350  0.70366  Biso   1.000  O
  O3       1.0000 0.70800  0.50350  0.79634  Biso   1.000  O
  O4       1.0000 0.70800  0.99650  0.29634  Biso   1.000  O
  C1       1.0000 0.37590  0.49530  0.22220  Biso   1.000  C
  C2       1.0000 0.37590  0.00470  0.72220  Biso   1.000  C
  C3       1.0000 0.62410  0.50470  0.77780  Biso   1.000  C
  C4       1.0000 0.62410  0.99530  0.27780  Biso   1.000  C
  C5       1.0000 0.42060  0.53190  0.18000  Biso   1.000  C
  C6       1.0000 0.42060  0.96810  0.68000  Biso   1.000  C
  C7       1.0000 0.57940  0.46810  0.82000  Biso   1.000  C
  C8       1.0000 0.57940  0.03190  0.32000  Biso   1.000  C
  C9       1.0000 0.50650  0.52830  0.20000  Biso   1.000  C
  C10      1.0000 0.50650  0.97170  0.70000  Biso   1.000  C
  C11      1.0000 0.49350  0.47170  0.80000  Biso   1.000  C
  C12      1.0000 0.49350  0.02830  0.30000  Biso   1.000  C
  H1       1.0000 0.53560  0.54900  0.17130  Biso   1.000  H
  H2       1.0000 0.53560  0.95100  0.67130  Biso   1.000  H
  H3       1.0000 0.46440  0.45100  0.82870  Biso   1.000  H
  H4       1.0000 0.46440  0.04900  0.32870  Biso   1.000  H
  C13      1.0000 0.55040  0.49460  0.26180  Biso   1.000  C
  C14      1.0000 0.55040  0.00540  0.76180  Biso   1.000  C
  C15      1.0000 0.44960  0.50540  0.73820  Biso   1.000  C
  C16      1.0000 0.44960  0.99460  0.23820  Biso   1.000  C
  C17      1.0000 0.64320  0.49560  0.28220  Biso   1.000  C
  C18      1.0000 0.64320  0.00440  0.78220  Biso   1.000  C
  C19      1.0000 0.35680  0.50440  0.71780  Biso   1.000  C
  C20      1.0000 0.35680  0.99560  0.21780  Biso   1.000  C
  H5       1.0000 0.66260  0.61050  0.28340  Biso   1.000  H
  H6       1.0000 0.66260  0.88950  0.78340  Biso   1.000  H
  H7       1.0000 0.33740  0.38950  0.71660  Biso   1.000  H
  H8       1.0000 0.33740  0.11050  0.21660  Biso   1.000  H
  H9       1.0000 0.66350  0.43080  0.25360  Biso   1.000  H
  H10      1.0000 0.66350  0.06920  0.75360  Biso   1.000  H
  H11      1.0000 0.33650  0.56920  0.74640  Biso   1.000  H
  H12      1.0000 0.33650  0.93080  0.24640  Biso   1.000  H
  H13      1.0000 0.66240  0.44630  0.32270  Biso   1.000  H
  H14      1.0000 0.66240  0.05370  0.82270  Biso   1.000  H
  H15      1.0000 0.33760  0.55370  0.67730  Biso   1.000  H
  H16      1.0000 0.33760  0.94630  0.17730  Biso   1.000  H
  C21      1.0000 0.50420  0.46250  0.30310  Biso   1.000  C
  C22      1.0000 0.50420  0.03750  0.80310  Biso   1.000  C
  C23      1.0000 0.49580  0.53750  0.69690  Biso   1.000  C
  C24      1.0000 0.49580  0.96250  0.19690  Biso   1.000  C
  H17      1.0000 0.53160  0.44230  0.34440  Biso   1.000  H
  H18      1.0000 0.53160  0.05770  0.84440  Biso   1.000  H
  H19      1.0000 0.46840  0.55770  0.65560  Biso   1.000  H
  H20      1.0000 0.46840  0.94230  0.15560  Biso   1.000  H
  C25      1.0000 0.41850  0.45950  0.28460  Biso   1.000  C
  C26      1.0000 0.41850  0.04050  0.78460  Biso   1.000  C
  C27      1.0000 0.58150  0.54050  0.71540  Biso   1.000  C
  C28      1.0000 0.58150  0.95950  0.21540  Biso   1.000  C
  C29      1.0000 0.37770  0.57790  0.11340  Biso   1.000  C
  C30      1.0000 0.37770  0.92210  0.61340  Biso   1.000  C
  C31      1.0000 0.62230  0.42210  0.88660  Biso   1.000  C
  C32      1.0000 0.62230  0.07790  0.38660  Biso   1.000  C
  H21      1.0000 0.34730  0.68260  0.11260  Biso   1.000  H
  H22      1.0000 0.34730  0.81740  0.61260  Biso   1.000  H
  H23      1.0000 0.65270  0.31740  0.88740  Biso   1.000  H
  H24      1.0000 0.65270  0.18260  0.38740  Biso   1.000  H
  H25      1.0000 0.41880  0.59830  0.09170  Biso   1.000  H
  H26      1.0000 0.41880  0.90170  0.59170  Biso   1.000  H
  H27      1.0000 0.58120  0.40170  0.90830  Biso   1.000  H
  H28      1.0000 0.58120  0.09830  0.40830  Biso   1.000  H
  N1       1.0000 0.31990  0.44260  0.08000  Biso   1.000  N
  N2       1.0000 0.31990  0.05740  0.58000  Biso   1.000  N
  N3       1.0000 0.68010  0.55740  0.92000  Biso   1.000  N
  N4       1.0000 0.68010  0.94260  0.42000  Biso   1.000  N
  C33      1.0000 0.28190  0.49640  0.01390  Biso   1.000  C
  C34      1.0000 0.28190  0.00360  0.51390  Biso   1.000  C
  C35      1.0000 0.71810  0.50360  0.98610  Biso   1.000  C
  C36      1.0000 0.71810  0.99640  0.48610  Biso   1.000  C
  H29      1.0000 0.27200  0.39630  0.98770  Biso   1.000  H
  H30      1.0000 0.27200  0.10370  0.48770  Biso   1.000  H
  H31      1.0000 0.72800  0.60370  0.01230  Biso   1.000  H
  H32      1.0000 0.72800  0.89630  0.51230  Biso   1.000  H
  H33      1.0000 0.32040  0.56830  0.00090  Biso   1.000  H
  H34      1.0000 0.32040  0.93170  0.50090  Biso   1.000  H
  H35      1.0000 0.67960  0.43170  0.99910  Biso   1.000  H
  H36      1.0000 0.67960  0.06830  0.49910  Biso   1.000  H
  C37      1.0000 0.20100  0.59260  0.00460  Biso   1.000  C
  C38      1.0000 0.20100  0.90740  0.50460  Biso   1.000  C
  C39      1.0000 0.79900  0.40740  0.99540  Biso   1.000  C
  C40      1.0000 0.79900  0.09260  0.49540  Biso   1.000  C
  O5       1.0000 0.16860  0.58790  0.04944  Biso   1.000  O
  O6       1.0000 0.16860  0.91210  0.54944  Biso   1.000  O
  O7       1.0000 0.83140  0.41210  0.95056  Biso   1.000  O
  O8       1.0000 0.83140  0.08790  0.45056  Biso   1.000  O
  O9       1.0000 0.17150  0.66150  0.95357  Biso   1.000  O
  O10      1.0000 0.17150  0.83850  0.45357  Biso   1.000  O
  O11      1.0000 0.82850  0.33850  0.04643  Biso   1.000  O
  O12      1.0000 0.82850  0.16150  0.54643  Biso   1.000  O
  C41      1.0000 0.36050  0.27370  0.08130  Biso   1.000  C
  C42      1.0000 0.36050  0.22630  0.58130  Biso   1.000  C
  C43      1.0000 0.63950  0.72630  0.91870  Biso   1.000  C
  C44      1.0000 0.63950  0.77370  0.41870  Biso   1.000  C
  H37      1.0000 0.40090  0.25790  0.12110  Biso   1.000  H
  H38      1.0000 0.40090  0.24210  0.62110  Biso   1.000  H
  H39      1.0000 0.59910  0.74210  0.87890  Biso   1.000  H
  H40      1.0000 0.59910  0.75790  0.37890  Biso   1.000  H
  H41      1.0000 0.38880  0.26960  0.04940  Biso   1.000  H
  H42      1.0000 0.38880  0.23040  0.54940  Biso   1.000  H
  H43      1.0000 0.61120  0.73040  0.95060  Biso   1.000  H
  H44      1.0000 0.61120  0.76960  0.45060  Biso   1.000  H
  C45      1.0000 0.29680  0.13170  0.07070  Biso   1.000  C
  C46      1.0000 0.29680  0.36830  0.57070  Biso   1.000  C
  C47      1.0000 0.70320  0.86830  0.92930  Biso   1.000  C
  C48      1.0000 0.70320  0.63170  0.42930  Biso   1.000  C
  O13      1.0000 0.22900  0.17000  0.08440  Biso   1.000  O
  O14      1.0000 0.22900  0.33000  0.58440  Biso   1.000  O
  O15      1.0000 0.77100  0.83000  0.91560  Biso   1.000  O
  O16      1.0000 0.77100  0.67000  0.41560  Biso   1.000  O
  O17      1.0000 0.31180  0.99110  0.05240  Biso   1.000  O
  O18      1.0000 0.31180  0.50890  0.55240  Biso   1.000  O
  O19      1.0000 0.68820  0.00890  0.94760  Biso   1.000  O
  O20      1.0000 0.68820  0.49110  0.44760  Biso   1.000  O
  C49      1.0000 0.37270  0.41110  0.33060  Biso   1.000  C
  C50      1.0000 0.37270  0.08890  0.83060  Biso   1.000  C
  C51      1.0000 0.62730  0.58890  0.66940  Biso   1.000  C
  C52      1.0000 0.62730  0.91110  0.16940  Biso   1.000  C
  H45      1.0000 0.41210  0.38820  0.37030  Biso   1.000  H
  H46      1.0000 0.41210  0.11180  0.87030  Biso   1.000  H
  H47      1.0000 0.58790  0.61180  0.62970  Biso   1.000  H
  H48      1.0000 0.58790  0.88820  0.12970  Biso   1.000  H
  H49      1.0000 0.34220  0.30730  0.31680  Biso   1.000  H
  H50      1.0000 0.34220  0.19270  0.81680  Biso   1.000  H
  H51      1.0000 0.65780  0.69270  0.68320  Biso   1.000  H
  H52      1.0000 0.65780  0.80730  0.18320  Biso   1.000  H
  N5       1.0000 0.31340  0.54890  0.33880  Biso   1.000  N
  N6       1.0000 0.31340  0.95110  0.83880  Biso   1.000  N
  N7       1.0000 0.68660  0.45110  0.66120  Biso   1.000  N
  N8       1.0000 0.68660  0.04890  0.16120  Biso   1.000  N
  C53      1.0000 0.35550  0.71380  0.35840  Biso   1.000  C
  C54      1.0000 0.35550  0.78620  0.85840  Biso   1.000  C
  C55      1.0000 0.64450  0.28620  0.64160  Biso   1.000  C
  C56      1.0000 0.64450  0.21380  0.14160  Biso   1.000  C
  H53      1.0000 0.39880  0.72930  0.33850  Biso   1.000  H
  H54      1.0000 0.39880  0.77070  0.83850  Biso   1.000  H
  H55      1.0000 0.60120  0.27070  0.66150  Biso   1.000  H
  H56      1.0000 0.60120  0.22930  0.16150  Biso   1.000  H
  H57      1.0000 0.38030  0.71320  0.40280  Biso   1.000  H
  H58      1.0000 0.38030  0.78680  0.90280  Biso   1.000  H
  H59      1.0000 0.61970  0.28680  0.59720  Biso   1.000  H
  H60      1.0000 0.61970  0.21320  0.09720  Biso   1.000  H
  C57      1.0000 0.29410  0.86060  0.34100  Biso   1.000  C
  C58      1.0000 0.29410  0.63940  0.84100  Biso   1.000  C
  C59      1.0000 0.70590  0.13940  0.65900  Biso   1.000  C
  C60      1.0000 0.70590  0.36060  0.15900  Biso   1.000  C
  O21      1.0000 0.22880  0.82850  0.29696  Biso   1.000  O
  O22      1.0000 0.22880  0.67150  0.79696  Biso   1.000  O
  O23      1.0000 0.77120  0.17150  0.70304  Biso   1.000  O
  O24      1.0000 0.77120  0.32850  0.20304  Biso   1.000  O
  O25      1.0000 0.30980  0.99900  0.36760  Biso   1.000  O
  O26      1.0000 0.30980  0.50100  0.86760  Biso   1.000  O
  O27      1.0000 0.69020  0.00100  0.63240  Biso   1.000  O
  O28      1.0000 0.69020  0.49900  0.13240  Biso   1.000  O
  C61      1.0000 0.27150  0.48970  0.38550  Biso   1.000  C
  C62      1.0000 0.27150  0.01030  0.88550  Biso   1.000  C
  C63      1.0000 0.72850  0.51030  0.61450  Biso   1.000  C
  C64      1.0000 0.72850  0.98970  0.11450  Biso   1.000  C
  H61      1.0000 0.26170  0.58660  0.40910  Biso   1.000  H
  H62      1.0000 0.26170  0.91340  0.90910  Biso   1.000  H
  H63      1.0000 0.73830  0.41340  0.59090  Biso   1.000  H
  H64      1.0000 0.73830  0.08660  0.09090  Biso   1.000  H
  H65      1.0000 0.30740  0.41170  0.41410  Biso   1.000  H
  H66      1.0000 0.30740  0.08830  0.91410  Biso   1.000  H
  H67      1.0000 0.69260  0.58830  0.58590  Biso   1.000  H
  H68      1.0000 0.69260  0.91170  0.08590  Biso   1.000  H
  C65      1.0000 0.19020  0.40170  0.35550  Biso   1.000  C
  C66      1.0000 0.19020  0.09830  0.85550  Biso   1.000  C
  C67      1.0000 0.80980  0.59830  0.64450  Biso   1.000  C
  C68      1.0000 0.80980  0.90170  0.14450  Biso   1.000  C
  O29      1.0000 0.15700  0.42860  0.29850  Biso   1.000  O
  O30      1.0000 0.15700  0.07140  0.79850  Biso   1.000  O
  O31      1.0000 0.84300  0.57140  0.70150  Biso   1.000  O
  O32      1.0000 0.84300  0.92860  0.20150  Biso   1.000  O
  O33      1.0000 0.15930  0.30950  0.38900  Biso   1.000  O
  O34      1.0000 0.15930  0.19050  0.88900  Biso   1.000  O
  O35      1.0000 0.84070  0.69050  0.61100  Biso   1.000  O
  O36      1.0000 0.84070  0.80950  0.11100  Biso   1.000  O
  O37      1.0000 0.12870  0.38250  0.14366  Biso   1.000  O
  O38      1.0000 0.12870  0.11750  0.64366  Biso   1.000  O
  O39      1.0000 0.87130  0.61750  0.85634  Biso   1.000  O
  O40      1.0000 0.87130  0.88250  0.35634  Biso   1.000  O
  O41      1.0000 0.13260  0.63710  0.19000  Biso   1.000  O
  O42      1.0000 0.13260  0.86290  0.69000  Biso   1.000  O
  O43      1.0000 0.86740  0.36290  0.81000  Biso   1.000  O
  O44      1.0000 0.86740  0.13710  0.31000  Biso   1.000  O
  C69      1.0000 0.09110  0.52290  0.15320  Biso   1.000  C
  C70      1.0000 0.09110  0.97710  0.65320  Biso   1.000  C
  C71      1.0000 0.90890  0.47710  0.84680  Biso   1.000  C
  C72      1.0000 0.90890  0.02290  0.34680  Biso   1.000  C
  O45      1.0000 0.01730  0.54750  0.12460  Biso   1.000  O
  O46      1.0000 0.01730  0.95250  0.62460  Biso   1.000  O
  O47      1.0000 0.98270  0.45250  0.87540  Biso   1.000  O
  O48      1.0000 0.98270  0.04750  0.37540  Biso   1.000  O
  K1       1.0000 0.00000  0.50000  0.00000  Biso   1.000  K
  K2       1.0000 0.00000  0.00000  0.50000  Biso   1.000  K
  K3       1.0000 0.97390  0.38080  0.34799  Biso   1.000  K
  K4       1.0000 0.97390  0.11920  0.84799  Biso   1.000  K
  K5       1.0000 0.02610  0.61920  0.65201  Biso   1.000  K
  K6       1.0000 0.02610  0.88080  0.15201  Biso   1.000  K
  K7       1.0000 0.11895  0.49914  0.84229  Biso   1.000  K
  K8       1.0000 0.11895  0.00086  0.34229  Biso   1.000  K
  K9       1.0000 0.88105  0.50086  0.15771  Biso   1.000  K
  K10      1.0000 0.88105  0.99914  0.65771  Biso   1.000  K
  Na1      1.0000 0.00000  0.00000  0.00000  Biso   1.000  Na
  Na2      1.0000 0.00000  0.50000  0.50000  Biso   1.000  Na
  O49      1.0000 0.02000  0.66110  0.41450  Biso   1.000  O
  O50      1.0000 0.02000  0.83890  0.91450  Biso   1.000  O
  O51      1.0000 0.98000  0.33890  0.58550  Biso   1.000  O
  O52      1.0000 0.98000  0.16110  0.08550  Biso   1.000  O
  H69      1.0000 0.07650  0.69450  0.41920  Biso   1.000  H
  H70      1.0000 0.07650  0.80550  0.91920  Biso   1.000  H
  H71      1.0000 0.92350  0.30550  0.58080  Biso   1.000  H
  H72      1.0000 0.92350  0.19450  0.08080  Biso   1.000  H
  H73      1.0000 0.98270  0.75630  0.40190  Biso   1.000  H
  H74      1.0000 0.98270  0.74370  0.90190  Biso   1.000  H
  H75      1.0000 0.01730  0.24370  0.59810  Biso   1.000  H
  H76      1.0000 0.01730  0.25630  0.09810  Biso   1.000  H
  O53      1.0000 0.88580  0.40180  0.42200  Biso   1.000  O
  O54      1.0000 0.88580  0.09820  0.92200  Biso   1.000  O
  O55      1.0000 0.11420  0.59820  0.57800  Biso   1.000  O
  O56      1.0000 0.11420  0.90180  0.07800  Biso   1.000  O
  H77      1.0000 0.84170  0.48440  0.40960  Biso   1.000  H
  H78      1.0000 0.84170  0.01560  0.90960  Biso   1.000  H
  H79      1.0000 0.15830  0.51560  0.59040  Biso   1.000  H
  H80      1.0000 0.15830  0.98440  0.09040  Biso   1.000  H
  H81      1.0000 0.86500  0.29310  0.43140  Biso   1.000  H
  H82      1.0000 0.86500  0.20690  0.93140  Biso   1.000  H
  H83      1.0000 0.13500  0.70690  0.56860  Biso   1.000  H
  H84      1.0000 0.13500  0.79310  0.06860  Biso   1.000  H
  O57      1.0000 0.91060  0.78320  0.01700  Biso   1.000  O
  O58      1.0000 0.91060  0.71680  0.51700  Biso   1.000  O
  O59      1.0000 0.08940  0.21680  0.98300  Biso   1.000  O
  O60      1.0000 0.08940  0.28320  0.48300  Biso   1.000  O
  H85      1.0000 0.85700  0.78790  0.98690  Biso   1.000  H
  H86      1.0000 0.85700  0.71210  0.48690  Biso   1.000  H
  H87      1.0000 0.14300  0.21210  0.01310  Biso   1.000  H
  H88      1.0000 0.14300  0.28790  0.51310  Biso   1.000  H
  H89      1.0000 0.90440  0.78790  0.05850  Biso   1.000  H
  H90      1.0000 0.90440  0.71210  0.55850  Biso   1.000  H
  H91      1.0000 0.09560  0.21210  0.94150  Biso   1.000  H
  H92      1.0000 0.09560  0.28790  0.44150  Biso   1.000  H
  O61      1.0000 0.99870  0.31950  0.25300  Biso   1.000  O
  O62      1.0000 0.99870  0.18050  0.75300  Biso   1.000  O
  O63      1.0000 0.00130  0.68050  0.74700  Biso   1.000  O
  O64      1.0000 0.00130  0.81950  0.24700  Biso   1.000  O
  H93      1.0000 0.99350  0.19830  0.24500  Biso   1.000  H
  H94      1.0000 0.99350  0.30170  0.74500  Biso   1.000  H
  H95      1.0000 0.00650  0.80170  0.75500  Biso   1.000  H
  H96      1.0000 0.00650  0.69830  0.25500  Biso   1.000  H
  H97      1.0000 0.05400  0.35400  0.25400  Biso   1.000  H
  H98      1.0000 0.05400  0.14600  0.75400  Biso   1.000  H
  H99      1.0000 0.94600  0.64600  0.74600  Biso   1.000  H
  H100     1.0000 0.94600  0.85400  0.24600  Biso   1.000  H
  O65      1.0000 0.02530  0.75500  0.26790  Biso   1.000  O
  O66      1.0000 0.02530  0.74500  0.76790  Biso   1.000  O
  O67      1.0000 0.97470  0.24500  0.73210  Biso   1.000  O
  O68      1.0000 0.97470  0.25500  0.23210  Biso   1.000  O
  H101     1.0000 0.97020  0.74950  0.27250  Biso   1.000  H
  H102     1.0000 0.97020  0.75050  0.77250  Biso   1.000  H
  H103     1.0000 0.02980  0.25050  0.72750  Biso   1.000  H
  H104     1.0000 0.02980  0.24950  0.22750  Biso   1.000  H
  H105     1.0000 0.05080  0.64340  0.27580  Biso   1.000  H
  H106     1.0000 0.05080  0.85660  0.77580  Biso   1.000  H
  H107     1.0000 0.94920  0.35660  0.72420  Biso   1.000  H
  H108     1.0000 0.94920  0.14340  0.22420  Biso   1.000  H
  O69      1.0000 0.87010  0.58380  0.28080  Biso   1.000  O
  O70      1.0000 0.87010  0.91620  0.78080  Biso   1.000  O
  O71      1.0000 0.12990  0.41620  0.71920  Biso   1.000  O
  O72      1.0000 0.12990  0.08380  0.21920  Biso   1.000  O
  H109     1.0000 0.88510  0.70120  0.29130  Biso   1.000  H
  H110     1.0000 0.88510  0.79880  0.79130  Biso   1.000  H
  H111     1.0000 0.11490  0.29880  0.70870  Biso   1.000  H
  H112     1.0000 0.11490  0.20120  0.20870  Biso   1.000  H
  H113     1.0000 0.81530  0.56330  0.28450  Biso   1.000  H
  H114     1.0000 0.81530  0.93670  0.78450  Biso   1.000  H
  H115     1.0000 0.18470  0.43670  0.71550  Biso   1.000  H
  H116     1.0000 0.18470  0.06330  0.21550  Biso   1.000  H
  O73      1.0000 0.77320  0.41500  0.31460  Biso   1.000  O
  O74      1.0000 0.77320  0.08500  0.81460  Biso   1.000  O
  O75      1.0000 0.22680  0.58500  0.68540  Biso   1.000  O
  O76      1.0000 0.22680  0.91500  0.18540  Biso   1.000  O
  O77      1.0000 0.44940  0.10950  0.45990  Biso   1.000  O
  O78      1.0000 0.44940  0.39050  0.95990  Biso   1.000  O
  O79      1.0000 0.55060  0.89050  0.54010  Biso   1.000  O
  O80      1.0000 0.55060  0.60950  0.04010  Biso   1.000  O
  O81      1.0000 0.44970  0.88490  0.01810  Biso   1.000  O
  O82      1.0000 0.44970  0.61510  0.51810  Biso   1.000  O
  O83      1.0000 0.55030  0.11510  0.98190  Biso   1.000  O
  O84      1.0000 0.55030  0.38490  0.48190  Biso   1.000  O
