data_image0
_cell_length_a       9.938
_cell_length_b       14.52
_cell_length_c       16.155
_cell_angle_alpha    90
_cell_angle_beta     90
_cell_angle_gamma    90

_symmetry_space_group_name_H-M    "P 1"
_symmetry_int_tables_number       1

loop_
  _symmetry_equiv_pos_as_xyz
  'x, y, z'

loop_
  _atom_site_label
  _atom_site_occupancy
  _atom_site_fract_x
  _atom_site_fract_y
  _atom_site_fract_z
  _atom_site_thermal_displace_type
  _atom_site_B_iso_or_equiv
  _atom_site_type_symbol
  Cu1      1.0000 0.76050  0.62044  0.82188  Biso   1.000  Cu
  Cu2      1.0000 0.26050  0.37956  0.17812  Biso   1.000  Cu
  Cu3      1.0000 0.76050  0.87956  0.32188  Biso   1.000  Cu
  Cu4      1.0000 0.26050  0.12044  0.67812  Biso   1.000  Cu
  N1       1.0000 0.92740  0.66020  0.88720  Biso   1.000  N
  N2       1.0000 0.42740  0.33980  0.11280  Biso   1.000  N
  N3       1.0000 0.92740  0.83980  0.38720  Biso   1.000  N
  N4       1.0000 0.42740  0.16020  0.61280  Biso   1.000  N
  C1       1.0000 0.87300  0.73560  0.94340  Biso   1.000  C
  C2       1.0000 0.37300  0.26440  0.05660  Biso   1.000  C
  C3       1.0000 0.87300  0.76440  0.44340  Biso   1.000  C
  C4       1.0000 0.37300  0.23560  0.55660  Biso   1.000  C
  C5       1.0000 0.76100  0.78650  0.90380  Biso   1.000  C
  C6       1.0000 0.26100  0.21350  0.09620  Biso   1.000  C
  C7       1.0000 0.76100  0.71350  0.40380  Biso   1.000  C
  C8       1.0000 0.26100  0.28650  0.59620  Biso   1.000  C
  N5       1.0000 0.65410  0.72180  0.87590  Biso   1.000  N
  N6       1.0000 0.15410  0.27820  0.12410  Biso   1.000  N
  N7       1.0000 0.65410  0.77820  0.37590  Biso   1.000  N
  N8       1.0000 0.15410  0.22180  0.62410  Biso   1.000  N
  C9       1.0000 0.57700  0.77280  0.81230  Biso   1.000  C
  C10      1.0000 0.07700  0.22720  0.18770  Biso   1.000  C
  C11      1.0000 0.57700  0.72720  0.31230  Biso   1.000  C
  C12      1.0000 0.07700  0.27280  0.68770  Biso   1.000  C
  C13      1.0000 0.46800  0.71710  0.76940  Biso   1.000  C
  C14      1.0000 0.96800  0.28290  0.23060  Biso   1.000  C
  C15      1.0000 0.46800  0.78290  0.26940  Biso   1.000  C
  C16      1.0000 0.96800  0.21710  0.73060  Biso   1.000  C
  C17      1.0000 0.49000  0.62000  0.74660  Biso   1.000  C
  C18      1.0000 0.99000  0.38000  0.25340  Biso   1.000  C
  C19      1.0000 0.49000  0.88000  0.24660  Biso   1.000  C
  C20      1.0000 0.99000  0.12000  0.75340  Biso   1.000  C
  N9       1.0000 0.62670  0.59360  0.72850  Biso   1.000  N
  N10      1.0000 0.12670  0.40640  0.27150  Biso   1.000  N
  N11      1.0000 0.62670  0.90640  0.22850  Biso   1.000  N
  N12      1.0000 0.12670  0.09360  0.77150  Biso   1.000  N
  C21      1.0000 0.64400  0.49330  0.71610  Biso   1.000  C
  C22      1.0000 0.14400  0.50670  0.28390  Biso   1.000  C
  C23      1.0000 0.64400  0.00670  0.21610  Biso   1.000  C
  C24      1.0000 0.14400  0.99330  0.78390  Biso   1.000  C
  C25      1.0000 0.79300  0.47150  0.71750  Biso   1.000  C
  C26      1.0000 0.29300  0.52850  0.28250  Biso   1.000  C
  C27      1.0000 0.79300  0.02850  0.21750  Biso   1.000  C
  C28      1.0000 0.29300  0.97150  0.78250  Biso   1.000  C
  C29      1.0000 0.68400  0.63630  0.65490  Biso   1.000  C
  C30      1.0000 0.18400  0.36370  0.34510  Biso   1.000  C
  C31      1.0000 0.68400  0.86370  0.15490  Biso   1.000  C
  C32      1.0000 0.18400  0.13630  0.84510  Biso   1.000  C
  C33      1.0000 0.83400  0.62030  0.65510  Biso   1.000  C
  C34      1.0000 0.33400  0.37970  0.34490  Biso   1.000  C
  C35      1.0000 0.83400  0.87970  0.15510  Biso   1.000  C
  C36      1.0000 0.33400  0.12030  0.84490  Biso   1.000  C
  N13      1.0000 0.86410  0.55960  0.72830  Biso   1.000  N
  N14      1.0000 0.36410  0.44040  0.27170  Biso   1.000  N
  N15      1.0000 0.86410  0.94040  0.22830  Biso   1.000  N
  N16      1.0000 0.36410  0.05960  0.77170  Biso   1.000  N
  C37      1.0000 0.00900  0.54690  0.74050  Biso   1.000  C
  C38      1.0000 0.50900  0.45310  0.25950  Biso   1.000  C
  C39      1.0000 0.00900  0.95310  0.24050  Biso   1.000  C
  C40      1.0000 0.50900  0.04690  0.75950  Biso   1.000  C
  C41      1.0000 0.08300  0.63050  0.76910  Biso   1.000  C
  C42      1.0000 0.58300  0.36950  0.23090  Biso   1.000  C
  C43      1.0000 0.08300  0.86950  0.26910  Biso   1.000  C
  C44      1.0000 0.58300  0.13050  0.73090  Biso   1.000  C
  C45      1.0000 0.01700  0.69930  0.82450  Biso   1.000  C
  C46      1.0000 0.51700  0.30070  0.17550  Biso   1.000  C
  C47      1.0000 0.01700  0.80070  0.32450  Biso   1.000  C
  C48      1.0000 0.51700  0.19930  0.67550  Biso   1.000  C
  C49      1.0000 0.99310  0.59090  0.94000  Biso   1.000  C
  C50      1.0000 0.49310  0.40910  0.06000  Biso   1.000  C
  C51      1.0000 0.99310  0.90910  0.44000  Biso   1.000  C
  C52      1.0000 0.49310  0.09090  0.56000  Biso   1.000  C
  C53      1.0000 0.11600  0.62360  0.99060  Biso   1.000  C
  C54      1.0000 0.61600  0.37640  0.00940  Biso   1.000  C
  C55      1.0000 0.11600  0.87640  0.49060  Biso   1.000  C
  C56      1.0000 0.61600  0.12360  0.50940  Biso   1.000  C
  C57      1.0000 0.16600  0.55400  0.04730  Biso   1.000  C
  C58      1.0000 0.66600  0.44600  0.95270  Biso   1.000  C
  C59      1.0000 0.16600  0.94600  0.54730  Biso   1.000  C
  C60      1.0000 0.66600  0.05400  0.45270  Biso   1.000  C
  N17      1.0000 0.20230  0.49920  0.09120  Biso   1.000  N
  N18      1.0000 0.70230  0.50080  0.90880  Biso   1.000  N
  N19      1.0000 0.20230  0.00080  0.59120  Biso   1.000  N
  N20      1.0000 0.70230  0.99920  0.40880  Biso   1.000  N
  C61      1.0000 0.56700  0.69380  0.94490  Biso   1.000  C
  C62      1.0000 0.06700  0.30620  0.05510  Biso   1.000  C
  C63      1.0000 0.56700  0.80620  0.44490  Biso   1.000  C
  C64      1.0000 0.06700  0.19380  0.55510  Biso   1.000  C
  H1       1.0000 0.94410  0.77800  0.95580  Biso   1.000  H
  H2       1.0000 0.44410  0.22200  0.04420  Biso   1.000  H
  H3       1.0000 0.94410  0.72200  0.45580  Biso   1.000  H
  H4       1.0000 0.44410  0.27800  0.54420  Biso   1.000  H
  H5       1.0000 0.84100  0.70810  0.99370  Biso   1.000  H
  H6       1.0000 0.34100  0.29190  0.00630  Biso   1.000  H
  H7       1.0000 0.84100  0.79190  0.49370  Biso   1.000  H
  H8       1.0000 0.34100  0.20810  0.50630  Biso   1.000  H
  H9       1.0000 0.79450  0.81980  0.85690  Biso   1.000  H
  H10      1.0000 0.29450  0.18020  0.14310  Biso   1.000  H
  H11      1.0000 0.79450  0.68020  0.35690  Biso   1.000  H
  H12      1.0000 0.29450  0.31980  0.64310  Biso   1.000  H
  H13      1.0000 0.72310  0.82890  0.94310  Biso   1.000  H
  H14      1.0000 0.22310  0.17110  0.05690  Biso   1.000  H
  H15      1.0000 0.72310  0.67110  0.44310  Biso   1.000  H
  H16      1.0000 0.22310  0.32890  0.55690  Biso   1.000  H
  H17      1.0000 0.63870  0.79420  0.77100  Biso   1.000  H
  H18      1.0000 0.13870  0.20580  0.22900  Biso   1.000  H
  H19      1.0000 0.63870  0.70580  0.27100  Biso   1.000  H
  H20      1.0000 0.13870  0.29420  0.72900  Biso   1.000  H
  H21      1.0000 0.53470  0.82470  0.83860  Biso   1.000  H
  H22      1.0000 0.03470  0.17530  0.16140  Biso   1.000  H
  H23      1.0000 0.53470  0.67530  0.33860  Biso   1.000  H
  H24      1.0000 0.03470  0.32470  0.66140  Biso   1.000  H
  H25      1.0000 0.44710  0.74900  0.71890  Biso   1.000  H
  H26      1.0000 0.94710  0.25100  0.28110  Biso   1.000  H
  H27      1.0000 0.44710  0.75100  0.21890  Biso   1.000  H
  H28      1.0000 0.94710  0.24900  0.78110  Biso   1.000  H
  H29      1.0000 0.39090  0.71800  0.80520  Biso   1.000  H
  H30      1.0000 0.89090  0.28200  0.19480  Biso   1.000  H
  H31      1.0000 0.39090  0.78200  0.30520  Biso   1.000  H
  H32      1.0000 0.89090  0.21800  0.69480  Biso   1.000  H
  H33      1.0000 0.43690  0.60700  0.69840  Biso   1.000  H
  H34      1.0000 0.93690  0.39300  0.30160  Biso   1.000  H
  H35      1.0000 0.43690  0.89300  0.19840  Biso   1.000  H
  H36      1.0000 0.93690  0.10700  0.80160  Biso   1.000  H
  H37      1.0000 0.45960  0.58240  0.79190  Biso   1.000  H
  H38      1.0000 0.95960  0.41760  0.20810  Biso   1.000  H
  H39      1.0000 0.45960  0.91760  0.29190  Biso   1.000  H
  H40      1.0000 0.95960  0.08240  0.70810  Biso   1.000  H
  H41      1.0000 0.60690  0.47570  0.66360  Biso   1.000  H
  H42      1.0000 0.10690  0.52430  0.33640  Biso   1.000  H
  H43      1.0000 0.60690  0.02430  0.16360  Biso   1.000  H
  H44      1.0000 0.10690  0.97570  0.83640  Biso   1.000  H
  H45      1.0000 0.59960  0.46040  0.75960  Biso   1.000  H
  H46      1.0000 0.09960  0.53960  0.24040  Biso   1.000  H
  H47      1.0000 0.59960  0.03960  0.25960  Biso   1.000  H
  H48      1.0000 0.09960  0.96040  0.74040  Biso   1.000  H
  H49      1.0000 0.81930  0.44310  0.66640  Biso   1.000  H
  H50      1.0000 0.31930  0.55690  0.33360  Biso   1.000  H
  H51      1.0000 0.81930  0.05690  0.16640  Biso   1.000  H
  H52      1.0000 0.31930  0.94310  0.83360  Biso   1.000  H
  H53      1.0000 0.81300  0.43080  0.76270  Biso   1.000  H
  H54      1.0000 0.31300  0.56920  0.23730  Biso   1.000  H
  H55      1.0000 0.81300  0.06920  0.26270  Biso   1.000  H
  H56      1.0000 0.31300  0.93080  0.73730  Biso   1.000  H
  H57      1.0000 0.64490  0.60940  0.60630  Biso   1.000  H
  H58      1.0000 0.14490  0.39060  0.39370  Biso   1.000  H
  H59      1.0000 0.64490  0.89060  0.10630  Biso   1.000  H
  H60      1.0000 0.14490  0.10940  0.89370  Biso   1.000  H
  H61      1.0000 0.66570  0.70130  0.65560  Biso   1.000  H
  H62      1.0000 0.16570  0.29870  0.34440  Biso   1.000  H
  H63      1.0000 0.66570  0.79870  0.15560  Biso   1.000  H
  H64      1.0000 0.16570  0.20130  0.84440  Biso   1.000  H
  H65      1.0000 0.86050  0.59040  0.60480  Biso   1.000  H
  H66      1.0000 0.36050  0.40960  0.39520  Biso   1.000  H
  H67      1.0000 0.86050  0.90960  0.10480  Biso   1.000  H
  H68      1.0000 0.36050  0.09040  0.89520  Biso   1.000  H
  H69      1.0000 0.88030  0.67790  0.66030  Biso   1.000  H
  H70      1.0000 0.38030  0.32210  0.33970  Biso   1.000  H
  H71      1.0000 0.88030  0.82210  0.16030  Biso   1.000  H
  H72      1.0000 0.38030  0.17790  0.83970  Biso   1.000  H
  H73      1.0000 0.04770  0.52770  0.68880  Biso   1.000  H
  H74      1.0000 0.54770  0.47230  0.31120  Biso   1.000  H
  H75      1.0000 0.04770  0.97230  0.18880  Biso   1.000  H
  H76      1.0000 0.54770  0.02770  0.81120  Biso   1.000  H
  H77      1.0000 0.02190  0.49930  0.78110  Biso   1.000  H
  H78      1.0000 0.52190  0.50070  0.21890  Biso   1.000  H
  H79      1.0000 0.02190  0.00070  0.28110  Biso   1.000  H
  H80      1.0000 0.52190  0.99930  0.71890  Biso   1.000  H
  H81      1.0000 0.16140  0.60910  0.79770  Biso   1.000  H
  H82      1.0000 0.66140  0.39090  0.20230  Biso   1.000  H
  H83      1.0000 0.16140  0.89090  0.29770  Biso   1.000  H
  H84      1.0000 0.66140  0.10910  0.70230  Biso   1.000  H
  H85      1.0000 0.10950  0.66320  0.72010  Biso   1.000  H
  H86      1.0000 0.60950  0.33680  0.27990  Biso   1.000  H
  H87      1.0000 0.10950  0.83680  0.22010  Biso   1.000  H
  H88      1.0000 0.60950  0.16320  0.77990  Biso   1.000  H
  H89      1.0000 0.08650  0.73310  0.85250  Biso   1.000  H
  H90      1.0000 0.58650  0.26690  0.14750  Biso   1.000  H
  H91      1.0000 0.08650  0.76690  0.35250  Biso   1.000  H
  H92      1.0000 0.58650  0.23310  0.64750  Biso   1.000  H
  H93      1.0000 0.96550  0.74060  0.79070  Biso   1.000  H
  H94      1.0000 0.46550  0.25940  0.20930  Biso   1.000  H
  H95      1.0000 0.96550  0.75940  0.29070  Biso   1.000  H
  H96      1.0000 0.46550  0.24060  0.70930  Biso   1.000  H
  H97      1.0000 0.02250  0.54150  0.90490  Biso   1.000  H
  H98      1.0000 0.52250  0.45850  0.09510  Biso   1.000  H
  H99      1.0000 0.02250  0.95850  0.40490  Biso   1.000  H
  H100     1.0000 0.52250  0.04150  0.59510  Biso   1.000  H
  H101     1.0000 0.92700  0.56830  0.97830  Biso   1.000  H
  H102     1.0000 0.42700  0.43170  0.02170  Biso   1.000  H
  H103     1.0000 0.92700  0.93170  0.47830  Biso   1.000  H
  H104     1.0000 0.42700  0.06830  0.52170  Biso   1.000  H
  H105     1.0000 0.18670  0.63950  0.95310  Biso   1.000  H
  H106     1.0000 0.68670  0.36050  0.04690  Biso   1.000  H
  H107     1.0000 0.18670  0.86050  0.45310  Biso   1.000  H
  H108     1.0000 0.68670  0.13950  0.54690  Biso   1.000  H
  H109     1.0000 0.09000  0.67690  0.02200  Biso   1.000  H
  H110     1.0000 0.59000  0.32310  0.97800  Biso   1.000  H
  H111     1.0000 0.09000  0.82310  0.52200  Biso   1.000  H
  H112     1.0000 0.59000  0.17690  0.47800  Biso   1.000  H
  H113     1.0000 0.52050  0.74680  0.96630  Biso   1.000  H
  H114     1.0000 0.02050  0.25320  0.03370  Biso   1.000  H
  H115     1.0000 0.52050  0.75320  0.46630  Biso   1.000  H
  H116     1.0000 0.02050  0.24680  0.53370  Biso   1.000  H
  H117     1.0000 0.50200  0.64960  0.92550  Biso   1.000  H
  H118     1.0000 0.00200  0.35040  0.07450  Biso   1.000  H
  H119     1.0000 0.50200  0.85040  0.42550  Biso   1.000  H
  H120     1.0000 0.00200  0.14960  0.57450  Biso   1.000  H
  H121     1.0000 0.62030  0.66660  0.98790  Biso   1.000  H
  H122     1.0000 0.12030  0.33340  0.01210  Biso   1.000  H
  H123     1.0000 0.62030  0.83340  0.48790  Biso   1.000  H
  H124     1.0000 0.12030  0.16660  0.51210  Biso   1.000  H
  Cl1      1.0000 0.29890  0.08610  0.34370  Biso   1.000  Cl
  Cl2      1.0000 0.79890  0.91390  0.65630  Biso   1.000  Cl
  Cl3      1.0000 0.29890  0.41390  0.84370  Biso   1.000  Cl
  Cl4      1.0000 0.79890  0.58610  0.15630  Biso   1.000  Cl
  O1       1.0000 0.29330  0.06110  0.25920  Biso   1.000  O
  O2       1.0000 0.79330  0.93890  0.74080  Biso   1.000  O
  O3       1.0000 0.29330  0.43890  0.75920  Biso   1.000  O
  O4       1.0000 0.79330  0.56110  0.24080  Biso   1.000  O
  O5       1.0000 0.33000  0.00850  0.39160  Biso   1.000  O
  O6       1.0000 0.83000  0.99150  0.60840  Biso   1.000  O
  O7       1.0000 0.33000  0.49150  0.89160  Biso   1.000  O
  O8       1.0000 0.83000  0.50850  0.10840  Biso   1.000  O
  O9       1.0000 0.17450  0.12150  0.36940  Biso   1.000  O
  O10      1.0000 0.67450  0.87850  0.63060  Biso   1.000  O
  O11      1.0000 0.17450  0.37850  0.86940  Biso   1.000  O
  O12      1.0000 0.67450  0.62150  0.13060  Biso   1.000  O
  O13      1.0000 0.39900  0.15220  0.35540  Biso   1.000  O
  O14      1.0000 0.89900  0.84780  0.64460  Biso   1.000  O
  O15      1.0000 0.39900  0.34780  0.85540  Biso   1.000  O
  O16      1.0000 0.89900  0.65220  0.14460  Biso   1.000  O
  Cl5      1.0000 0.25340  0.62750  0.52130  Biso   1.000  Cl
  Cl6      1.0000 0.75340  0.37250  0.47870  Biso   1.000  Cl
  Cl7      1.0000 0.25340  0.87250  0.02130  Biso   1.000  Cl
  Cl8      1.0000 0.75340  0.12750  0.97870  Biso   1.000  Cl
  O17      1.0000 0.27000  0.66700  0.44310  Biso   1.000  O
  O18      1.0000 0.77000  0.33300  0.55690  Biso   1.000  O
  O19      1.0000 0.27000  0.83300  0.94310  Biso   1.000  O
  O20      1.0000 0.77000  0.16700  0.05690  Biso   1.000  O
  O21      1.0000 0.32400  0.68100  0.57800  Biso   1.000  O
  O22      1.0000 0.82400  0.31900  0.42200  Biso   1.000  O
  O23      1.0000 0.32400  0.81900  0.07800  Biso   1.000  O
  O24      1.0000 0.82400  0.18100  0.92200  Biso   1.000  O
  O25      1.0000 0.30100  0.53810  0.52200  Biso   1.000  O
  O26      1.0000 0.80100  0.46190  0.47800  Biso   1.000  O
  O27      1.0000 0.30100  0.96190  0.02200  Biso   1.000  O
  O28      1.0000 0.80100  0.03810  0.97800  Biso   1.000  O
  O29      1.0000 0.11800  0.63000  0.54200  Biso   1.000  O
  O30      1.0000 0.61800  0.37000  0.45800  Biso   1.000  O
  O31      1.0000 0.11800  0.87000  0.04200  Biso   1.000  O
  O32      1.0000 0.61800  0.13000  0.95800  Biso   1.000  O
  O33      1.0000 0.17400  0.55000  0.53200  Biso   1.000  O
  O34      1.0000 0.67400  0.45000  0.46800  Biso   1.000  O
  O35      1.0000 0.17400  0.95000  0.03200  Biso   1.000  O
  O36      1.0000 0.67400  0.05000  0.96800  Biso   1.000  O
  O37      1.0000 0.38800  0.60000  0.52000  Biso   1.000  O
  O38      1.0000 0.88800  0.40000  0.48000  Biso   1.000  O
  O39      1.0000 0.38800  0.90000  0.02000  Biso   1.000  O
  O40      1.0000 0.88800  0.10000  0.98000  Biso   1.000  O
  O41      1.0000 0.22200  0.67000  0.44610  Biso   1.000  O
  O42      1.0000 0.72200  0.33000  0.55390  Biso   1.000  O
  O43      1.0000 0.22200  0.83000  0.94610  Biso   1.000  O
  O44      1.0000 0.72200  0.17000  0.05390  Biso   1.000  O
  O45      1.0000 0.23200  0.69000  0.58490  Biso   1.000  O
  O46      1.0000 0.73200  0.31000  0.41510  Biso   1.000  O
  O47      1.0000 0.23200  0.81000  0.08490  Biso   1.000  O
  O48      1.0000 0.73200  0.19000  0.91510  Biso   1.000  O
