data_image0
_cell_length_a       7.68
_cell_length_b       17.62
_cell_length_c       10.462
_cell_angle_alpha    90
_cell_angle_beta     110.72
_cell_angle_gamma    90

_symmetry_space_group_name_H-M    "P 1"
_symmetry_int_tables_number       1

loop_
  _symmetry_equiv_pos_as_xyz
  'x, y, z'

loop_
  _atom_site_label
  _atom_site_occupancy
  _atom_site_fract_x
  _atom_site_fract_y
  _atom_site_fract_z
  _atom_site_thermal_displace_type
  _atom_site_B_iso_or_equiv
  _atom_site_type_symbol
  Cu1      1.0000 0.36683  0.01135  0.60598  Biso   1.000  Cu
  Cu2      1.0000 0.13317  0.51135  0.89402  Biso   1.000  Cu
  Cu3      1.0000 0.63317  0.98865  0.39402  Biso   1.000  Cu
  Cu4      1.0000 0.86683  0.48865  0.10598  Biso   1.000  Cu
  N1       1.0000 0.57750  0.95460  0.74990  Biso   1.000  N
  N2       1.0000 0.92250  0.45460  0.75010  Biso   1.000  N
  N3       1.0000 0.42250  0.04540  0.25010  Biso   1.000  N
  N4       1.0000 0.07750  0.54540  0.24990  Biso   1.000  N
  C1       1.0000 0.65160  0.99250  0.87210  Biso   1.000  C
  C2       1.0000 0.84840  0.49250  0.62790  Biso   1.000  C
  C3       1.0000 0.34840  0.00750  0.12790  Biso   1.000  C
  C4       1.0000 0.15160  0.50750  0.37210  Biso   1.000  C
  C5       1.0000 0.79860  0.96030  0.97710  Biso   1.000  C
  C6       1.0000 0.70140  0.46030  0.52290  Biso   1.000  C
  C7       1.0000 0.20140  0.03970  0.02290  Biso   1.000  C
  C8       1.0000 0.29860  0.53970  0.47710  Biso   1.000  C
  H1       1.0000 0.84580  0.98440  0.06370  Biso   1.000  H
  H2       1.0000 0.65420  0.48440  0.43630  Biso   1.000  H
  H3       1.0000 0.15420  0.01560  0.93630  Biso   1.000  H
  H4       1.0000 0.34580  0.51560  0.56370  Biso   1.000  H
  C9       1.0000 0.87590  0.89330  0.95530  Biso   1.000  C
  C10      1.0000 0.62410  0.39330  0.54470  Biso   1.000  C
  C11      1.0000 0.12410  0.10670  0.04470  Biso   1.000  C
  C12      1.0000 0.37590  0.60670  0.45530  Biso   1.000  C
  H5       1.0000 0.97860  0.87180  0.02640  Biso   1.000  H
  H6       1.0000 0.52140  0.37180  0.47360  Biso   1.000  H
  H7       1.0000 0.02140  0.12820  0.97360  Biso   1.000  H
  H8       1.0000 0.47860  0.62820  0.52640  Biso   1.000  H
  C13      1.0000 0.80420  0.85690  0.83000  Biso   1.000  C
  C14      1.0000 0.69580  0.35690  0.67000  Biso   1.000  C
  C15      1.0000 0.19580  0.14310  0.17000  Biso   1.000  C
  C16      1.0000 0.30420  0.64310  0.33000  Biso   1.000  C
  C17      1.0000 0.65180  0.88980  0.73020  Biso   1.000  C
  C18      1.0000 0.84820  0.38980  0.76980  Biso   1.000  C
  C19      1.0000 0.34820  0.11020  0.26980  Biso   1.000  C
  C20      1.0000 0.15180  0.61020  0.23020  Biso   1.000  C
  H9       1.0000 0.59890  0.86490  0.64460  Biso   1.000  H
  H10      1.0000 0.90110  0.36490  0.85540  Biso   1.000  H
  H11      1.0000 0.40110  0.13510  0.35540  Biso   1.000  H
  H12      1.0000 0.09890  0.63510  0.14460  Biso   1.000  H
  C21      1.0000 0.88500  0.78390  0.79950  Biso   1.000  C
  C22      1.0000 0.61500  0.28390  0.70050  Biso   1.000  C
  C23      1.0000 0.11500  0.21610  0.20050  Biso   1.000  C
  C24      1.0000 0.38500  0.71610  0.29950  Biso   1.000  C
  H13      1.0000 0.81440  0.76790  0.70560  Biso   1.000  H
  H14      1.0000 0.68560  0.26790  0.79440  Biso   1.000  H
  H15      1.0000 0.18560  0.23210  0.29440  Biso   1.000  H
  H16      1.0000 0.31440  0.73210  0.20560  Biso   1.000  H
  H17      1.0000 0.87760  0.74440  0.86330  Biso   1.000  H
  H18      1.0000 0.62240  0.24440  0.63670  Biso   1.000  H
  H19      1.0000 0.12240  0.25560  0.13670  Biso   1.000  H
  H20      1.0000 0.37760  0.75560  0.36330  Biso   1.000  H
  H21      1.0000 0.01550  0.79200  0.80960  Biso   1.000  H
  H22      1.0000 0.48450  0.29200  0.69040  Biso   1.000  H
  H23      1.0000 0.98450  0.20800  0.19040  Biso   1.000  H
  H24      1.0000 0.51550  0.70800  0.30960  Biso   1.000  H
  N5       1.0000 0.41780  0.08460  0.76700  Biso   1.000  N
  N6       1.0000 0.08220  0.58460  0.73300  Biso   1.000  N
  N7       1.0000 0.58220  0.91540  0.23300  Biso   1.000  N
  N8       1.0000 0.91780  0.41540  0.26700  Biso   1.000  N
  C25      1.0000 0.56400  0.06420  0.88070  Biso   1.000  C
  C26      1.0000 0.93600  0.56420  0.61930  Biso   1.000  C
  C27      1.0000 0.43600  0.93580  0.11930  Biso   1.000  C
  C28      1.0000 0.06400  0.43580  0.38070  Biso   1.000  C
  C29      1.0000 0.61520  0.11070  0.99610  Biso   1.000  C
  C30      1.0000 0.88480  0.61070  0.50390  Biso   1.000  C
  C31      1.0000 0.38480  0.88930  0.00390  Biso   1.000  C
  C32      1.0000 0.11520  0.38930  0.49610  Biso   1.000  C
  H25      1.0000 0.71750  0.09730  0.07560  Biso   1.000  H
  H26      1.0000 0.78250  0.59730  0.42440  Biso   1.000  H
  H27      1.0000 0.28250  0.90270  0.92440  Biso   1.000  H
  H28      1.0000 0.21750  0.40270  0.57560  Biso   1.000  H
  C33      1.0000 0.51540  0.17670  0.99340  Biso   1.000  C
  C34      1.0000 0.98460  0.67670  0.50660  Biso   1.000  C
  C35      1.0000 0.48460  0.82330  0.00660  Biso   1.000  C
  C36      1.0000 0.01540  0.32330  0.49340  Biso   1.000  C
  H29      1.0000 0.55220  0.20950  0.07040  Biso   1.000  H
  H30      1.0000 0.94780  0.70950  0.42960  Biso   1.000  H
  H31      1.0000 0.44780  0.79050  0.92960  Biso   1.000  H
  H32      1.0000 0.05220  0.29050  0.57040  Biso   1.000  H
  C37      1.0000 0.36240  0.19520  0.87910  Biso   1.000  C
  C38      1.0000 0.13760  0.69520  0.62090  Biso   1.000  C
  C39      1.0000 0.63760  0.80480  0.12090  Biso   1.000  C
  C40      1.0000 0.86240  0.30480  0.37910  Biso   1.000  C
  C41      1.0000 0.31920  0.14700  0.76570  Biso   1.000  C
  C42      1.0000 0.18080  0.64700  0.73430  Biso   1.000  C
  C43      1.0000 0.68080  0.85300  0.23430  Biso   1.000  C
  C44      1.0000 0.81920  0.35300  0.26570  Biso   1.000  C
  H33      1.0000 0.21660  0.15910  0.68560  Biso   1.000  H
  H34      1.0000 0.28340  0.65910  0.81440  Biso   1.000  H
  H35      1.0000 0.78340  0.84090  0.31440  Biso   1.000  H
  H36      1.0000 0.71660  0.34090  0.18560  Biso   1.000  H
  C45      1.0000 0.24390  0.26440  0.87560  Biso   1.000  C
  C46      1.0000 0.25610  0.76440  0.62440  Biso   1.000  C
  C47      1.0000 0.75610  0.73560  0.12440  Biso   1.000  C
  C48      1.0000 0.74390  0.23560  0.37560  Biso   1.000  C
  H37      1.0000 0.29440  0.29150  0.96280  Biso   1.000  H
  H38      1.0000 0.20560  0.79150  0.53720  Biso   1.000  H
  H39      1.0000 0.70560  0.70850  0.03720  Biso   1.000  H
  H40      1.0000 0.79440  0.20850  0.46280  Biso   1.000  H
  H41      1.0000 0.11590  0.24850  0.86060  Biso   1.000  H
  H42      1.0000 0.38410  0.74850  0.63940  Biso   1.000  H
  H43      1.0000 0.88410  0.75150  0.13940  Biso   1.000  H
  H44      1.0000 0.61590  0.25150  0.36060  Biso   1.000  H
  H45      1.0000 0.24470  0.29800  0.80120  Biso   1.000  H
  H46      1.0000 0.25530  0.79800  0.69880  Biso   1.000  H
  H47      1.0000 0.75530  0.70200  0.19880  Biso   1.000  H
  H48      1.0000 0.74470  0.20200  0.30120  Biso   1.000  H
  N9       1.0000 0.36080  0.93390  0.46740  Biso   1.000  N
  N10      1.0000 0.13920  0.43390  0.03260  Biso   1.000  N
  N11      1.0000 0.63920  0.06610  0.53260  Biso   1.000  N
  N12      1.0000 0.86080  0.56610  0.96740  Biso   1.000  N
  N13      1.0000 0.23220  0.91020  0.37610  Biso   1.000  N
  N14      1.0000 0.26780  0.41020  0.12390  Biso   1.000  N
  N15      1.0000 0.76780  0.08980  0.62390  Biso   1.000  N
  N16      1.0000 0.73220  0.58980  0.87610  Biso   1.000  N
  N17      1.0000 0.11390  0.88580  0.28430  Biso   1.000  N
  N18      1.0000 0.38610  0.38580  0.21570  Biso   1.000  N
  N19      1.0000 0.88610  0.11420  0.71570  Biso   1.000  N
  N20      1.0000 0.61390  0.61420  0.78430  Biso   1.000  N
  N21      1.0000 0.17080  0.07940  0.48740  Biso   1.000  N
  N22      1.0000 0.32920  0.57940  0.01260  Biso   1.000  N
  N23      1.0000 0.82920  0.92060  0.51260  Biso   1.000  N
  N24      1.0000 0.67080  0.42060  0.98740  Biso   1.000  N
  N25      1.0000 0.03120  0.06300  0.39590  Biso   1.000  N
  N26      1.0000 0.46880  0.56300  0.10410  Biso   1.000  N
  N27      1.0000 0.96880  0.93700  0.60410  Biso   1.000  N
  N28      1.0000 0.53120  0.43700  0.89590  Biso   1.000  N
  N29      1.0000 0.89280  0.05280  0.30800  Biso   1.000  N
  N30      1.0000 0.60720  0.55280  0.19200  Biso   1.000  N
  N31      1.0000 0.10720  0.94720  0.69200  Biso   1.000  N
  N32      1.0000 0.39280  0.44720  0.80800  Biso   1.000  N
