data_image0
_cell_length_a       9.047
_cell_length_b       10.923
_cell_length_c       17.052
_cell_angle_alpha    90
_cell_angle_beta     118.985
_cell_angle_gamma    90

_symmetry_space_group_name_H-M    "P 1"
_symmetry_int_tables_number       1

loop_
  _symmetry_equiv_pos_as_xyz
  'x, y, z'

loop_
  _atom_site_label
  _atom_site_occupancy
  _atom_site_fract_x
  _atom_site_fract_y
  _atom_site_fract_z
  _atom_site_thermal_displace_type
  _atom_site_B_iso_or_equiv
  _atom_site_type_symbol
  Cu1      1.0000 0.59601  0.18197  0.21278  Biso   1.000  Cu
  Cu2      1.0000 0.40399  0.68197  0.28722  Biso   1.000  Cu
  Cu3      1.0000 0.40399  0.81803  0.78722  Biso   1.000  Cu
  Cu4      1.0000 0.59601  0.31803  0.71278  Biso   1.000  Cu
  N1       1.0000 0.70710  0.05150  0.17580  Biso   1.000  N
  N2       1.0000 0.29290  0.55150  0.32420  Biso   1.000  N
  N3       1.0000 0.29290  0.94850  0.82420  Biso   1.000  N
  N4       1.0000 0.70710  0.44850  0.67580  Biso   1.000  N
  C1       1.0000 0.69860  0.07200  0.09520  Biso   1.000  C
  C2       1.0000 0.30140  0.57200  0.40480  Biso   1.000  C
  C3       1.0000 0.30140  0.92800  0.90480  Biso   1.000  C
  C4       1.0000 0.69860  0.42800  0.59520  Biso   1.000  C
  C5       1.0000 0.79000  0.00100  0.06640  Biso   1.000  C
  C6       1.0000 0.21000  0.50100  0.43360  Biso   1.000  C
  C7       1.0000 0.21000  0.99900  0.93360  Biso   1.000  C
  C8       1.0000 0.79000  0.49900  0.56640  Biso   1.000  C
  H1       1.0000 0.78390  0.01650  0.01010  Biso   1.000  H
  H2       1.0000 0.21610  0.51650  0.48990  Biso   1.000  H
  H3       1.0000 0.21610  0.98350  0.98990  Biso   1.000  H
  H4       1.0000 0.78390  0.48350  0.51010  Biso   1.000  H
  C9       1.0000 0.89020  0.90720  0.12060  Biso   1.000  C
  C10      1.0000 0.10980  0.40720  0.37940  Biso   1.000  C
  C11      1.0000 0.10980  0.09280  0.87940  Biso   1.000  C
  C12      1.0000 0.89020  0.59280  0.62060  Biso   1.000  C
  H5       1.0000 0.95580  0.85950  0.10230  Biso   1.000  H
  H6       1.0000 0.04420  0.35950  0.39770  Biso   1.000  H
  H7       1.0000 0.04420  0.14050  0.89770  Biso   1.000  H
  H8       1.0000 0.95580  0.64050  0.60230  Biso   1.000  H
  C13      1.0000 0.89520  0.88240  0.20190  Biso   1.000  C
  C14      1.0000 0.10480  0.38240  0.29810  Biso   1.000  C
  C15      1.0000 0.10480  0.11760  0.79810  Biso   1.000  C
  C16      1.0000 0.89520  0.61760  0.70190  Biso   1.000  C
  C17      1.0000 0.80200  0.95790  0.22680  Biso   1.000  C
  C18      1.0000 0.19800  0.45790  0.27320  Biso   1.000  C
  C19      1.0000 0.19800  0.04210  0.77320  Biso   1.000  C
  C20      1.0000 0.80200  0.54210  0.72680  Biso   1.000  C
  H9       1.0000 0.80520  0.94300  0.28250  Biso   1.000  H
  H10      1.0000 0.19480  0.44300  0.21750  Biso   1.000  H
  H11      1.0000 0.19480  0.05700  0.71750  Biso   1.000  H
  H12      1.0000 0.80520  0.55700  0.78250  Biso   1.000  H
  C21      1.0000 0.99810  0.77930  0.26150  Biso   1.000  C
  C22      1.0000 0.00190  0.27930  0.23850  Biso   1.000  C
  C23      1.0000 0.00190  0.22070  0.73850  Biso   1.000  C
  C24      1.0000 0.99810  0.72070  0.76150  Biso   1.000  C
  H13      1.0000 0.05490  0.73560  0.23340  Biso   1.000  H
  H14      1.0000 0.94510  0.23560  0.26660  Biso   1.000  H
  H15      1.0000 0.94510  0.26440  0.76660  Biso   1.000  H
  H16      1.0000 0.05490  0.76440  0.73340  Biso   1.000  H
  H17      1.0000 0.92380  0.72260  0.27060  Biso   1.000  H
  H18      1.0000 0.07620  0.22260  0.22940  Biso   1.000  H
  H19      1.0000 0.07620  0.27740  0.72940  Biso   1.000  H
  H20      1.0000 0.92380  0.77740  0.77060  Biso   1.000  H
  H21      1.0000 0.08290  0.81220  0.31950  Biso   1.000  H
  H22      1.0000 0.91710  0.31220  0.18050  Biso   1.000  H
  H23      1.0000 0.91710  0.18780  0.68050  Biso   1.000  H
  H24      1.0000 0.08290  0.68780  0.81950  Biso   1.000  H
  N5       1.0000 0.51780  0.23580  0.08630  Biso   1.000  N
  N6       1.0000 0.48220  0.73580  0.41370  Biso   1.000  N
  N7       1.0000 0.48220  0.76420  0.91370  Biso   1.000  N
  N8       1.0000 0.51780  0.26420  0.58630  Biso   1.000  N
  C25      1.0000 0.58500  0.17320  0.04320  Biso   1.000  C
  C26      1.0000 0.41500  0.67320  0.45680  Biso   1.000  C
  C27      1.0000 0.41500  0.82680  0.95680  Biso   1.000  C
  C28      1.0000 0.58500  0.32680  0.54320  Biso   1.000  C
  C29      1.0000 0.54810  0.20420  0.95670  Biso   1.000  C
  C30      1.0000 0.45190  0.70420  0.54330  Biso   1.000  C
  C31      1.0000 0.45190  0.79580  0.04330  Biso   1.000  C
  C32      1.0000 0.54810  0.29580  0.45670  Biso   1.000  C
  H25      1.0000 0.59730  0.15970  0.92730  Biso   1.000  H
  H26      1.0000 0.40270  0.65970  0.57270  Biso   1.000  H
  H27      1.0000 0.40270  0.84030  0.07270  Biso   1.000  H
  H28      1.0000 0.59730  0.34030  0.42730  Biso   1.000  H
  C33      1.0000 0.43950  0.29990  0.91370  Biso   1.000  C
  C34      1.0000 0.56050  0.79990  0.58630  Biso   1.000  C
  C35      1.0000 0.56050  0.70010  0.08630  Biso   1.000  C
  C36      1.0000 0.43950  0.20010  0.41370  Biso   1.000  C
  H29      1.0000 0.41580  0.32290  0.85500  Biso   1.000  H
  H30      1.0000 0.58420  0.82290  0.64500  Biso   1.000  H
  H31      1.0000 0.58420  0.67710  0.14500  Biso   1.000  H
  H32      1.0000 0.41580  0.17710  0.35500  Biso   1.000  H
  C37      1.0000 0.36430  0.36320  0.95640  Biso   1.000  C
  C38      1.0000 0.63570  0.86320  0.54360  Biso   1.000  C
  C39      1.0000 0.63570  0.63680  0.04360  Biso   1.000  C
  C40      1.0000 0.36430  0.13680  0.45640  Biso   1.000  C
  C41      1.0000 0.40850  0.32790  0.04310  Biso   1.000  C
  C42      1.0000 0.59150  0.82790  0.45690  Biso   1.000  C
  C43      1.0000 0.59150  0.67210  0.95690  Biso   1.000  C
  C44      1.0000 0.40850  0.17210  0.54310  Biso   1.000  C
  H33      1.0000 0.35970  0.37050  0.07350  Biso   1.000  H
  H34      1.0000 0.64030  0.87050  0.42650  Biso   1.000  H
  H35      1.0000 0.64030  0.62950  0.92650  Biso   1.000  H
  H36      1.0000 0.35970  0.12950  0.57350  Biso   1.000  H
  C45      1.0000 0.23980  0.46520  0.91150  Biso   1.000  C
  C46      1.0000 0.76020  0.96520  0.58850  Biso   1.000  C
  C47      1.0000 0.76020  0.53480  0.08850  Biso   1.000  C
  C48      1.0000 0.23980  0.03480  0.41150  Biso   1.000  C
  H37      1.0000 0.20310  0.49770  0.95290  Biso   1.000  H
  H38      1.0000 0.79690  0.99770  0.54710  Biso   1.000  H
  H39      1.0000 0.79690  0.50230  0.04710  Biso   1.000  H
  H40      1.0000 0.20310  0.00230  0.45290  Biso   1.000  H
  H41      1.0000 0.14170  0.43390  0.85760  Biso   1.000  H
  H42      1.0000 0.85830  0.93390  0.64240  Biso   1.000  H
  H43      1.0000 0.85830  0.56610  0.14240  Biso   1.000  H
  H44      1.0000 0.14170  0.06610  0.35760  Biso   1.000  H
  H45      1.0000 0.29350  0.53060  0.89490  Biso   1.000  H
  H46      1.0000 0.70650  0.03060  0.60510  Biso   1.000  H
  H47      1.0000 0.70650  0.46940  0.10510  Biso   1.000  H
  H48      1.0000 0.29350  0.96940  0.39490  Biso   1.000  H
  N9       1.0000 0.72640  0.13500  0.33860  Biso   1.000  N
  N10      1.0000 0.27360  0.63500  0.16140  Biso   1.000  N
  N11      1.0000 0.27360  0.86500  0.66140  Biso   1.000  N
  N12      1.0000 0.72640  0.36500  0.83860  Biso   1.000  N
  C49      1.0000 0.83120  0.16120  0.41100  Biso   1.000  C
  C50      1.0000 0.16880  0.66120  0.08900  Biso   1.000  C
  C51      1.0000 0.16880  0.83880  0.58900  Biso   1.000  C
  C52      1.0000 0.83120  0.33880  0.91100  Biso   1.000  C
  S1       1.0000 0.97461  0.19937  0.51147  Biso   1.000  S
  S2       1.0000 0.02539  0.69937  0.98853  Biso   1.000  S
  S3       1.0000 0.02539  0.80063  0.48853  Biso   1.000  S
  S4       1.0000 0.97461  0.30063  0.01147  Biso   1.000  S
  N13      1.0000 0.56850  0.35080  0.24760  Biso   1.000  N
  N14      1.0000 0.43150  0.85080  0.25240  Biso   1.000  N
  N15      1.0000 0.43150  0.64920  0.75240  Biso   1.000  N
  N16      1.0000 0.56850  0.14920  0.74760  Biso   1.000  N
  C53      1.0000 0.62010  0.44560  0.28000  Biso   1.000  C
  C54      1.0000 0.37990  0.94560  0.22000  Biso   1.000  C
  C55      1.0000 0.37990  0.55440  0.72000  Biso   1.000  C
  C56      1.0000 0.62010  0.05440  0.78000  Biso   1.000  C
  S5       1.0000 0.69496  0.57736  0.32847  Biso   1.000  S
  S6       1.0000 0.30504  0.07736  0.17153  Biso   1.000  S
  S7       1.0000 0.30504  0.42264  0.67153  Biso   1.000  S
  S8       1.0000 0.69496  0.92264  0.82847  Biso   1.000  S
