data_image0
_cell_length_a       13.889
_cell_length_b       15.758
_cell_length_c       21.96
_cell_angle_alpha    91.108
_cell_angle_beta     107.134
_cell_angle_gamma    115.87

_symmetry_space_group_name_H-M    "P 1"
_symmetry_int_tables_number       1

loop_
  _symmetry_equiv_pos_as_xyz
  'x, y, z'

loop_
  _atom_site_label
  _atom_site_occupancy
  _atom_site_fract_x
  _atom_site_fract_y
  _atom_site_fract_z
  _atom_site_thermal_displace_type
  _atom_site_B_iso_or_equiv
  _atom_site_type_symbol
  Cu1      1.0000 0.59964  0.50116  0.35581  Biso   1.000  Cu
  Cu2      1.0000 0.40036  0.49884  0.64419  Biso   1.000  Cu
  Cu3      1.0000 0.70366  0.30031  0.13957  Biso   1.000  Cu
  Cu4      1.0000 0.29634  0.69969  0.86043  Biso   1.000  Cu
  C1       1.0000 0.18190  0.78460  0.39670  Biso   1.000  C
  C2       1.0000 0.81810  0.21540  0.60330  Biso   1.000  C
  C3       1.0000 0.09670  0.70250  0.40450  Biso   1.000  C
  C4       1.0000 0.90330  0.29750  0.59550  Biso   1.000  C
  H1       1.0000 0.07740  0.70190  0.44170  Biso   1.000  H
  H2       1.0000 0.92260  0.29810  0.55830  Biso   1.000  H
  C5       1.0000 0.03920  0.62100  0.35780  Biso   1.000  C
  C6       1.0000 0.96080  0.37900  0.64220  Biso   1.000  C
  H3       1.0000 0.98450  0.56530  0.36480  Biso   1.000  H
  H4       1.0000 0.01550  0.43470  0.63520  Biso   1.000  H
  C7       1.0000 0.06210  0.62130  0.30140  Biso   1.000  C
  C8       1.0000 0.93790  0.37870  0.69860  Biso   1.000  C
  C9       1.0000 0.14700  0.70320  0.29220  Biso   1.000  C
  C10      1.0000 0.85300  0.29680  0.70780  Biso   1.000  C
  H5       1.0000 0.16410  0.70380  0.25430  Biso   1.000  H
  H6       1.0000 0.83590  0.29620  0.74570  Biso   1.000  H
  C11      1.0000 0.20610  0.78390  0.33960  Biso   1.000  C
  C12      1.0000 0.79390  0.21610  0.66040  Biso   1.000  C
  H7       1.0000 0.26300  0.83870  0.33320  Biso   1.000  H
  H8       1.0000 0.73700  0.16130  0.66680  Biso   1.000  H
  C13      1.0000 0.04070  0.50530  0.21320  Biso   1.000  C
  C14      1.0000 0.95930  0.49470  0.78680  Biso   1.000  C
  H9       1.0000 0.11430  0.53430  0.21200  Biso   1.000  H
  H10      1.0000 0.88570  0.46570  0.78800  Biso   1.000  H
  C15      1.0000 0.95370  0.42430  0.17570  Biso   1.000  C
  C16      1.0000 0.04630  0.57570  0.82430  Biso   1.000  C
  H11      1.0000 0.95760  0.38740  0.14380  Biso   1.000  H
  H12      1.0000 0.04240  0.61260  0.85620  Biso   1.000  H
  C17      1.0000 0.88990  0.47310  0.23800  Biso   1.000  C
  C18      1.0000 0.11010  0.52690  0.76200  Biso   1.000  C
  H13      1.0000 0.84160  0.47740  0.25810  Biso   1.000  H
  H14      1.0000 0.15840  0.52260  0.74190  Biso   1.000  H
  C19      1.0000 0.24890  0.85910  0.51110  Biso   1.000  C
  C20      1.0000 0.75110  0.14090  0.48890  Biso   1.000  C
  C21      1.0000 0.29330  0.80470  0.54320  Biso   1.000  C
  C22      1.0000 0.70670  0.19530  0.45680  Biso   1.000  C
  H15      1.0000 0.31850  0.77120  0.52200  Biso   1.000  H
  H16      1.0000 0.68150  0.22880  0.47800  Biso   1.000  H
  C23      1.0000 0.30140  0.79850  0.60740  Biso   1.000  C
  C24      1.0000 0.69860  0.20150  0.39260  Biso   1.000  C
  H17      1.0000 0.33190  0.76100  0.62900  Biso   1.000  H
  H18      1.0000 0.66810  0.23900  0.37100  Biso   1.000  H
  C25      1.0000 0.26430  0.84760  0.63870  Biso   1.000  C
  C26      1.0000 0.73570  0.15240  0.36130  Biso   1.000  C
  C27      1.0000 0.21880  0.90120  0.60570  Biso   1.000  C
  C28      1.0000 0.78120  0.09880  0.39430  Biso   1.000  C
  H19      1.0000 0.19340  0.93490  0.62660  Biso   1.000  H
  H20      1.0000 0.80660  0.06510  0.37340  Biso   1.000  H
  C29      1.0000 0.21010  0.90630  0.54270  Biso   1.000  C
  C30      1.0000 0.78990  0.09370  0.45730  Biso   1.000  C
  H21      1.0000 0.17730  0.94230  0.52090  Biso   1.000  H
  H22      1.0000 0.82270  0.05770  0.47910  Biso   1.000  H
  C31      1.0000 0.26370  0.76830  0.73490  Biso   1.000  C
  C32      1.0000 0.73630  0.23170  0.26510  Biso   1.000  C
  H23      1.0000 0.24210  0.70790  0.71360  Biso   1.000  H
  H24      1.0000 0.75790  0.29210  0.28640  Biso   1.000  H
  C33      1.0000 0.31690  0.88380  0.80900  Biso   1.000  C
  C34      1.0000 0.68310  0.11620  0.19100  Biso   1.000  C
  H25      1.0000 0.33860  0.91920  0.84940  Biso   1.000  H
  H26      1.0000 0.66140  0.08080  0.15060  Biso   1.000  H
  C35      1.0000 0.31110  0.91770  0.75350  Biso   1.000  C
  C36      1.0000 0.68890  0.08230  0.24650  Biso   1.000  C
  H27      1.0000 0.32810  0.98060  0.74860  Biso   1.000  H
  H28      1.0000 0.67190  0.01940  0.25140  Biso   1.000  H
  C37      1.0000 0.27870  0.96170  0.42940  Biso   1.000  C
  C38      1.0000 0.72130  0.03830  0.57060  Biso   1.000  C
  C39      1.0000 0.37700  0.03570  0.46960  Biso   1.000  C
  C40      1.0000 0.62300  0.96430  0.53040  Biso   1.000  C
  H29      1.0000 0.42220  0.02410  0.50560  Biso   1.000  H
  H30      1.0000 0.57780  0.97590  0.49440  Biso   1.000  H
  C41      1.0000 0.41020  0.13000  0.45660  Biso   1.000  C
  C42      1.0000 0.58980  0.87000  0.54340  Biso   1.000  C
  H31      1.0000 0.47510  0.18100  0.48500  Biso   1.000  H
  H32      1.0000 0.52490  0.81900  0.51500  Biso   1.000  H
  C43      1.0000 0.34680  0.14530  0.40250  Biso   1.000  C
  C44      1.0000 0.65320  0.85470  0.59750  Biso   1.000  C
  C45      1.0000 0.24790  0.07130  0.36170  Biso   1.000  C
  C46      1.0000 0.75210  0.92870  0.63830  Biso   1.000  C
  H33      1.0000 0.20370  0.08310  0.32540  Biso   1.000  H
  H34      1.0000 0.79630  0.91690  0.67460  Biso   1.000  H
  C47      1.0000 0.21430  0.97900  0.37500  Biso   1.000  C
  C48      1.0000 0.78570  0.02100  0.62500  Biso   1.000  C
  H35      1.0000 0.14810  0.92860  0.34700  Biso   1.000  H
  H36      1.0000 0.85190  0.07140  0.65300  Biso   1.000  H
  C49      1.0000 0.48040  0.30710  0.38910  Biso   1.000  C
  C50      1.0000 0.51960  0.69290  0.61090  Biso   1.000  C
  H37      1.0000 0.54460  0.29790  0.39940  Biso   1.000  H
  H38      1.0000 0.45540  0.70210  0.60060  Biso   1.000  H
  C51      1.0000 0.30510  0.27990  0.36910  Biso   1.000  C
  C52      1.0000 0.69490  0.72010  0.63090  Biso   1.000  C
  H39      1.0000 0.22770  0.25060  0.36290  Biso   1.000  H
  H40      1.0000 0.77230  0.74940  0.63710  Biso   1.000  H
  C53      1.0000 0.36870  0.36840  0.36080  Biso   1.000  C
  C54      1.0000 0.63130  0.63160  0.63920  Biso   1.000  C
  H41      1.0000 0.34150  0.41210  0.34830  Biso   1.000  H
  H42      1.0000 0.65850  0.58790  0.65170  Biso   1.000  H
  C55      1.0000 0.92630  0.76710  0.11230  Biso   1.000  C
  C56      1.0000 0.07370  0.23290  0.88770  Biso   1.000  C
  C57      1.0000 0.86180  0.67210  0.11670  Biso   1.000  C
  C58      1.0000 0.13820  0.32790  0.88330  Biso   1.000  C
  H43      1.0000 0.84010  0.62380  0.08300  Biso   1.000  H
  H44      1.0000 0.15990  0.37620  0.91700  Biso   1.000  H
  C59      1.0000 0.82990  0.64870  0.16980  Biso   1.000  C
  C60      1.0000 0.17010  0.35130  0.83020  Biso   1.000  C
  H45      1.0000 0.78670  0.58480  0.17170  Biso   1.000  H
  H46      1.0000 0.21330  0.41520  0.82830  Biso   1.000  H
  C61      1.0000 0.86050  0.71770  0.21980  Biso   1.000  C
  C62      1.0000 0.13950  0.28230  0.78020  Biso   1.000  C
  C63      1.0000 0.92420  0.81310  0.21750  Biso   1.000  C
  C64      1.0000 0.07580  0.18690  0.78250  Biso   1.000  C
  H47      1.0000 0.94390  0.86090  0.25110  Biso   1.000  H
  H48      1.0000 0.05610  0.13910  0.74890  Biso   1.000  H
  C65      1.0000 0.95770  0.83590  0.16430  Biso   1.000  C
  C66      1.0000 0.04230  0.16410  0.83570  Biso   1.000  C
  H49      1.0000 0.00310  0.89970  0.16330  Biso   1.000  H
  H50      1.0000 0.99690  0.10030  0.83670  Biso   1.000  H
  C67      1.0000 0.87060  0.74160  0.33640  Biso   1.000  C
  C68      1.0000 0.12940  0.25840  0.66360  Biso   1.000  C
  H51      1.0000 0.93440  0.80100  0.35190  Biso   1.000  H
  H52      1.0000 0.06560  0.19900  0.64810  Biso   1.000  H
  C69      1.0000 0.80830  0.68840  0.37010  Biso   1.000  C
  C70      1.0000 0.19170  0.31160  0.62990  Biso   1.000  C
  H53      1.0000 0.82300  0.70450  0.41400  Biso   1.000  H
  H54      1.0000 0.17700  0.29550  0.58600  Biso   1.000  H
  C71      1.0000 0.73120  0.61040  0.27370  Biso   1.000  C
  C72      1.0000 0.26880  0.38960  0.72630  Biso   1.000  C
  H55      1.0000 0.68290  0.56320  0.23740  Biso   1.000  H
  H56      1.0000 0.31710  0.43680  0.76260  Biso   1.000  H
  C73      1.0000 0.88010  0.73250  0.99460  Biso   1.000  C
  C74      1.0000 0.11990  0.26750  0.00540  Biso   1.000  C
  C75      1.0000 0.77010  0.72240  0.97090  Biso   1.000  C
  C76      1.0000 0.22990  0.27760  0.02910  Biso   1.000  C
  H57      1.0000 0.74660  0.75460  0.99440  Biso   1.000  H
  H58      1.0000 0.25340  0.24540  0.00560  Biso   1.000  H
  C77      1.0000 0.69700  0.66440  0.91260  Biso   1.000  C
  C78      1.0000 0.30300  0.33560  0.08740  Biso   1.000  C
  H59      1.0000 0.62390  0.65790  0.89620  Biso   1.000  H
  H60      1.0000 0.37610  0.34210  0.10380  Biso   1.000  H
  C79      1.0000 0.73160  0.61590  0.87830  Biso   1.000  C
  C80      1.0000 0.26840  0.38410  0.12170  Biso   1.000  C
  C81      1.0000 0.84130  0.62640  0.90120  Biso   1.000  C
  C82      1.0000 0.15870  0.37360  0.09880  Biso   1.000  C
  H61      1.0000 0.86540  0.59450  0.87790  Biso   1.000  H
  H62      1.0000 0.13460  0.40550  0.12210  Biso   1.000  H
  C83      1.0000 0.91420  0.68630  0.96020  Biso   1.000  C
  C84      1.0000 0.08580  0.31370  0.03980  Biso   1.000  C
  H63      1.0000 0.98820  0.69470  0.97630  Biso   1.000  H
  H64      1.0000 0.01180  0.30530  0.02370  Biso   1.000  H
  C85      1.0000 0.63370  0.46290  0.79880  Biso   1.000  C
  C86      1.0000 0.36630  0.53710  0.20120  Biso   1.000  C
  H65      1.0000 0.67010  0.42940  0.82080  Biso   1.000  H
  H66      1.0000 0.32990  0.57060  0.17920  Biso   1.000  H
  C87      1.0000 0.54920  0.43070  0.74090  Biso   1.000  C
  C88      1.0000 0.45080  0.56930  0.25910  Biso   1.000  C
  H67      1.0000 0.51710  0.37020  0.71640  Biso   1.000  H
  H68      1.0000 0.48290  0.62980  0.28360  Biso   1.000  H
  C89      1.0000 0.58390  0.57360  0.77180  Biso   1.000  C
  C90      1.0000 0.41610  0.42640  0.22820  Biso   1.000  C
  H69      1.0000 0.58140  0.63160  0.77300  Biso   1.000  H
  H70      1.0000 0.41860  0.36840  0.22700  Biso   1.000  H
  C91      1.0000 0.06010  0.86880  0.05910  Biso   1.000  C
  C92      1.0000 0.93990  0.13120  0.94090  Biso   1.000  C
  C93      1.0000 0.06250  0.92280  0.01140  Biso   1.000  C
  C94      1.0000 0.93750  0.07720  0.98860  Biso   1.000  C
  H71      1.0000 0.99510  0.90990  0.97870  Biso   1.000  H
  H72      1.0000 0.00490  0.09010  0.02130  Biso   1.000  H
  C95      1.0000 0.16370  0.99680  0.01090  Biso   1.000  C
  C96      1.0000 0.83630  0.00320  0.98910  Biso   1.000  C
  H73      1.0000 0.16410  0.03380  0.97840  Biso   1.000  H
  H74      1.0000 0.83590  0.96620  0.02160  Biso   1.000  H
  C97      1.0000 0.26280  0.01530  0.05820  Biso   1.000  C
  C98      1.0000 0.73720  0.98470  0.94180  Biso   1.000  C
  C99      1.0000 0.26260  0.96070  0.10630  Biso   1.000  C
  C100     1.0000 0.73740  0.03930  0.89370  Biso   1.000  C
  H75      1.0000 0.33030  0.97250  0.13840  Biso   1.000  H
  H76      1.0000 0.66970  0.02750  0.86160  Biso   1.000  H
  C101     1.0000 0.16090  0.88830  0.10630  Biso   1.000  C
  C102     1.0000 0.83910  0.11170  0.89370  Biso   1.000  C
  H77      1.0000 0.16030  0.85170  0.13910  Biso   1.000  H
  H78      1.0000 0.83970  0.14830  0.86090  Biso   1.000  H
  C103     1.0000 0.39290  0.11760  0.00150  Biso   1.000  C
  C104     1.0000 0.60710  0.88240  0.99850  Biso   1.000  C
  H79      1.0000 0.34420  0.09310  0.95890  Biso   1.000  H
  H80      1.0000 0.65580  0.90690  0.04110  Biso   1.000  H
  C105     1.0000 0.46260  0.14400  0.10740  Biso   1.000  C
  C106     1.0000 0.53740  0.85600  0.89260  Biso   1.000  C
  H81      1.0000 0.46800  0.13970  0.15030  Biso   1.000  H
  H82      1.0000 0.53200  0.86030  0.84970  Biso   1.000  H
  C107     1.0000 0.50120  0.18770  0.02160  Biso   1.000  C
  C108     1.0000 0.49880  0.81230  0.97840  Biso   1.000  C
  H83      1.0000 0.54030  0.22040  0.99470  Biso   1.000  H
  H84      1.0000 0.45970  0.77960  0.00530  Biso   1.000  H
  C109     1.0000 0.89410  0.47960  0.45580  Biso   1.000  C
  C110     1.0000 0.10590  0.52040  0.54420  Biso   1.000  C
  C111     1.0000 0.94430  0.55010  0.51040  Biso   1.000  C
  C112     1.0000 0.05570  0.44990  0.48960  Biso   1.000  C
  H85      1.0000 0.90670  0.58380  0.51750  Biso   1.000  H
  H86      1.0000 0.09330  0.41620  0.48250  Biso   1.000  H
  C113     1.0000 0.95040  0.42960  0.44570  Biso   1.000  C
  C114     1.0000 0.04960  0.57040  0.55430  Biso   1.000  C
  H87      1.0000 0.91740  0.38220  0.40950  Biso   1.000  H
  H88      1.0000 0.08260  0.61780  0.59050  Biso   1.000  H
  C115     1.0000 0.78180  0.46120  0.40620  Biso   1.000  C
  C116     1.0000 0.21820  0.53880  0.59380  Biso   1.000  C
  C117     1.0000 0.10490  0.57510  0.03930  Biso   1.000  C
  C118     1.0000 0.89510  0.42490  0.96070  Biso   1.000  C
  C119     1.0000 0.09580  0.52780  0.98230  Biso   1.000  C
  C120     1.0000 0.90420  0.47220  0.01770  Biso   1.000  C
  H89      1.0000 0.15940  0.54700  0.96960  Biso   1.000  H
  H90      1.0000 0.84060  0.45300  0.03040  Biso   1.000  H
  C121     1.0000 0.00690  0.54780  0.05620  Biso   1.000  C
  C122     1.0000 0.99310  0.45220  0.94380  Biso   1.000  C
  H91      1.0000 0.01050  0.58030  0.09330  Biso   1.000  H
  H92      1.0000 0.98950  0.41970  0.90670  Biso   1.000  H
  C123     1.0000 0.21520  0.65480  0.08230  Biso   1.000  C
  C124     1.0000 0.78480  0.34520  0.91770  Biso   1.000  C
  C125     1.0000 0.55850  0.46620  0.04750  Biso   1.000  C
  C126     1.0000 0.44150  0.53380  0.95250  Biso   1.000  C
  C127     1.0000 0.54750  0.44530  0.98390  Biso   1.000  C
  C128     1.0000 0.45250  0.55470  0.01610  Biso   1.000  C
  H93      1.0000 0.57960  0.40900  0.97280  Biso   1.000  H
  H94      1.0000 0.42040  0.59100  0.02720  Biso   1.000  H
  C129     1.0000 0.51140  0.52140  0.06340  Biso   1.000  C
  C130     1.0000 0.48860  0.47860  0.93660  Biso   1.000  C
  H95      1.0000 0.51950  0.53630  0.10640  Biso   1.000  H
  H96      1.0000 0.48050  0.46370  0.89360  Biso   1.000  H
  C131     1.0000 0.61570  0.42400  0.09940  Biso   1.000  C
  C132     1.0000 0.38430  0.57600  0.90060  Biso   1.000  C
  C133     1.0000 0.00070  0.02230  0.44040  Biso   1.000  C
  C134     1.0000 0.99930  0.97770  0.55960  Biso   1.000  C
  C135     1.0000 0.91830  0.93660  0.44640  Biso   1.000  C
  C136     1.0000 0.08170  0.06340  0.55360  Biso   1.000  C
  H97      1.0000 0.86310  0.89360  0.40950  Biso   1.000  H
  H98      1.0000 0.13690  0.10640  0.59050  Biso   1.000  H
  C137     1.0000 0.08340  0.08650  0.49280  Biso   1.000  C
  C138     1.0000 0.91660  0.91350  0.50720  Biso   1.000  C
  H99      1.0000 0.13930  0.14390  0.48840  Biso   1.000  H
  H100     1.0000 0.86070  0.85610  0.51160  Biso   1.000  H
  C139     1.0000 0.99500  0.04520  0.37070  Biso   1.000  C
  C140     1.0000 0.00500  0.95480  0.62930  Biso   1.000  C
  C141     1.0000 0.42980  0.65740  0.41860  Biso   1.000  C
  C142     1.0000 0.57020  0.34260  0.58140  Biso   1.000  C
  C143     1.0000 0.60800  0.79720  0.37210  Biso   1.000  C
  C144     1.0000 0.39200  0.20280  0.62790  Biso   1.000  C
  C145     1.0000 0.77010  0.17370  0.04970  Biso   1.000  C
  C146     1.0000 0.22990  0.82630  0.95030  Biso   1.000  C
  H101     1.0000 0.80290  0.17770  0.01630  Biso   1.000  H
  H102     1.0000 0.19710  0.82230  0.98370  Biso   1.000  H
  H103     1.0000 0.69360  0.12280  0.03500  Biso   1.000  H
  H104     1.0000 0.30640  0.87720  0.96500  Biso   1.000  H
  H105     1.0000 0.81420  0.16110  0.08770  Biso   1.000  H
  H106     1.0000 0.18580  0.83890  0.91230  Biso   1.000  H
  C147     1.0000 0.05410  0.33310  0.32590  Biso   1.000  C
  C148     1.0000 0.94590  0.66690  0.67410  Biso   1.000  C
  O1       1.0000 0.67420  0.39010  0.08403  Biso   1.000  O
  O2       1.0000 0.32580  0.60990  0.91597  Biso   1.000  O
  O3       1.0000 0.59980  0.42410  0.15262  Biso   1.000  O
  O4       1.0000 0.40020  0.57590  0.84738  Biso   1.000  O
  O5       1.0000 0.22930  0.66890  0.14110  Biso   1.000  O
  O6       1.0000 0.77070  0.33110  0.85890  Biso   1.000  O
  O7       1.0000 0.28870  0.70340  0.05680  Biso   1.000  O
  O8       1.0000 0.71130  0.29660  0.94320  Biso   1.000  O
  O9       1.0000 0.75570  0.41860  0.35037  Biso   1.000  O
  O10      1.0000 0.24430  0.58140  0.64963  Biso   1.000  O
  O11      1.0000 0.72040  0.48940  0.42429  Biso   1.000  O
  O12      1.0000 0.27960  0.51060  0.57571  Biso   1.000  O
  O13      1.0000 0.93510  0.97790  0.32530  Biso   1.000  O
  O14      1.0000 0.06490  0.02210  0.67470  Biso   1.000  O
  O15      1.0000 0.05120  0.13050  0.36730  Biso   1.000  O
  O16      1.0000 0.94880  0.86950  0.63270  Biso   1.000  O
  O17      1.0000 0.64770  0.83650  0.15960  Biso   1.000  O
  O18      1.0000 0.35230  0.16350  0.84040  Biso   1.000  O
  O19      1.0000 0.49290  0.79000  0.34740  Biso   1.000  O
  O20      1.0000 0.50710  0.21000  0.65260  Biso   1.000  O
  O21      1.0000 0.05860  0.29760  0.38270  Biso   1.000  O
  O22      1.0000 0.94140  0.70240  0.61730  Biso   1.000  O
  O23      1.0000 0.31810  0.59680  0.41500  Biso   1.000  O
  O24      1.0000 0.68190  0.40320  0.58500  Biso   1.000  O
  N1       1.0000 0.24410  0.86790  0.44563  Biso   1.000  N
  N2       1.0000 0.75590  0.13210  0.55437  Biso   1.000  N
  N3       1.0000 0.37860  0.24130  0.38890  Biso   1.000  N
  N4       1.0000 0.62140  0.75870  0.61110  Biso   1.000  N
  N5       1.0000 0.47880  0.38640  0.37311  Biso   1.000  N
  N6       1.0000 0.52120  0.61360  0.62689  Biso   1.000  N
  N7       1.0000 0.00040  0.53740  0.25350  Biso   1.000  N
  N8       1.0000 0.99960  0.46260  0.74650  Biso   1.000  N
  N9       1.0000 0.85880  0.40390  0.19118  Biso   1.000  N
  N10      1.0000 0.14120  0.59610  0.80882  Biso   1.000  N
  N11      1.0000 0.27570  0.84400  0.70520  Biso   1.000  N
  N12      1.0000 0.72430  0.15600  0.29480  Biso   1.000  N
  N13      1.0000 0.28570  0.78850  0.79670  Biso   1.000  N
  N14      1.0000 0.71430  0.21150  0.20330  Biso   1.000  N
  N15      1.0000 0.95530  0.79150  0.05720  Biso   1.000  N
  N16      1.0000 0.04470  0.20850  0.94280  Biso   1.000  N
  N17      1.0000 0.82230  0.69180  0.27442  Biso   1.000  N
  N18      1.0000 0.17770  0.30820  0.72558  Biso   1.000  N
  N19      1.0000 0.71970  0.60670  0.33101  Biso   1.000  N
  N20      1.0000 0.28030  0.39330  0.66899  Biso   1.000  N
  N21      1.0000 0.65520  0.55350  0.81853  Biso   1.000  N
  N22      1.0000 0.34480  0.44650  0.18147  Biso   1.000  N
  N23      1.0000 0.51820  0.49970  0.72406  Biso   1.000  N
  N24      1.0000 0.48180  0.50030  0.27594  Biso   1.000  N
  N25      1.0000 0.36880  0.08980  0.05610  Biso   1.000  N
  N26      1.0000 0.63120  0.91020  0.94390  Biso   1.000  N
  N27      1.0000 0.54540  0.20360  0.08847  Biso   1.000  N
  N28      1.0000 0.45460  0.79640  0.91153  Biso   1.000  N
  O25      1.0000 0.58910  0.60670  0.42410  Biso   1.000  O
  O26      1.0000 0.41090  0.39330  0.57590  Biso   1.000  O
  O27      1.0000 0.38070  0.82420  0.23030  Biso   1.000  O
  O28      1.0000 0.61930  0.17580  0.76970  Biso   1.000  O
  O29      1.0000 0.46680  0.87930  0.12550  Biso   1.000  O
  O30      1.0000 0.53320  0.12070  0.87450  Biso   1.000  O
  O31      1.0000 0.40800  0.14270  0.24860  Biso   1.000  O
  O32      1.0000 0.59200  0.85730  0.75140  Biso   1.000  O
  O33      1.0000 0.71710  0.87200  0.28990  Biso   1.000  O
  O34      1.0000 0.28290  0.12800  0.71010  Biso   1.000  O
  O35      1.0000 0.56230  0.31720  0.24810  Biso   1.000  O
  O36      1.0000 0.43770  0.68280  0.75190  Biso   1.000  O
  O37      1.0000 0.76980  0.25960  0.06425  Biso   1.000  O
  O38      1.0000 0.23020  0.74040  0.93575  Biso   1.000  O
  H107     1.0000 0.57500  0.35000  0.21800  Biso   1.000  H
  H108     1.0000 0.42500  0.65000  0.78200  Biso   1.000  H
  H109     1.0000 0.42300  0.84400  0.20800  Biso   1.000  H
  H110     1.0000 0.57700  0.15600  0.79200  Biso   1.000  H
