data_image0
_cell_length_a       12.891
_cell_length_b       13.631
_cell_length_c       19.268
_cell_angle_alpha    90
_cell_angle_beta     102.985
_cell_angle_gamma    90

_symmetry_space_group_name_H-M    "P 1"
_symmetry_int_tables_number       1

loop_
  _symmetry_equiv_pos_as_xyz
  'x, y, z'

loop_
  _atom_site_label
  _atom_site_occupancy
  _atom_site_fract_x
  _atom_site_fract_y
  _atom_site_fract_z
  _atom_site_thermal_displace_type
  _atom_site_B_iso_or_equiv
  _atom_site_type_symbol
  Si1      1.0000 0.00000  0.00000  0.00000  Biso   1.000  Si
  Si2      1.0000 0.50000  0.50000  0.50000  Biso   1.000  Si
  W1       1.0000 0.19617  0.84360  0.10044  Biso   1.000  W
  W2       1.0000 0.30383  0.34360  0.39956  Biso   1.000  W
  W3       1.0000 0.80383  0.15640  0.89956  Biso   1.000  W
  W4       1.0000 0.69617  0.65640  0.60044  Biso   1.000  W
  W5       1.0000 0.26835  0.07091  0.03833  Biso   1.000  W
  W6       1.0000 0.23165  0.57091  0.46167  Biso   1.000  W
  W7       1.0000 0.73165  0.92909  0.96167  Biso   1.000  W
  W8       1.0000 0.76835  0.42909  0.53833  Biso   1.000  W
  W9       1.0000 0.12990  0.06494  0.17544  Biso   1.000  W
  W10      1.0000 0.37010  0.56494  0.32456  Biso   1.000  W
  W11      1.0000 0.87010  0.93506  0.82456  Biso   1.000  W
  W12      1.0000 0.62990  0.43506  0.67544  Biso   1.000  W
  W13      1.0000 0.92582  0.77229  0.06315  Biso   1.000  W
  W14      1.0000 0.57418  0.27229  0.43685  Biso   1.000  W
  W15      1.0000 0.07418  0.22771  0.93685  Biso   1.000  W
  W16      1.0000 0.42582  0.72771  0.56315  Biso   1.000  W
  W17      1.0000 0.06576  0.77834  0.92554  Biso   1.000  W
  W18      1.0000 0.43424  0.27834  0.57446  Biso   1.000  W
  W19      1.0000 0.93424  0.22166  0.07446  Biso   1.000  W
  W20      1.0000 0.56576  0.72166  0.42554  Biso   1.000  W
  W21      1.0000 0.86050  0.99409  0.13667  Biso   1.000  W
  W22      1.0000 0.63950  0.49409  0.36333  Biso   1.000  W
  W23      1.0000 0.13950  0.00591  0.86333  Biso   1.000  W
  W24      1.0000 0.36050  0.50591  0.63667  Biso   1.000  W
  O1       1.0000 0.17290  0.93280  0.17060  Biso   1.000  O
  O2       1.0000 0.32710  0.43280  0.32940  Biso   1.000  O
  O3       1.0000 0.82710  0.06720  0.82940  Biso   1.000  O
  O4       1.0000 0.67290  0.56720  0.67060  Biso   1.000  O
  O5       1.0000 0.89010  0.66450  0.09300  Biso   1.000  O
  O6       1.0000 0.60990  0.16450  0.40700  Biso   1.000  O
  O7       1.0000 0.10990  0.33550  0.90700  Biso   1.000  O
  O8       1.0000 0.39010  0.83550  0.59300  Biso   1.000  O
  O9       1.0000 0.09760  0.67130  0.89010  Biso   1.000  O
  O10      1.0000 0.40240  0.17130  0.60990  Biso   1.000  O
  O11      1.0000 0.90240  0.32870  0.10990  Biso   1.000  O
  O12      1.0000 0.59760  0.82870  0.39010  Biso   1.000  O
  O13      1.0000 0.79600  0.99330  0.20200  Biso   1.000  O
  O14      1.0000 0.70400  0.49330  0.29800  Biso   1.000  O
  O15      1.0000 0.20400  0.00670  0.79800  Biso   1.000  O
  O16      1.0000 0.29600  0.50670  0.70200  Biso   1.000  O
  O17      1.0000 0.23030  0.10560  0.12390  Biso   1.000  O
  O18      1.0000 0.26970  0.60560  0.37610  Biso   1.000  O
  O19      1.0000 0.76970  0.89440  0.87610  Biso   1.000  O
  O20      1.0000 0.73030  0.39440  0.62390  Biso   1.000  O
  O21      1.0000 0.28820  0.77540  0.14720  Biso   1.000  O
  O22      1.0000 0.21180  0.27540  0.35280  Biso   1.000  O
  O23      1.0000 0.71180  0.22460  0.85280  Biso   1.000  O
  O24      1.0000 0.78820  0.72460  0.64720  Biso   1.000  O
  O25      1.0000 0.28290  0.93830  0.06720  Biso   1.000  O
  O26      1.0000 0.21710  0.43830  0.43280  Biso   1.000  O
  O27      1.0000 0.71710  0.06170  0.93280  Biso   1.000  O
  O28      1.0000 0.78290  0.56170  0.56720  Biso   1.000  O
  O29      1.0000 0.19190  0.09380  0.25720  Biso   1.000  O
  O30      1.0000 0.30810  0.59380  0.24280  Biso   1.000  O
  O31      1.0000 0.80810  0.90620  0.74280  Biso   1.000  O
  O32      1.0000 0.69190  0.40620  0.75720  Biso   1.000  O
  O33      1.0000 0.20190  0.18910  0.99750  Biso   1.000  O
  O34      1.0000 0.29810  0.68910  0.50250  Biso   1.000  O
  O35      1.0000 0.79810  0.81090  0.00250  Biso   1.000  O
  O36      1.0000 0.70190  0.31090  0.49750  Biso   1.000  O
  O37      1.0000 0.89300  0.85670  0.13240  Biso   1.000  O
  O38      1.0000 0.60700  0.35670  0.36760  Biso   1.000  O
  O39      1.0000 0.10700  0.14330  0.86760  Biso   1.000  O
  O40      1.0000 0.39300  0.64330  0.63240  Biso   1.000  O
  O41      1.0000 0.05280  0.18180  0.14130  Biso   1.000  O
  O42      1.0000 0.44720  0.68180  0.35870  Biso   1.000  O
  O43      1.0000 0.94720  0.81820  0.85870  Biso   1.000  O
  O44      1.0000 0.55280  0.31820  0.64130  Biso   1.000  O
  O45      1.0000 0.25410  0.02540  0.94200  Biso   1.000  O
  O46      1.0000 0.24590  0.52540  0.55800  Biso   1.000  O
  O47      1.0000 0.74590  0.97460  0.05800  Biso   1.000  O
  O48      1.0000 0.75410  0.47460  0.44200  Biso   1.000  O
  O49      1.0000 0.06910  0.77990  0.11050  Biso   1.000  O
  O50      1.0000 0.43090  0.27990  0.38950  Biso   1.000  O
  O51      1.0000 0.93090  0.22010  0.88950  Biso   1.000  O
  O52      1.0000 0.56910  0.72010  0.61050  Biso   1.000  O
  O53      1.0000 0.97340  0.73210  0.98120  Biso   1.000  O
  O54      1.0000 0.52660  0.23210  0.51880  Biso   1.000  O
  O55      1.0000 0.02660  0.26790  0.01880  Biso   1.000  O
  O56      1.0000 0.47340  0.76790  0.48120  Biso   1.000  O
  O57      1.0000 0.39300  0.10570  0.05510  Biso   1.000  O
  O58      1.0000 0.10700  0.60570  0.44490  Biso   1.000  O
  O59      1.0000 0.60700  0.89430  0.94490  Biso   1.000  O
  O60      1.0000 0.89300  0.39430  0.55510  Biso   1.000  O
  O61      1.0000 0.00070  0.01280  0.18880  Biso   1.000  O
  O62      1.0000 0.49930  0.51280  0.31120  Biso   1.000  O
  O63      1.0000 0.99930  0.98720  0.81120  Biso   1.000  O
  O64      1.0000 0.50070  0.48720  0.68880  Biso   1.000  O
  O65      1.0000 0.17390  0.78510  0.00890  Biso   1.000  O
  O66      1.0000 0.32610  0.28510  0.49110  Biso   1.000  O
  O67      1.0000 0.82610  0.21490  0.99110  Biso   1.000  O
  O68      1.0000 0.67390  0.71490  0.50890  Biso   1.000  O
  O69      1.0000 0.14360  0.86800  0.88380  Biso   1.000  O
  O70      1.0000 0.35640  0.36800  0.61620  Biso   1.000  O
  O71      1.0000 0.85640  0.13200  0.11620  Biso   1.000  O
  O72      1.0000 0.64360  0.63200  0.38380  Biso   1.000  O
  O73      1.0000 0.56960  0.97410  0.14480  Biso   1.000  O
  O74      1.0000 0.93040  0.47410  0.35520  Biso   1.000  O
  O75      1.0000 0.43040  0.02590  0.85520  Biso   1.000  O
  O76      1.0000 0.06960  0.52590  0.64480  Biso   1.000  O
  O77      1.0000 0.03290  0.88270  0.01900  Biso   1.000  O
  O78      1.0000 0.46710  0.38270  0.48100  Biso   1.000  O
  O79      1.0000 0.96710  0.11730  0.98100  Biso   1.000  O
  O80      1.0000 0.53290  0.61730  0.51900  Biso   1.000  O
  O81      1.0000 0.88250  0.00190  0.94380  Biso   1.000  O
  O82      1.0000 0.61750  0.50190  0.55620  Biso   1.000  O
  O83      1.0000 0.11750  0.99810  0.05620  Biso   1.000  O
  O84      1.0000 0.38250  0.49810  0.44380  Biso   1.000  O
  O85      1.0000 0.98420  0.05420  0.07650  Biso   1.000  O
  O86      1.0000 0.51580  0.55420  0.42350  Biso   1.000  O
  O87      1.0000 0.01580  0.94580  0.92350  Biso   1.000  O
  O88      1.0000 0.48420  0.44580  0.57650  Biso   1.000  O
  O89      1.0000 0.09000  0.05680  0.97380  Biso   1.000  O
  O90      1.0000 0.41000  0.55680  0.52620  Biso   1.000  O
  O91      1.0000 0.91000  0.94320  0.02620  Biso   1.000  O
  O92      1.0000 0.59000  0.44320  0.47380  Biso   1.000  O
  O93      1.0000 0.46400  0.44360  0.09140  Biso   1.000  O
  O94      1.0000 0.03600  0.94360  0.40860  Biso   1.000  O
  O95      1.0000 0.53600  0.55640  0.90860  Biso   1.000  O
  O96      1.0000 0.96400  0.05640  0.59140  Biso   1.000  O
  O97      1.0000 0.63430  0.45980  0.98960  Biso   1.000  O
  O98      1.0000 0.86570  0.95980  0.51040  Biso   1.000  O
  O99      1.0000 0.36570  0.54020  0.01040  Biso   1.000  O
  O100     1.0000 0.13430  0.04020  0.48960  Biso   1.000  O
  O101     1.0000 0.77750  0.49750  0.12650  Biso   1.000  O
  O102     1.0000 0.72250  0.99750  0.37350  Biso   1.000  O
  O103     1.0000 0.22250  0.50250  0.87350  Biso   1.000  O
  O104     1.0000 0.27750  0.00250  0.62650  Biso   1.000  O
  C1       1.0000 0.63710  0.26010  0.08170  Biso   1.000  C
  C2       1.0000 0.86290  0.76010  0.41830  Biso   1.000  C
  C3       1.0000 0.36290  0.73990  0.91830  Biso   1.000  C
  C4       1.0000 0.13710  0.23990  0.58170  Biso   1.000  C
  H1       1.0000 0.64910  0.27230  0.03660  Biso   1.000  H
  H2       1.0000 0.85090  0.77230  0.46340  Biso   1.000  H
  H3       1.0000 0.35090  0.72770  0.96340  Biso   1.000  H
  H4       1.0000 0.14910  0.22770  0.53660  Biso   1.000  H
  C5       1.0000 0.61550  0.16320  0.10010  Biso   1.000  C
  C6       1.0000 0.88450  0.66320  0.39990  Biso   1.000  C
  C7       1.0000 0.38450  0.83680  0.89990  Biso   1.000  C
  C8       1.0000 0.11550  0.33680  0.60010  Biso   1.000  C
  H5       1.0000 0.61800  0.11070  0.06970  Biso   1.000  H
  H6       1.0000 0.88200  0.61070  0.43030  Biso   1.000  H
  H7       1.0000 0.38200  0.88930  0.93030  Biso   1.000  H
  H8       1.0000 0.11800  0.38930  0.56970  Biso   1.000  H
  C9       1.0000 0.59060  0.15040  0.16500  Biso   1.000  C
  C10      1.0000 0.90940  0.65040  0.33500  Biso   1.000  C
  C11      1.0000 0.40940  0.84960  0.83500  Biso   1.000  C
  C12      1.0000 0.09060  0.34960  0.66500  Biso   1.000  C
  C13      1.0000 0.60100  0.22460  0.21090  Biso   1.000  C
  C14      1.0000 0.89900  0.72460  0.28910  Biso   1.000  C
  C15      1.0000 0.39900  0.77540  0.78910  Biso   1.000  C
  C16      1.0000 0.10100  0.27540  0.71090  Biso   1.000  C
  H9       1.0000 0.59260  0.21490  0.25710  Biso   1.000  H
  H10      1.0000 0.90740  0.71490  0.24290  Biso   1.000  H
  H11      1.0000 0.40740  0.78510  0.74290  Biso   1.000  H
  H12      1.0000 0.09260  0.28510  0.75710  Biso   1.000  H
  C17      1.0000 0.62470  0.31700  0.18820  Biso   1.000  C
  C18      1.0000 0.87530  0.81700  0.31180  Biso   1.000  C
  C19      1.0000 0.37530  0.68300  0.81180  Biso   1.000  C
  C20      1.0000 0.12470  0.18300  0.68820  Biso   1.000  C
  H13      1.0000 0.62900  0.36930  0.21980  Biso   1.000  H
  H14      1.0000 0.87100  0.86930  0.28020  Biso   1.000  H
  H15      1.0000 0.37100  0.63070  0.78020  Biso   1.000  H
  H16      1.0000 0.12900  0.13070  0.71980  Biso   1.000  H
  C21      1.0000 0.60550  0.68740  0.07480  Biso   1.000  C
  C22      1.0000 0.89450  0.18740  0.42520  Biso   1.000  C
  C23      1.0000 0.39450  0.31260  0.92520  Biso   1.000  C
  C24      1.0000 0.10550  0.81260  0.57480  Biso   1.000  C
  H17      1.0000 0.62670  0.67720  0.03230  Biso   1.000  H
  H18      1.0000 0.87330  0.17720  0.46770  Biso   1.000  H
  H19      1.0000 0.37330  0.32280  0.96770  Biso   1.000  H
  H20      1.0000 0.12670  0.82280  0.53230  Biso   1.000  H
  C25      1.0000 0.58870  0.78530  0.09700  Biso   1.000  C
  C26      1.0000 0.91130  0.28530  0.40300  Biso   1.000  C
  C27      1.0000 0.41130  0.21470  0.90300  Biso   1.000  C
  C28      1.0000 0.08870  0.71470  0.59700  Biso   1.000  C
  H21      1.0000 0.60260  0.83840  0.07010  Biso   1.000  H
  H22      1.0000 0.89740  0.33840  0.42990  Biso   1.000  H
  H23      1.0000 0.39740  0.16160  0.92990  Biso   1.000  H
  H24      1.0000 0.10260  0.66160  0.57010  Biso   1.000  H
  C29      1.0000 0.55280  0.80100  0.15680  Biso   1.000  C
  C30      1.0000 0.94720  0.30100  0.34320  Biso   1.000  C
  C31      1.0000 0.44720  0.19900  0.84320  Biso   1.000  C
  C32      1.0000 0.05280  0.69900  0.65680  Biso   1.000  C
  C33      1.0000 0.53220  0.72310  0.19280  Biso   1.000  C
  C34      1.0000 0.96780  0.22310  0.30720  Biso   1.000  C
  C35      1.0000 0.46780  0.27690  0.80720  Biso   1.000  C
  C36      1.0000 0.03220  0.77690  0.69280  Biso   1.000  C
  H25      1.0000 0.50240  0.73110  0.23210  Biso   1.000  H
  H26      1.0000 0.99760  0.23110  0.26790  Biso   1.000  H
  H27      1.0000 0.49760  0.26890  0.76790  Biso   1.000  H
  H28      1.0000 0.00240  0.76890  0.73210  Biso   1.000  H
  C37      1.0000 0.55560  0.62850  0.17140  Biso   1.000  C
  C38      1.0000 0.94440  0.12850  0.32860  Biso   1.000  C
  C39      1.0000 0.44440  0.37150  0.82860  Biso   1.000  C
  C40      1.0000 0.05560  0.87150  0.67140  Biso   1.000  C
  H29      1.0000 0.54530  0.57530  0.19930  Biso   1.000  H
  H30      1.0000 0.95470  0.07530  0.30070  Biso   1.000  H
  H31      1.0000 0.45470  0.42470  0.80070  Biso   1.000  H
  H32      1.0000 0.04530  0.92470  0.69930  Biso   1.000  H
  C41      1.0000 0.53900  0.89890  0.18100  Biso   1.000  C
  C42      1.0000 0.96100  0.39890  0.31900  Biso   1.000  C
  C43      1.0000 0.46100  0.10110  0.81900  Biso   1.000  C
  C44      1.0000 0.03900  0.60110  0.68100  Biso   1.000  C
  C45      1.0000 0.56200  0.05450  0.18560  Biso   1.000  C
  C46      1.0000 0.93800  0.55450  0.31440  Biso   1.000  C
  C47      1.0000 0.43800  0.94550  0.81440  Biso   1.000  C
  C48      1.0000 0.06200  0.44550  0.68560  Biso   1.000  C
  C49      1.0000 0.11880  0.49800  0.12510  Biso   1.000  C
  C50      1.0000 0.38120  0.99800  0.37490  Biso   1.000  C
  C51      1.0000 0.88120  0.50200  0.87490  Biso   1.000  C
  C52      1.0000 0.61880  0.00200  0.62510  Biso   1.000  C
  H33      1.0000 0.06120  0.54010  0.12170  Biso   1.000  H
  H34      1.0000 0.43880  0.04010  0.37830  Biso   1.000  H
  H35      1.0000 0.93880  0.45990  0.87830  Biso   1.000  H
  H36      1.0000 0.56120  0.95990  0.62170  Biso   1.000  H
  C53      1.0000 0.19970  0.51810  0.08570  Biso   1.000  C
  C54      1.0000 0.30030  0.01810  0.41430  Biso   1.000  C
  C55      1.0000 0.80030  0.48190  0.91430  Biso   1.000  C
  C56      1.0000 0.69970  0.98190  0.58570  Biso   1.000  C
  H37      1.0000 0.19250  0.57010  0.05370  Biso   1.000  H
  H38      1.0000 0.30750  0.07010  0.44630  Biso   1.000  H
  H39      1.0000 0.80750  0.42990  0.94630  Biso   1.000  H
  H40      1.0000 0.69250  0.92990  0.55370  Biso   1.000  H
  C57      1.0000 0.28610  0.45890  0.09680  Biso   1.000  C
  C58      1.0000 0.21390  0.95890  0.40320  Biso   1.000  C
  C59      1.0000 0.71390  0.54110  0.90320  Biso   1.000  C
  C60      1.0000 0.78610  0.04110  0.59680  Biso   1.000  C
  C61      1.0000 0.29410  0.38110  0.14050  Biso   1.000  C
  C62      1.0000 0.20590  0.88110  0.35950  Biso   1.000  C
  C63      1.0000 0.70590  0.61890  0.85950  Biso   1.000  C
  C64      1.0000 0.79410  0.11890  0.64050  Biso   1.000  C
  H41      1.0000 0.35320  0.34000  0.14730  Biso   1.000  H
  H42      1.0000 0.14680  0.84000  0.35270  Biso   1.000  H
  H43      1.0000 0.64680  0.66000  0.85270  Biso   1.000  H
  H44      1.0000 0.85320  0.16000  0.64730  Biso   1.000  H
  C65      1.0000 0.21070  0.36290  0.17600  Biso   1.000  C
  C66      1.0000 0.28930  0.86290  0.32400  Biso   1.000  C
  C67      1.0000 0.78930  0.63710  0.82400  Biso   1.000  C
  C68      1.0000 0.71070  0.13710  0.67600  Biso   1.000  C
  H45      1.0000 0.21490  0.31010  0.20700  Biso   1.000  H
  H46      1.0000 0.28510  0.81010  0.29300  Biso   1.000  H
  H47      1.0000 0.78510  0.68990  0.79300  Biso   1.000  H
  H48      1.0000 0.71490  0.18990  0.70700  Biso   1.000  H
  C69      1.0000 0.37630  0.48580  0.06000  Biso   1.000  C
  C70      1.0000 0.12370  0.98580  0.44000  Biso   1.000  C
  C71      1.0000 0.62370  0.51420  0.94000  Biso   1.000  C
  C72      1.0000 0.87630  0.01420  0.56000  Biso   1.000  C
  Cu1      1.0000 0.61821  0.47341  0.09595  Biso   1.000  Cu
  Cu2      1.0000 0.88179  0.97341  0.40405  Biso   1.000  Cu
  Cu3      1.0000 0.38179  0.52659  0.90405  Biso   1.000  Cu
  Cu4      1.0000 0.11821  0.02659  0.59595  Biso   1.000  Cu
  N1       1.0000 0.64080  0.33390  0.12630  Biso   1.000  N
  N2       1.0000 0.85920  0.83390  0.37370  Biso   1.000  N
  N3       1.0000 0.35920  0.66610  0.87370  Biso   1.000  N
  N4       1.0000 0.14080  0.16610  0.62630  Biso   1.000  N
  N5       1.0000 0.59120  0.61210  0.11400  Biso   1.000  N
  N6       1.0000 0.90880  0.11210  0.38600  Biso   1.000  N
  N7       1.0000 0.40880  0.38790  0.88600  Biso   1.000  N
  N8       1.0000 0.09120  0.88790  0.61400  Biso   1.000  N
  N9       1.0000 0.50920  0.92860  0.23730  Biso   1.000  N
  N10      1.0000 0.99080  0.42860  0.26270  Biso   1.000  N
  N11      1.0000 0.49080  0.07140  0.76270  Biso   1.000  N
  N12      1.0000 0.00920  0.57140  0.73730  Biso   1.000  N
  N13      1.0000 0.52360  0.03070  0.23930  Biso   1.000  N
  N14      1.0000 0.97640  0.53070  0.26070  Biso   1.000  N
  N15      1.0000 0.47640  0.96930  0.76070  Biso   1.000  N
  N16      1.0000 0.02360  0.46930  0.73930  Biso   1.000  N
  N17      1.0000 0.12730  0.42150  0.16460  Biso   1.000  N
  N18      1.0000 0.37270  0.92150  0.33540  Biso   1.000  N
  N19      1.0000 0.87270  0.57850  0.83540  Biso   1.000  N
  N20      1.0000 0.62730  0.07850  0.66460  Biso   1.000  N
  H49      1.0000 0.06450  0.40710  0.18480  Biso   1.000  H
  H50      1.0000 0.43550  0.90710  0.31520  Biso   1.000  H
  H51      1.0000 0.93550  0.59290  0.81520  Biso   1.000  H
  H52      1.0000 0.56450  0.09290  0.68480  Biso   1.000  H
