data_image0
_cell_length_a       15.2793
_cell_length_b       19.3066
_cell_length_c       20.7718
_cell_angle_alpha    90
_cell_angle_beta     99.01
_cell_angle_gamma    90

_symmetry_space_group_name_H-M    "P 1"
_symmetry_int_tables_number       1

loop_
  _symmetry_equiv_pos_as_xyz
  'x, y, z'

loop_
  _atom_site_label
  _atom_site_occupancy
  _atom_site_fract_x
  _atom_site_fract_y
  _atom_site_fract_z
  _atom_site_thermal_displace_type
  _atom_site_B_iso_or_equiv
  _atom_site_type_symbol
  Cu1      1.0000 0.32109  0.46289  0.23699  Biso   1.000  Cu
  Cu2      1.0000 0.67891  0.96289  0.26301  Biso   1.000  Cu
  Cu3      1.0000 0.67891  0.53711  0.76301  Biso   1.000  Cu
  Cu4      1.0000 0.32109  0.03711  0.73699  Biso   1.000  Cu
  Cu5      1.0000 0.45688  0.54069  0.16854  Biso   1.000  Cu
  Cu6      1.0000 0.54312  0.04069  0.33146  Biso   1.000  Cu
  Cu7      1.0000 0.54312  0.45931  0.83146  Biso   1.000  Cu
  Cu8      1.0000 0.45688  0.95931  0.66854  Biso   1.000  Cu
  C1       1.0000 0.34890  0.10350  0.87310  Biso   1.000  C
  C2       1.0000 0.65110  0.60350  0.62690  Biso   1.000  C
  C3       1.0000 0.65110  0.89650  0.12690  Biso   1.000  C
  C4       1.0000 0.34890  0.39650  0.37310  Biso   1.000  C
  H1       1.0000 0.36530  0.05830  0.88490  Biso   1.000  H
  H2       1.0000 0.63470  0.55830  0.61510  Biso   1.000  H
  H3       1.0000 0.63470  0.94170  0.11510  Biso   1.000  H
  H4       1.0000 0.36530  0.44170  0.38490  Biso   1.000  H
  C5       1.0000 0.34690  0.15250  0.92070  Biso   1.000  C
  C6       1.0000 0.65310  0.65250  0.57930  Biso   1.000  C
  C7       1.0000 0.65310  0.84750  0.07930  Biso   1.000  C
  C8       1.0000 0.34690  0.34750  0.42070  Biso   1.000  C
  H5       1.0000 0.35470  0.13820  0.96400  Biso   1.000  H
  H6       1.0000 0.64530  0.63820  0.53600  Biso   1.000  H
  H7       1.0000 0.64530  0.86180  0.03600  Biso   1.000  H
  H8       1.0000 0.35470  0.36180  0.46400  Biso   1.000  H
  C9       1.0000 0.33500  0.21590  0.90860  Biso   1.000  C
  C10      1.0000 0.66500  0.71590  0.59140  Biso   1.000  C
  C11      1.0000 0.66500  0.78410  0.09140  Biso   1.000  C
  C12      1.0000 0.33500  0.28410  0.40860  Biso   1.000  C
  C13      1.0000 0.31580  0.23600  0.83730  Biso   1.000  C
  C14      1.0000 0.68420  0.73600  0.66270  Biso   1.000  C
  C15      1.0000 0.68420  0.76400  0.16270  Biso   1.000  C
  C16      1.0000 0.31580  0.26400  0.33730  Biso   1.000  C
  H9       1.0000 0.30680  0.28200  0.82480  Biso   1.000  H
  H10      1.0000 0.69320  0.78200  0.67520  Biso   1.000  H
  H11      1.0000 0.69320  0.71800  0.17520  Biso   1.000  H
  H12      1.0000 0.30680  0.21800  0.32480  Biso   1.000  H
  C17      1.0000 0.31240  0.18800  0.79510  Biso   1.000  C
  C18      1.0000 0.68760  0.68800  0.70490  Biso   1.000  C
  C19      1.0000 0.68760  0.81200  0.20490  Biso   1.000  C
  C20      1.0000 0.31240  0.31200  0.29510  Biso   1.000  C
  H13      1.0000 0.29870  0.20030  0.75140  Biso   1.000  H
  H14      1.0000 0.70130  0.70030  0.74860  Biso   1.000  H
  H15      1.0000 0.70130  0.79970  0.24860  Biso   1.000  H
  H16      1.0000 0.29870  0.29970  0.25140  Biso   1.000  H
  C21      1.0000 0.33400  0.27640  0.96290  Biso   1.000  C
  C22      1.0000 0.66600  0.77640  0.53710  Biso   1.000  C
  C23      1.0000 0.66600  0.72360  0.03710  Biso   1.000  C
  C24      1.0000 0.33400  0.22360  0.46290  Biso   1.000  C
  C25      1.0000 0.34030  0.25350  0.02390  Biso   1.000  C
  C26      1.0000 0.65970  0.75350  0.47610  Biso   1.000  C
  C27      1.0000 0.65970  0.74650  0.97610  Biso   1.000  C
  C28      1.0000 0.34030  0.24650  0.52390  Biso   1.000  C
  H17      1.0000 0.34590  0.20650  0.03310  Biso   1.000  H
  H18      1.0000 0.65410  0.70650  0.46690  Biso   1.000  H
  H19      1.0000 0.65410  0.79350  0.96690  Biso   1.000  H
  H20      1.0000 0.34590  0.29350  0.53310  Biso   1.000  H
  C29      1.0000 0.33830  0.30010  0.07200  Biso   1.000  C
  C30      1.0000 0.66170  0.80010  0.42800  Biso   1.000  C
  C31      1.0000 0.66170  0.69990  0.92800  Biso   1.000  C
  C32      1.0000 0.33830  0.19990  0.57200  Biso   1.000  C
  H21      1.0000 0.34300  0.28570  0.11510  Biso   1.000  H
  H22      1.0000 0.65700  0.78570  0.38490  Biso   1.000  H
  H23      1.0000 0.65700  0.71430  0.88490  Biso   1.000  H
  H24      1.0000 0.34300  0.21430  0.61510  Biso   1.000  H
  C33      1.0000 0.32840  0.37460  0.05510  Biso   1.000  C
  C34      1.0000 0.67160  0.87460  0.44490  Biso   1.000  C
  C35      1.0000 0.67160  0.62540  0.94490  Biso   1.000  C
  C36      1.0000 0.32840  0.12540  0.55510  Biso   1.000  C
  C37      1.0000 0.33910  0.39060  0.99860  Biso   1.000  C
  C38      1.0000 0.66090  0.89060  0.50140  Biso   1.000  C
  C39      1.0000 0.66090  0.60940  0.00140  Biso   1.000  C
  C40      1.0000 0.33910  0.10940  0.49860  Biso   1.000  C
  H25      1.0000 0.35380  0.43650  0.99190  Biso   1.000  H
  H26      1.0000 0.64620  0.93650  0.50810  Biso   1.000  H
  H27      1.0000 0.64620  0.56350  0.00810  Biso   1.000  H
  H28      1.0000 0.35380  0.06350  0.49190  Biso   1.000  H
  C41      1.0000 0.33100  0.34560  0.94280  Biso   1.000  C
  C42      1.0000 0.66900  0.84560  0.55720  Biso   1.000  C
  C43      1.0000 0.66900  0.65440  0.05720  Biso   1.000  C
  C44      1.0000 0.33100  0.15440  0.44280  Biso   1.000  C
  H29      1.0000 0.32480  0.36040  0.89960  Biso   1.000  H
  H30      1.0000 0.67520  0.86040  0.60040  Biso   1.000  H
  H31      1.0000 0.67520  0.63960  0.10040  Biso   1.000  H
  H32      1.0000 0.32480  0.13960  0.39960  Biso   1.000  H
  C45      1.0000 0.13380  0.42700  0.20310  Biso   1.000  C
  C46      1.0000 0.86620  0.92700  0.29690  Biso   1.000  C
  C47      1.0000 0.86620  0.57300  0.79690  Biso   1.000  C
  C48      1.0000 0.13380  0.07300  0.70310  Biso   1.000  C
  H33      1.0000 0.15870  0.38440  0.19580  Biso   1.000  H
  H34      1.0000 0.84130  0.88440  0.30420  Biso   1.000  H
  H35      1.0000 0.84130  0.61560  0.80420  Biso   1.000  H
  H36      1.0000 0.15870  0.11560  0.69580  Biso   1.000  H
  C49      1.0000 0.03950  0.43180  0.19260  Biso   1.000  C
  C50      1.0000 0.96050  0.93180  0.30740  Biso   1.000  C
  C51      1.0000 0.96050  0.56820  0.80740  Biso   1.000  C
  C52      1.0000 0.03950  0.06820  0.69260  Biso   1.000  C
  H37      1.0000 0.00350  0.39390  0.17970  Biso   1.000  H
  H38      1.0000 0.99650  0.89390  0.32030  Biso   1.000  H
  H39      1.0000 0.99650  0.60610  0.82030  Biso   1.000  H
  H40      1.0000 0.00350  0.10610  0.67970  Biso   1.000  H
  C53      1.0000 0.00430  0.49740  0.20280  Biso   1.000  C
  C54      1.0000 0.99570  0.99740  0.29720  Biso   1.000  C
  C55      1.0000 0.99570  0.50260  0.79720  Biso   1.000  C
  C56      1.0000 0.00430  0.00260  0.70280  Biso   1.000  C
  C57      1.0000 0.06050  0.54840  0.22390  Biso   1.000  C
  C58      1.0000 0.93950  0.04840  0.27610  Biso   1.000  C
  C59      1.0000 0.93950  0.45160  0.77610  Biso   1.000  C
  C60      1.0000 0.06050  0.95160  0.72390  Biso   1.000  C
  H41      1.0000 0.03830  0.59130  0.23380  Biso   1.000  H
  H42      1.0000 0.96170  0.09130  0.26620  Biso   1.000  H
  H43      1.0000 0.96170  0.40870  0.76620  Biso   1.000  H
  H44      1.0000 0.03830  0.90870  0.73380  Biso   1.000  H
  C61      1.0000 0.15160  0.53870  0.23140  Biso   1.000  C
  C62      1.0000 0.84840  0.03870  0.26860  Biso   1.000  C
  C63      1.0000 0.84840  0.46130  0.76860  Biso   1.000  C
  C64      1.0000 0.15160  0.96130  0.73140  Biso   1.000  C
  H45      1.0000 0.18850  0.57640  0.24320  Biso   1.000  H
  H46      1.0000 0.81150  0.07640  0.25680  Biso   1.000  H
  H47      1.0000 0.81150  0.42360  0.75680  Biso   1.000  H
  H48      1.0000 0.18850  0.92360  0.74320  Biso   1.000  H
  C65      1.0000 0.90540  0.50430  0.19490  Biso   1.000  C
  C66      1.0000 0.09460  0.00430  0.30510  Biso   1.000  C
  C67      1.0000 0.09460  0.49570  0.80510  Biso   1.000  C
  C68      1.0000 0.90540  0.99570  0.69490  Biso   1.000  C
  C69      1.0000 0.85240  0.45840  0.15330  Biso   1.000  C
  C70      1.0000 0.14760  0.95840  0.34670  Biso   1.000  C
  C71      1.0000 0.14760  0.54160  0.84670  Biso   1.000  C
  C72      1.0000 0.85240  0.04160  0.65330  Biso   1.000  C
  H49      1.0000 0.87910  0.42330  0.13250  Biso   1.000  H
  H50      1.0000 0.12090  0.92330  0.36750  Biso   1.000  H
  H51      1.0000 0.12090  0.57670  0.86750  Biso   1.000  H
  H52      1.0000 0.87910  0.07670  0.63250  Biso   1.000  H
  C73      1.0000 0.76360  0.46430  0.14280  Biso   1.000  C
  C74      1.0000 0.23640  0.96430  0.35720  Biso   1.000  C
  C75      1.0000 0.23640  0.53570  0.85720  Biso   1.000  C
  C76      1.0000 0.76360  0.03570  0.64280  Biso   1.000  C
  H53      1.0000 0.72980  0.43400  0.11430  Biso   1.000  H
  H54      1.0000 0.27020  0.93400  0.38570  Biso   1.000  H
  H55      1.0000 0.27020  0.56600  0.88570  Biso   1.000  H
  H56      1.0000 0.72980  0.06600  0.61430  Biso   1.000  H
  C77      1.0000 0.72300  0.51410  0.17350  Biso   1.000  C
  C78      1.0000 0.27700  0.01410  0.32650  Biso   1.000  C
  C79      1.0000 0.27700  0.48590  0.82650  Biso   1.000  C
  C80      1.0000 0.72300  0.98590  0.67350  Biso   1.000  C
  C81      1.0000 0.77370  0.56170  0.21560  Biso   1.000  C
  C82      1.0000 0.22630  0.06170  0.28440  Biso   1.000  C
  C83      1.0000 0.22630  0.43830  0.78440  Biso   1.000  C
  C84      1.0000 0.77370  0.93830  0.71560  Biso   1.000  C
  H57      1.0000 0.74620  0.59660  0.23600  Biso   1.000  H
  H58      1.0000 0.25380  0.09660  0.26400  Biso   1.000  H
  H59      1.0000 0.25380  0.40340  0.76400  Biso   1.000  H
  H60      1.0000 0.74620  0.90340  0.73600  Biso   1.000  H
  C85      1.0000 0.86790  0.55540  0.22600  Biso   1.000  C
  C86      1.0000 0.13210  0.05540  0.27400  Biso   1.000  C
  C87      1.0000 0.13210  0.44460  0.77400  Biso   1.000  C
  C88      1.0000 0.86790  0.94460  0.72600  Biso   1.000  C
  H61      1.0000 0.90300  0.58580  0.25370  Biso   1.000  H
  H62      1.0000 0.09700  0.08580  0.24630  Biso   1.000  H
  H63      1.0000 0.09700  0.41420  0.74630  Biso   1.000  H
  H64      1.0000 0.90300  0.91420  0.75370  Biso   1.000  H
  C89      1.0000 0.61560  0.51540  0.15780  Biso   1.000  C
  C90      1.0000 0.38440  0.01540  0.34220  Biso   1.000  C
  C91      1.0000 0.38440  0.48460  0.84220  Biso   1.000  C
  C92      1.0000 0.61560  0.98460  0.65780  Biso   1.000  C
  O1       1.0000 0.57720  0.47880  0.11660  Biso   1.000  O
  O2       1.0000 0.42280  0.97880  0.38340  Biso   1.000  O
  O3       1.0000 0.42280  0.52120  0.88340  Biso   1.000  O
  O4       1.0000 0.57720  0.02120  0.61660  Biso   1.000  O
  O5       1.0000 0.58460  0.55530  0.19140  Biso   1.000  O
  O6       1.0000 0.41540  0.05530  0.30860  Biso   1.000  O
  O7       1.0000 0.41540  0.44470  0.80860  Biso   1.000  O
  O8       1.0000 0.58460  0.94470  0.69140  Biso   1.000  O
  C93      1.0000 0.33190  0.42216  0.11241  Biso   1.000  C
  C94      1.0000 0.66810  0.92216  0.38759  Biso   1.000  C
  C95      1.0000 0.66810  0.57784  0.88759  Biso   1.000  C
  C96      1.0000 0.33190  0.07784  0.61241  Biso   1.000  C
  O9       1.0000 0.31111  0.39769  0.16472  Biso   1.000  O
  O10      1.0000 0.68889  0.89769  0.33528  Biso   1.000  O
  O11      1.0000 0.68889  0.60231  0.83528  Biso   1.000  O
  O12      1.0000 0.31111  0.10231  0.66472  Biso   1.000  O
  O13      1.0000 0.35560  0.48330  0.10495  Biso   1.000  O
  O14      1.0000 0.64440  0.98330  0.39505  Biso   1.000  O
  O15      1.0000 0.64440  0.51670  0.89505  Biso   1.000  O
  O16      1.0000 0.35560  0.01670  0.60495  Biso   1.000  O
  C97      1.0000 0.43980  0.90717  0.53638  Biso   1.000  C
  C98      1.0000 0.56020  0.40717  0.96362  Biso   1.000  C
  C99      1.0000 0.56020  0.09283  0.46362  Biso   1.000  C
  C100     1.0000 0.43980  0.59283  0.03638  Biso   1.000  C
  H65      1.0000 0.44410  0.95400  0.52710  Biso   1.000  H
  H66      1.0000 0.55590  0.45400  0.97290  Biso   1.000  H
  H67      1.0000 0.55590  0.04600  0.47290  Biso   1.000  H
  H68      1.0000 0.44410  0.54600  0.02710  Biso   1.000  H
  C101     1.0000 0.43000  0.86126  0.48596  Biso   1.000  C
  C102     1.0000 0.57000  0.36126  0.01404  Biso   1.000  C
  C103     1.0000 0.57000  0.13874  0.51404  Biso   1.000  C
  C104     1.0000 0.43000  0.63874  0.98596  Biso   1.000  C
  H69      1.0000 0.42620  0.87720  0.44340  Biso   1.000  H
  H70      1.0000 0.57380  0.37720  0.05660  Biso   1.000  H
  H71      1.0000 0.57380  0.12280  0.55660  Biso   1.000  H
  H72      1.0000 0.42620  0.62280  0.94340  Biso   1.000  H
  C105     1.0000 0.42590  0.79014  0.49804  Biso   1.000  C
  C106     1.0000 0.57410  0.29014  0.00196  Biso   1.000  C
  C107     1.0000 0.57410  0.20986  0.50196  Biso   1.000  C
  C108     1.0000 0.42590  0.70986  0.99804  Biso   1.000  C
  C109     1.0000 0.43260  0.77113  0.56260  Biso   1.000  C
  C110     1.0000 0.56740  0.27113  0.93740  Biso   1.000  C
  C111     1.0000 0.56740  0.22887  0.43740  Biso   1.000  C
  C112     1.0000 0.43260  0.72887  0.06260  Biso   1.000  C
  H73      1.0000 0.43260  0.72440  0.57350  Biso   1.000  H
  H74      1.0000 0.56740  0.22440  0.92650  Biso   1.000  H
  H75      1.0000 0.56740  0.27560  0.42650  Biso   1.000  H
  H76      1.0000 0.43260  0.77560  0.07350  Biso   1.000  H
  C113     1.0000 0.43950  0.82017  0.61130  Biso   1.000  C
  C114     1.0000 0.56050  0.32017  0.88870  Biso   1.000  C
  C115     1.0000 0.56050  0.17983  0.38870  Biso   1.000  C
  C116     1.0000 0.43950  0.67983  0.11130  Biso   1.000  C
  H77      1.0000 0.44140  0.80570  0.65420  Biso   1.000  H
  H78      1.0000 0.55860  0.30570  0.84580  Biso   1.000  H
  H79      1.0000 0.55860  0.19430  0.34580  Biso   1.000  H
  H80      1.0000 0.44140  0.69430  0.15420  Biso   1.000  H
  C117     1.0000 0.41200  0.74026  0.44489  Biso   1.000  C
  C118     1.0000 0.58800  0.24026  0.05511  Biso   1.000  C
  C119     1.0000 0.58800  0.25974  0.55511  Biso   1.000  C
  C120     1.0000 0.41200  0.75974  0.94489  Biso   1.000  C
  C121     1.0000 0.43830  0.75376  0.38471  Biso   1.000  C
  C122     1.0000 0.56170  0.25376  0.11529  Biso   1.000  C
  C123     1.0000 0.56170  0.24624  0.61529  Biso   1.000  C
  C124     1.0000 0.43830  0.74624  0.88471  Biso   1.000  C
  H81      1.0000 0.46610  0.79560  0.37880  Biso   1.000  H
  H82      1.0000 0.53390  0.29560  0.12120  Biso   1.000  H
  H83      1.0000 0.53390  0.20440  0.62120  Biso   1.000  H
  H84      1.0000 0.46610  0.70440  0.87880  Biso   1.000  H
  C125     1.0000 0.42470  0.70746  0.33401  Biso   1.000  C
  C126     1.0000 0.57530  0.20746  0.16599  Biso   1.000  C
  C127     1.0000 0.57530  0.29254  0.66599  Biso   1.000  C
  C128     1.0000 0.42470  0.79254  0.83401  Biso   1.000  C
  H85      1.0000 0.44240  0.71900  0.29450  Biso   1.000  H
  H86      1.0000 0.55760  0.21900  0.20550  Biso   1.000  H
  H87      1.0000 0.55760  0.28100  0.70550  Biso   1.000  H
  H88      1.0000 0.44240  0.78100  0.79450  Biso   1.000  H
  C129     1.0000 0.38670  0.64661  0.34026  Biso   1.000  C
  C130     1.0000 0.61330  0.14661  0.15974  Biso   1.000  C
  C131     1.0000 0.61330  0.35339  0.65974  Biso   1.000  C
  C132     1.0000 0.38670  0.85339  0.84026  Biso   1.000  C
  C133     1.0000 0.35920  0.63059  0.39996  Biso   1.000  C
  C134     1.0000 0.64080  0.13059  0.10004  Biso   1.000  C
  C135     1.0000 0.64080  0.36941  0.60004  Biso   1.000  C
  C136     1.0000 0.35920  0.86941  0.89996  Biso   1.000  C
  H89      1.0000 0.33210  0.58830  0.40540  Biso   1.000  H
  H90      1.0000 0.66790  0.08830  0.09460  Biso   1.000  H
  H91      1.0000 0.66790  0.41170  0.59460  Biso   1.000  H
  H92      1.0000 0.33210  0.91170  0.90540  Biso   1.000  H
  C137     1.0000 0.37250  0.67833  0.45135  Biso   1.000  C
  C138     1.0000 0.62750  0.17833  0.04865  Biso   1.000  C
  C139     1.0000 0.62750  0.32167  0.54865  Biso   1.000  C
  C140     1.0000 0.37250  0.82167  0.95135  Biso   1.000  C
  H93      1.0000 0.35380  0.66730  0.49060  Biso   1.000  H
  H94      1.0000 0.64620  0.16730  0.00940  Biso   1.000  H
  H95      1.0000 0.64620  0.33270  0.50940  Biso   1.000  H
  H96      1.0000 0.35380  0.83270  0.99060  Biso   1.000  H
  C141     1.0000 0.37130  0.59362  0.28645  Biso   1.000  C
  C142     1.0000 0.62870  0.09362  0.21355  Biso   1.000  C
  C143     1.0000 0.62870  0.40638  0.71355  Biso   1.000  C
  C144     1.0000 0.37130  0.90638  0.78645  Biso   1.000  C
  O17      1.0000 0.39497  0.60924  0.23268  Biso   1.000  O
  O18      1.0000 0.60503  0.10924  0.26732  Biso   1.000  O
  O19      1.0000 0.60503  0.39076  0.76732  Biso   1.000  O
  O20      1.0000 0.39497  0.89076  0.73268  Biso   1.000  O
  O21      1.0000 0.33508  0.53741  0.29889  Biso   1.000  O
  O22      1.0000 0.66492  0.03741  0.20111  Biso   1.000  O
  O23      1.0000 0.66492  0.46259  0.70111  Biso   1.000  O
  O24      1.0000 0.33508  0.96259  0.79889  Biso   1.000  O
  N1       1.0000 0.32741  0.12022  0.80920  Biso   1.000  N
  N2       1.0000 0.67259  0.62022  0.69080  Biso   1.000  N
  N3       1.0000 0.67259  0.87978  0.19080  Biso   1.000  N
  N4       1.0000 0.32741  0.37978  0.30920  Biso   1.000  N
  N5       1.0000 0.18789  0.47818  0.22237  Biso   1.000  N
  N6       1.0000 0.81211  0.97818  0.27763  Biso   1.000  N
  N7       1.0000 0.81211  0.52182  0.77763  Biso   1.000  N
  N8       1.0000 0.18789  0.02182  0.72237  Biso   1.000  N
  N9       1.0000 0.45375  0.46901  0.23447  Biso   1.000  N
  N10      1.0000 0.54625  0.96901  0.26553  Biso   1.000  N
  N11      1.0000 0.54625  0.53099  0.76553  Biso   1.000  N
  N12      1.0000 0.45375  0.03099  0.73447  Biso   1.000  N
  N13      1.0000 0.49770  0.41865  0.23769  Biso   1.000  N
  N14      1.0000 0.50230  0.91865  0.26231  Biso   1.000  N
  N15      1.0000 0.50230  0.58135  0.76231  Biso   1.000  N
  N16      1.0000 0.49770  0.08135  0.73769  Biso   1.000  N
  N17      1.0000 0.53860  0.37000  0.24050  Biso   1.000  N
  N18      1.0000 0.46140  0.87000  0.25950  Biso   1.000  N
  N19      1.0000 0.46140  0.63000  0.75950  Biso   1.000  N
  N20      1.0000 0.53860  0.13000  0.74050  Biso   1.000  N
  N21      1.0000 0.44342  0.88806  0.59878  Biso   1.000  N
  N22      1.0000 0.55658  0.38806  0.90122  Biso   1.000  N
  N23      1.0000 0.55658  0.11194  0.40122  Biso   1.000  N
  N24      1.0000 0.44342  0.61194  0.09878  Biso   1.000  N
  C145     1.0000 0.30700  0.10730  0.86870  Biso   1.000  C
  C146     1.0000 0.69300  0.60730  0.63130  Biso   1.000  C
  C147     1.0000 0.69300  0.89270  0.13130  Biso   1.000  C
  C148     1.0000 0.30700  0.39270  0.36870  Biso   1.000  C
  C149     1.0000 0.33650  0.39230  0.99280  Biso   1.000  C
  C150     1.0000 0.66350  0.89230  0.50720  Biso   1.000  C
  C151     1.0000 0.66350  0.60770  0.00720  Biso   1.000  C
  C152     1.0000 0.33650  0.10770  0.49280  Biso   1.000  C
  C153     1.0000 0.34600  0.33900  0.95120  Biso   1.000  C
  C154     1.0000 0.65400  0.83900  0.54880  Biso   1.000  C
  C155     1.0000 0.65400  0.66100  0.04880  Biso   1.000  C
  C156     1.0000 0.34600  0.16100  0.45120  Biso   1.000  C
  C157     1.0000 0.13410  0.44670  0.17040  Biso   1.000  C
  C158     1.0000 0.86590  0.94670  0.32960  Biso   1.000  C
  C159     1.0000 0.86590  0.55330  0.82960  Biso   1.000  C
  C160     1.0000 0.13410  0.05330  0.67040  Biso   1.000  C
  C161     1.0000 0.04630  0.45290  0.16240  Biso   1.000  C
  C162     1.0000 0.95370  0.95290  0.33760  Biso   1.000  C
  C163     1.0000 0.95370  0.54710  0.83760  Biso   1.000  C
  C164     1.0000 0.04630  0.04710  0.66240  Biso   1.000  C
  C165     1.0000 0.00260  0.48210  0.21100  Biso   1.000  C
  C166     1.0000 0.99740  0.98210  0.28900  Biso   1.000  C
  C167     1.0000 0.99740  0.51790  0.78900  Biso   1.000  C
  C168     1.0000 0.00260  0.01790  0.71100  Biso   1.000  C
  C169     1.0000 0.05580  0.51110  0.26170  Biso   1.000  C
  C170     1.0000 0.94420  0.01110  0.23830  Biso   1.000  C
  C171     1.0000 0.94420  0.48890  0.73830  Biso   1.000  C
  C172     1.0000 0.05580  0.98890  0.76170  Biso   1.000  C
  C173     1.0000 0.14630  0.51150  0.26480  Biso   1.000  C
  C174     1.0000 0.85370  0.01150  0.23520  Biso   1.000  C
  C175     1.0000 0.85370  0.48850  0.73520  Biso   1.000  C
  C176     1.0000 0.14630  0.98850  0.76480  Biso   1.000  C
  C177     1.0000 0.90300  0.49530  0.19500  Biso   1.000  C
  C178     1.0000 0.09700  0.99530  0.30500  Biso   1.000  C
  C179     1.0000 0.09700  0.50470  0.80500  Biso   1.000  C
  C180     1.0000 0.90300  0.00470  0.69500  Biso   1.000  C
  C181     1.0000 0.85200  0.47000  0.14220  Biso   1.000  C
  C182     1.0000 0.14800  0.97000  0.35780  Biso   1.000  C
  C183     1.0000 0.14800  0.53000  0.85780  Biso   1.000  C
  C184     1.0000 0.85200  0.03000  0.64220  Biso   1.000  C
  C185     1.0000 0.30230  0.15560  0.91700  Biso   1.000  C
  C186     1.0000 0.69770  0.65560  0.58300  Biso   1.000  C
  C187     1.0000 0.69770  0.84440  0.08300  Biso   1.000  C
  C188     1.0000 0.30230  0.34440  0.41700  Biso   1.000  C
  C189     1.0000 0.76100  0.48100  0.13100  Biso   1.000  C
  C190     1.0000 0.23900  0.98100  0.36900  Biso   1.000  C
  C191     1.0000 0.23900  0.51900  0.86900  Biso   1.000  C
  C192     1.0000 0.76100  0.01900  0.63100  Biso   1.000  C
  C193     1.0000 0.72300  0.51900  0.17700  Biso   1.000  C
  C194     1.0000 0.27700  0.01900  0.32300  Biso   1.000  C
  C195     1.0000 0.27700  0.48100  0.82300  Biso   1.000  C
  C196     1.0000 0.72300  0.98100  0.67700  Biso   1.000  C
  C197     1.0000 0.77500  0.54330  0.23050  Biso   1.000  C
  C198     1.0000 0.22500  0.04330  0.26950  Biso   1.000  C
  C199     1.0000 0.22500  0.45670  0.76950  Biso   1.000  C
  C200     1.0000 0.77500  0.95670  0.73050  Biso   1.000  C
  C201     1.0000 0.86100  0.53420  0.23890  Biso   1.000  C
  C202     1.0000 0.13900  0.03420  0.26110  Biso   1.000  C
  C203     1.0000 0.13900  0.46580  0.76110  Biso   1.000  C
  C204     1.0000 0.86100  0.96580  0.73890  Biso   1.000  C
  C205     1.0000 0.62990  0.54460  0.18260  Biso   1.000  C
  C206     1.0000 0.37010  0.04460  0.31740  Biso   1.000  C
  C207     1.0000 0.37010  0.45540  0.81740  Biso   1.000  C
  C208     1.0000 0.62990  0.95540  0.68260  Biso   1.000  C
  C209     1.0000 0.32000  0.23040  0.90220  Biso   1.000  C
  C210     1.0000 0.68000  0.73040  0.59780  Biso   1.000  C
  C211     1.0000 0.68000  0.76960  0.09780  Biso   1.000  C
  C212     1.0000 0.32000  0.26960  0.40220  Biso   1.000  C
  C213     1.0000 0.34840  0.23980  0.84640  Biso   1.000  C
  C214     1.0000 0.65160  0.73980  0.65360  Biso   1.000  C
  C215     1.0000 0.65160  0.76020  0.15360  Biso   1.000  C
  C216     1.0000 0.34840  0.26020  0.34640  Biso   1.000  C
  C217     1.0000 0.34640  0.18700  0.79590  Biso   1.000  C
  C218     1.0000 0.65360  0.68700  0.70410  Biso   1.000  C
  C219     1.0000 0.65360  0.81300  0.20410  Biso   1.000  C
  C220     1.0000 0.34640  0.31300  0.29590  Biso   1.000  C
  C221     1.0000 0.31900  0.27000  0.95070  Biso   1.000  C
  C222     1.0000 0.68100  0.77000  0.54930  Biso   1.000  C
  C223     1.0000 0.68100  0.73000  0.04930  Biso   1.000  C
  C224     1.0000 0.31900  0.23000  0.45070  Biso   1.000  C
  C225     1.0000 0.29600  0.25420  0.01500  Biso   1.000  C
  C226     1.0000 0.70400  0.75420  0.48500  Biso   1.000  C
  C227     1.0000 0.70400  0.74580  0.98500  Biso   1.000  C
  C228     1.0000 0.29600  0.24580  0.51500  Biso   1.000  C
  C229     1.0000 0.29770  0.30240  0.06690  Biso   1.000  C
  C230     1.0000 0.70230  0.80240  0.43310  Biso   1.000  C
  C231     1.0000 0.70230  0.69760  0.93310  Biso   1.000  C
  C232     1.0000 0.29770  0.19760  0.56690  Biso   1.000  C
  C233     1.0000 0.33000  0.36590  0.06010  Biso   1.000  C
  C234     1.0000 0.67000  0.86590  0.43990  Biso   1.000  C
  C235     1.0000 0.67000  0.63410  0.93990  Biso   1.000  C
  C236     1.0000 0.33000  0.13410  0.56010  Biso   1.000  C
  H97      1.0000 0.29490  0.06150  0.87820  Biso   1.000  H
  H98      1.0000 0.70510  0.56150  0.62180  Biso   1.000  H
  H99      1.0000 0.70510  0.93850  0.12180  Biso   1.000  H
  H100     1.0000 0.29490  0.43850  0.37820  Biso   1.000  H
  H101     1.0000 0.33460  0.43880  0.98120  Biso   1.000  H
  H102     1.0000 0.66540  0.93880  0.51880  Biso   1.000  H
  H103     1.0000 0.66540  0.56120  0.01880  Biso   1.000  H
  H104     1.0000 0.33460  0.06120  0.48120  Biso   1.000  H
  H105     1.0000 0.37570  0.35120  0.91700  Biso   1.000  H
  H106     1.0000 0.62430  0.85120  0.58300  Biso   1.000  H
  H107     1.0000 0.62430  0.64880  0.08300  Biso   1.000  H
  H108     1.0000 0.37570  0.14880  0.41700  Biso   1.000  H
  H109     1.0000 0.16000  0.42070  0.14060  Biso   1.000  H
  H110     1.0000 0.84000  0.92070  0.35940  Biso   1.000  H
  H111     1.0000 0.84000  0.57930  0.85940  Biso   1.000  H
  H112     1.0000 0.16000  0.07930  0.64060  Biso   1.000  H
  H113     1.0000 0.01270  0.43770  0.12370  Biso   1.000  H
  H114     1.0000 0.98730  0.93770  0.37630  Biso   1.000  H
  H115     1.0000 0.98730  0.56230  0.87630  Biso   1.000  H
  H116     1.0000 0.01270  0.06230  0.62370  Biso   1.000  H
  H117     1.0000 0.03080  0.53120  0.29520  Biso   1.000  H
  H118     1.0000 0.96920  0.03120  0.20480  Biso   1.000  H
  H119     1.0000 0.96920  0.46880  0.70480  Biso   1.000  H
  H120     1.0000 0.03080  0.96880  0.79520  Biso   1.000  H
  H121     1.0000 0.18010  0.53640  0.29810  Biso   1.000  H
  H122     1.0000 0.81990  0.03640  0.20190  Biso   1.000  H
  H123     1.0000 0.81990  0.46360  0.70190  Biso   1.000  H
  H124     1.0000 0.18010  0.96360  0.79810  Biso   1.000  H
  H125     1.0000 0.87770  0.44470  0.11210  Biso   1.000  H
  H126     1.0000 0.12230  0.94470  0.38790  Biso   1.000  H
  H127     1.0000 0.12230  0.55530  0.88790  Biso   1.000  H
  H128     1.0000 0.87770  0.05530  0.61210  Biso   1.000  H
  H129     1.0000 0.28860  0.14250  0.95730  Biso   1.000  H
  H130     1.0000 0.71140  0.64250  0.54270  Biso   1.000  H
  H131     1.0000 0.71140  0.85750  0.04270  Biso   1.000  H
  H132     1.0000 0.28860  0.35750  0.45730  Biso   1.000  H
  H133     1.0000 0.72590  0.46270  0.09410  Biso   1.000  H
  H134     1.0000 0.27410  0.96270  0.40590  Biso   1.000  H
  H135     1.0000 0.27410  0.53730  0.90590  Biso   1.000  H
  H136     1.0000 0.72590  0.03730  0.59410  Biso   1.000  H
  H137     1.0000 0.75000  0.56710  0.26200  Biso   1.000  H
  H138     1.0000 0.25000  0.06710  0.23800  Biso   1.000  H
  H139     1.0000 0.25000  0.43290  0.73800  Biso   1.000  H
  H140     1.0000 0.75000  0.93290  0.76200  Biso   1.000  H
  H141     1.0000 0.89610  0.55410  0.27490  Biso   1.000  H
  H142     1.0000 0.10390  0.05410  0.22510  Biso   1.000  H
  H143     1.0000 0.10390  0.44590  0.72510  Biso   1.000  H
  H144     1.0000 0.89610  0.94590  0.77490  Biso   1.000  H
  H145     1.0000 0.37130  0.28310  0.83850  Biso   1.000  H
  H146     1.0000 0.62870  0.78310  0.66150  Biso   1.000  H
  H147     1.0000 0.62870  0.71690  0.16150  Biso   1.000  H
  H148     1.0000 0.37130  0.21690  0.33850  Biso   1.000  H
  H149     1.0000 0.35800  0.19910  0.75480  Biso   1.000  H
  H150     1.0000 0.64200  0.69910  0.74520  Biso   1.000  H
  H151     1.0000 0.64200  0.80090  0.24520  Biso   1.000  H
  H152     1.0000 0.35800  0.30090  0.25480  Biso   1.000  H
  H153     1.0000 0.27860  0.20910  0.02240  Biso   1.000  H
  H154     1.0000 0.72140  0.70910  0.47760  Biso   1.000  H
  H155     1.0000 0.72140  0.79090  0.97760  Biso   1.000  H
  H156     1.0000 0.27860  0.29090  0.52240  Biso   1.000  H
  H157     1.0000 0.27680  0.28990  0.10490  Biso   1.000  H
  H158     1.0000 0.72320  0.78990  0.39510  Biso   1.000  H
  H159     1.0000 0.72320  0.71010  0.89510  Biso   1.000  H
  H160     1.0000 0.27680  0.21010  0.60490  Biso   1.000  H
  O25      1.0000 0.60180  0.59470  0.21750  Biso   1.000  O
  O26      1.0000 0.39820  0.09470  0.28250  Biso   1.000  O
  O27      1.0000 0.39820  0.40530  0.78250  Biso   1.000  O
  O28      1.0000 0.60180  0.90530  0.71750  Biso   1.000  O
  O29      1.0000 0.57320  0.50600  0.14560  Biso   1.000  O
  O30      1.0000 0.42680  0.00600  0.35440  Biso   1.000  O
  O31      1.0000 0.42680  0.49400  0.85440  Biso   1.000  O
  O32      1.0000 0.57320  0.99400  0.64560  Biso   1.000  O
