data_image0
_cell_length_a       13.6889
_cell_length_b       9.6898
_cell_length_c       14.3326
_cell_angle_alpha    90
_cell_angle_beta     90
_cell_angle_gamma    90

_symmetry_space_group_name_H-M    "P 1"
_symmetry_int_tables_number       1

loop_
  _symmetry_equiv_pos_as_xyz
  'x, y, z'

loop_
  _atom_site_label
  _atom_site_occupancy
  _atom_site_fract_x
  _atom_site_fract_y
  _atom_site_fract_z
  _atom_site_thermal_displace_type
  _atom_site_B_iso_or_equiv
  _atom_site_type_symbol
  C1       1.0000 0.54487  0.78240  0.41978  Biso   1.000  C
  C2       1.0000 0.95513  0.21760  0.91978  Biso   1.000  C
  C3       1.0000 0.45513  0.28240  0.08022  Biso   1.000  C
  C4       1.0000 0.04487  0.71760  0.58022  Biso   1.000  C
  C5       1.0000 0.45513  0.21760  0.58022  Biso   1.000  C
  C6       1.0000 0.04487  0.78240  0.08022  Biso   1.000  C
  C7       1.0000 0.54487  0.71760  0.91978  Biso   1.000  C
  C8       1.0000 0.95513  0.28240  0.41978  Biso   1.000  C
  C9       1.0000 0.50447  0.63980  0.42478  Biso   1.000  C
  C10      1.0000 0.99553  0.36020  0.92478  Biso   1.000  C
  C11      1.0000 0.49553  0.13980  0.07522  Biso   1.000  C
  C12      1.0000 0.00447  0.86020  0.57522  Biso   1.000  C
  C13      1.0000 0.49553  0.36020  0.57522  Biso   1.000  C
  C14      1.0000 0.00447  0.63980  0.07522  Biso   1.000  C
  C15      1.0000 0.50447  0.86020  0.92478  Biso   1.000  C
  C16      1.0000 0.99553  0.13980  0.42478  Biso   1.000  C
  H1       1.0000 0.55630  0.57250  0.41730  Biso   1.000  H
  H2       1.0000 0.94370  0.42750  0.91730  Biso   1.000  H
  H3       1.0000 0.44370  0.07250  0.08270  Biso   1.000  H
  H4       1.0000 0.05630  0.92750  0.58270  Biso   1.000  H
  H5       1.0000 0.44370  0.42750  0.58270  Biso   1.000  H
  H6       1.0000 0.05630  0.57250  0.08270  Biso   1.000  H
  H7       1.0000 0.55630  0.92750  0.91730  Biso   1.000  H
  H8       1.0000 0.94370  0.07250  0.41730  Biso   1.000  H
  H9       1.0000 0.47340  0.62460  0.48470  Biso   1.000  H
  H10      1.0000 0.02660  0.37540  0.98470  Biso   1.000  H
  H11      1.0000 0.52660  0.12460  0.01530  Biso   1.000  H
  H12      1.0000 0.97340  0.87540  0.51530  Biso   1.000  H
  H13      1.0000 0.52660  0.37540  0.51530  Biso   1.000  H
  H14      1.0000 0.97340  0.62460  0.01530  Biso   1.000  H
  H15      1.0000 0.47340  0.87540  0.98470  Biso   1.000  H
  H16      1.0000 0.02660  0.12460  0.48470  Biso   1.000  H
  C17      1.0000 0.35674  0.51950  0.36319  Biso   1.000  C
  C18      1.0000 0.14326  0.48050  0.86319  Biso   1.000  C
  C19      1.0000 0.64326  0.01950  0.13681  Biso   1.000  C
  C20      1.0000 0.85674  0.98050  0.63681  Biso   1.000  C
  C21      1.0000 0.64326  0.48050  0.63681  Biso   1.000  C
  C22      1.0000 0.85674  0.51950  0.13681  Biso   1.000  C
  C23      1.0000 0.35674  0.98050  0.86319  Biso   1.000  C
  C24      1.0000 0.14326  0.01950  0.36319  Biso   1.000  C
  H17      1.0000 0.34510  0.50590  0.42930  Biso   1.000  H
  H18      1.0000 0.15490  0.49410  0.92930  Biso   1.000  H
  H19      1.0000 0.65490  0.00590  0.07070  Biso   1.000  H
  H20      1.0000 0.84510  0.99410  0.57070  Biso   1.000  H
  H21      1.0000 0.65490  0.49410  0.57070  Biso   1.000  H
  H22      1.0000 0.84510  0.50590  0.07070  Biso   1.000  H
  H23      1.0000 0.34510  0.99410  0.92930  Biso   1.000  H
  H24      1.0000 0.15490  0.00590  0.42930  Biso   1.000  H
  H25      1.0000 0.37760  0.43240  0.33640  Biso   1.000  H
  H26      1.0000 0.12240  0.56760  0.83640  Biso   1.000  H
  H27      1.0000 0.62240  0.93240  0.16360  Biso   1.000  H
  H28      1.0000 0.87760  0.06760  0.66360  Biso   1.000  H
  H29      1.0000 0.62240  0.56760  0.66360  Biso   1.000  H
  H30      1.0000 0.87760  0.43240  0.16360  Biso   1.000  H
  H31      1.0000 0.37760  0.06760  0.83640  Biso   1.000  H
  H32      1.0000 0.12240  0.93240  0.33640  Biso   1.000  H
  Cu1      1.0000 0.37243  0.81691  0.31918  Biso   1.000  Cu
  Cu2      1.0000 0.12757  0.18309  0.81918  Biso   1.000  Cu
  Cu3      1.0000 0.62757  0.31691  0.18082  Biso   1.000  Cu
  Cu4      1.0000 0.87243  0.68309  0.68082  Biso   1.000  Cu
  Cu5      1.0000 0.62757  0.18309  0.68082  Biso   1.000  Cu
  Cu6      1.0000 0.87243  0.81691  0.18082  Biso   1.000  Cu
  Cu7      1.0000 0.37243  0.68309  0.81918  Biso   1.000  Cu
  Cu8      1.0000 0.12757  0.31691  0.31918  Biso   1.000  Cu
  N1       1.0000 0.62589  0.83110  0.45742  Biso   1.000  N
  N2       1.0000 0.87411  0.16890  0.95742  Biso   1.000  N
  N3       1.0000 0.37411  0.33110  0.04258  Biso   1.000  N
  N4       1.0000 0.12589  0.66890  0.54258  Biso   1.000  N
  N5       1.0000 0.37411  0.16890  0.54258  Biso   1.000  N
  N6       1.0000 0.12589  0.83110  0.04258  Biso   1.000  N
  N7       1.0000 0.62589  0.66890  0.95742  Biso   1.000  N
  N8       1.0000 0.87411  0.33110  0.45742  Biso   1.000  N
  N9       1.0000 0.62780  0.96500  0.43089  Biso   1.000  N
  N10      1.0000 0.87220  0.03500  0.93089  Biso   1.000  N
  N11      1.0000 0.37220  0.46500  0.06911  Biso   1.000  N
  N12      1.0000 0.12780  0.53500  0.56911  Biso   1.000  N
  N13      1.0000 0.37220  0.03500  0.56911  Biso   1.000  N
  N14      1.0000 0.12780  0.96500  0.06911  Biso   1.000  N
  N15      1.0000 0.62780  0.53500  0.93089  Biso   1.000  N
  N16      1.0000 0.87220  0.46500  0.43089  Biso   1.000  N
  N17      1.0000 0.55025  0.99430  0.38039  Biso   1.000  N
  N18      1.0000 0.94975  0.00570  0.88039  Biso   1.000  N
  N19      1.0000 0.44975  0.49430  0.11961  Biso   1.000  N
  N20      1.0000 0.05025  0.50570  0.61961  Biso   1.000  N
  N21      1.0000 0.44975  0.00570  0.61961  Biso   1.000  N
  N22      1.0000 0.05025  0.99430  0.11961  Biso   1.000  N
  N23      1.0000 0.55025  0.50570  0.88039  Biso   1.000  N
  N24      1.0000 0.94975  0.49430  0.38039  Biso   1.000  N
  N25      1.0000 0.49670  0.87910  0.37289  Biso   1.000  N
  N26      1.0000 0.00330  0.12090  0.87289  Biso   1.000  N
  N27      1.0000 0.50330  0.37910  0.12711  Biso   1.000  N
  N28      1.0000 0.99670  0.62090  0.62711  Biso   1.000  N
  N29      1.0000 0.50330  0.12090  0.62711  Biso   1.000  N
  N30      1.0000 0.99670  0.87910  0.12711  Biso   1.000  N
  N31      1.0000 0.49670  0.62090  0.87289  Biso   1.000  N
  N32      1.0000 0.00330  0.37910  0.37289  Biso   1.000  N
  N33      1.0000 0.43241  0.62584  0.34890  Biso   1.000  N
  N34      1.0000 0.06759  0.37416  0.84890  Biso   1.000  N
  N35      1.0000 0.56759  0.12584  0.15110  Biso   1.000  N
  N36      1.0000 0.93241  0.87416  0.65110  Biso   1.000  N
  N37      1.0000 0.56759  0.37416  0.65110  Biso   1.000  N
  N38      1.0000 0.93241  0.62584  0.15110  Biso   1.000  N
  N39      1.0000 0.43241  0.87416  0.84890  Biso   1.000  N
  N40      1.0000 0.06759  0.12584  0.34890  Biso   1.000  N
  H33      1.0000 0.46090  0.60300  0.30440  Biso   1.000  H
  H34      1.0000 0.03910  0.39700  0.80440  Biso   1.000  H
  H35      1.0000 0.53910  0.10300  0.19560  Biso   1.000  H
  H36      1.0000 0.96090  0.89700  0.69560  Biso   1.000  H
  H37      1.0000 0.53910  0.39700  0.69560  Biso   1.000  H
  H38      1.0000 0.96090  0.60300  0.19560  Biso   1.000  H
  H39      1.0000 0.46090  0.89700  0.80440  Biso   1.000  H
  H40      1.0000 0.03910  0.10300  0.30440  Biso   1.000  H
  N41      1.0000 0.18356  0.50313  0.29703  Biso   1.000  N
  N42      1.0000 0.31644  0.49687  0.79703  Biso   1.000  N
  N43      1.0000 0.81644  0.00313  0.20297  Biso   1.000  N
  N44      1.0000 0.68356  0.99687  0.70297  Biso   1.000  N
  N45      1.0000 0.81644  0.49687  0.70297  Biso   1.000  N
  N46      1.0000 0.68356  0.50313  0.20297  Biso   1.000  N
  N47      1.0000 0.18356  0.99687  0.79703  Biso   1.000  N
  N48      1.0000 0.31644  0.00313  0.29703  Biso   1.000  N
  C25      1.0000 0.26601  0.56870  0.31641  Biso   1.000  C
  C26      1.0000 0.23399  0.43130  0.81641  Biso   1.000  C
  C27      1.0000 0.73399  0.06870  0.18359  Biso   1.000  C
  C28      1.0000 0.76601  0.93130  0.68359  Biso   1.000  C
  C29      1.0000 0.73399  0.43130  0.68359  Biso   1.000  C
  C30      1.0000 0.76601  0.56870  0.18359  Biso   1.000  C
  C31      1.0000 0.26601  0.93130  0.81641  Biso   1.000  C
  C32      1.0000 0.23399  0.06870  0.31641  Biso   1.000  C
  N49      1.0000 0.12376  0.60020  0.25863  Biso   1.000  N
  N50      1.0000 0.37624  0.39980  0.75863  Biso   1.000  N
  N51      1.0000 0.87624  0.10020  0.24137  Biso   1.000  N
  N52      1.0000 0.62376  0.89980  0.74137  Biso   1.000  N
  N53      1.0000 0.87624  0.39980  0.74137  Biso   1.000  N
  N54      1.0000 0.62376  0.60020  0.24137  Biso   1.000  N
  N55      1.0000 0.12376  0.89980  0.75863  Biso   1.000  N
  N56      1.0000 0.37624  0.10020  0.25863  Biso   1.000  N
  N57      1.0000 0.16921  0.71725  0.25447  Biso   1.000  N
  N58      1.0000 0.33079  0.28275  0.75447  Biso   1.000  N
  N59      1.0000 0.83079  0.21725  0.24553  Biso   1.000  N
  N60      1.0000 0.66921  0.78275  0.74553  Biso   1.000  N
  N61      1.0000 0.83079  0.28275  0.74553  Biso   1.000  N
  N62      1.0000 0.66921  0.71725  0.24553  Biso   1.000  N
  N63      1.0000 0.16921  0.78275  0.75447  Biso   1.000  N
  N64      1.0000 0.33079  0.21725  0.25447  Biso   1.000  N
  N65      1.0000 0.25933  0.70021  0.29033  Biso   1.000  N
  N66      1.0000 0.24067  0.29979  0.79033  Biso   1.000  N
  N67      1.0000 0.74067  0.20021  0.20967  Biso   1.000  N
  N68      1.0000 0.75933  0.79979  0.70967  Biso   1.000  N
  N69      1.0000 0.74067  0.29979  0.70967  Biso   1.000  N
  N70      1.0000 0.75933  0.70021  0.20967  Biso   1.000  N
  N71      1.0000 0.25933  0.79979  0.79033  Biso   1.000  N
  N72      1.0000 0.24067  0.20021  0.29033  Biso   1.000  N
  O1       1.0000 0.43631  0.79910  0.15729  Biso   1.000  O
  O2       1.0000 0.06369  0.20090  0.65729  Biso   1.000  O
  O3       1.0000 0.56369  0.29910  0.34271  Biso   1.000  O
  O4       1.0000 0.93631  0.70090  0.84271  Biso   1.000  O
  O5       1.0000 0.56369  0.20090  0.84271  Biso   1.000  O
  O6       1.0000 0.93631  0.79910  0.34271  Biso   1.000  O
  O7       1.0000 0.43631  0.70090  0.65729  Biso   1.000  O
  O8       1.0000 0.06369  0.29910  0.15729  Biso   1.000  O
  H41      1.0000 0.46100  0.72400  0.15100  Biso   1.000  H
  H42      1.0000 0.03900  0.27600  0.65100  Biso   1.000  H
  H43      1.0000 0.53900  0.22400  0.34900  Biso   1.000  H
  H44      1.0000 0.96100  0.77600  0.84900  Biso   1.000  H
  H45      1.0000 0.53900  0.27600  0.84900  Biso   1.000  H
  H46      1.0000 0.96100  0.72400  0.34900  Biso   1.000  H
  H47      1.0000 0.46100  0.77600  0.65100  Biso   1.000  H
  H48      1.0000 0.03900  0.22400  0.15100  Biso   1.000  H
  H49      1.0000 0.38800  0.79400  0.12400  Biso   1.000  H
  H50      1.0000 0.11200  0.20600  0.62400  Biso   1.000  H
  H51      1.0000 0.61200  0.29400  0.37600  Biso   1.000  H
  H52      1.0000 0.88800  0.70600  0.87600  Biso   1.000  H
  H53      1.0000 0.61200  0.20600  0.87600  Biso   1.000  H
  H54      1.0000 0.88800  0.79400  0.37600  Biso   1.000  H
  H55      1.0000 0.38800  0.70600  0.62400  Biso   1.000  H
  H56      1.0000 0.11200  0.29400  0.12400  Biso   1.000  H
  O9       1.0000 0.30808  0.78340  0.49691  Biso   1.000  O
  O10      1.0000 0.19192  0.21660  0.99691  Biso   1.000  O
  O11      1.0000 0.69192  0.28340  0.00309  Biso   1.000  O
  O12      1.0000 0.80808  0.71660  0.50309  Biso   1.000  O
  O13      1.0000 0.69192  0.21660  0.50309  Biso   1.000  O
  O14      1.0000 0.80808  0.78340  0.00309  Biso   1.000  O
  O15      1.0000 0.30808  0.71660  0.99691  Biso   1.000  O
  O16      1.0000 0.19192  0.28340  0.49691  Biso   1.000  O
  H57      1.0000 0.31000  0.86600  0.51500  Biso   1.000  H
  H58      1.0000 0.19000  0.13400  0.01500  Biso   1.000  H
  H59      1.0000 0.69000  0.36600  0.98500  Biso   1.000  H
  H60      1.0000 0.81000  0.63400  0.48500  Biso   1.000  H
  H61      1.0000 0.69000  0.13400  0.48500  Biso   1.000  H
  H62      1.0000 0.81000  0.86600  0.98500  Biso   1.000  H
  H63      1.0000 0.31000  0.63400  0.01500  Biso   1.000  H
  H64      1.0000 0.19000  0.36600  0.51500  Biso   1.000  H
  H65      1.0000 0.25180  0.75800  0.50700  Biso   1.000  H
  H66      1.0000 0.24820  0.24200  0.00700  Biso   1.000  H
  H67      1.0000 0.74820  0.25800  0.99300  Biso   1.000  H
  H68      1.0000 0.75180  0.74200  0.49300  Biso   1.000  H
  H69      1.0000 0.74820  0.24200  0.49300  Biso   1.000  H
  H70      1.0000 0.75180  0.75800  0.99300  Biso   1.000  H
  H71      1.0000 0.25180  0.74200  0.00700  Biso   1.000  H
  H72      1.0000 0.24820  0.25800  0.50700  Biso   1.000  H
