data_image0
_cell_length_a       8.5221
_cell_length_b       6.4754
_cell_length_c       11.5083
_cell_angle_alpha    90
_cell_angle_beta     108.673
_cell_angle_gamma    90

_symmetry_space_group_name_H-M    "P 1"
_symmetry_int_tables_number       1

loop_
  _symmetry_equiv_pos_as_xyz
  'x, y, z'

loop_
  _atom_site_label
  _atom_site_occupancy
  _atom_site_fract_x
  _atom_site_fract_y
  _atom_site_fract_z
  _atom_site_thermal_displace_type
  _atom_site_B_iso_or_equiv
  _atom_site_type_symbol
  Cu1      1.0000 0.48804  0.85651  0.99005  Biso   1.000  Cu
  Cu2      1.0000 0.51196  0.35651  0.00995  Biso   1.000  Cu
  C1       1.0000 0.37690  0.09200  0.16430  Biso   1.000  C
  C2       1.0000 0.62310  0.59200  0.83570  Biso   1.000  C
  C3       1.0000 0.33090  0.09720  0.27950  Biso   1.000  C
  C4       1.0000 0.66910  0.59720  0.72050  Biso   1.000  C
  C5       1.0000 0.25280  0.26770  0.30710  Biso   1.000  C
  C6       1.0000 0.74720  0.76770  0.69290  Biso   1.000  C
  H1       1.0000 0.22530  0.37820  0.25280  Biso   1.000  H
  H2       1.0000 0.77470  0.87820  0.74720  Biso   1.000  H
  C7       1.0000 0.21490  0.27540  0.41580  Biso   1.000  C
  C8       1.0000 0.78510  0.77540  0.58420  Biso   1.000  C
  H3       1.0000 0.15920  0.38950  0.43220  Biso   1.000  H
  H4       1.0000 0.84080  0.88950  0.56780  Biso   1.000  H
  C9       1.0000 0.25890  0.11550  0.50010  Biso   1.000  C
  C10      1.0000 0.74110  0.61550  0.49990  Biso   1.000  C
  C11      1.0000 0.33790  0.94450  0.47110  Biso   1.000  C
  C12      1.0000 0.66210  0.44450  0.52890  Biso   1.000  C
  H5       1.0000 0.36820  0.83490  0.52600  Biso   1.000  H
  H6       1.0000 0.63180  0.33490  0.47400  Biso   1.000  H
  C13      1.0000 0.37170  0.93580  0.36230  Biso   1.000  C
  C14      1.0000 0.62830  0.43580  0.63770  Biso   1.000  C
  H7       1.0000 0.42290  0.81920  0.34390  Biso   1.000  H
  H8       1.0000 0.57710  0.31920  0.65610  Biso   1.000  H
  C15      1.0000 0.22060  0.12540  0.61730  Biso   1.000  C
  C16      1.0000 0.77940  0.62540  0.38270  Biso   1.000  C
  C17      1.0000 0.08330  0.22560  0.62800  Biso   1.000  C
  C18      1.0000 0.91670  0.72560  0.37200  Biso   1.000  C
  H9       1.0000 0.01120  0.29300  0.56050  Biso   1.000  H
  H10      1.0000 0.98880  0.79300  0.43950  Biso   1.000  H
  C19      1.0000 0.05260  0.22600  0.73920  Biso   1.000  C
  C20      1.0000 0.94740  0.72600  0.26080  Biso   1.000  C
  H11      1.0000 0.96050  0.29360  0.74750  Biso   1.000  H
  H12      1.0000 0.03950  0.79360  0.25250  Biso   1.000  H
  C21      1.0000 0.16040  0.12490  0.83650  Biso   1.000  C
  C22      1.0000 0.83960  0.62490  0.16350  Biso   1.000  C
  H13      1.0000 0.13710  0.12080  0.91010  Biso   1.000  H
  H14      1.0000 0.86290  0.62080  0.08990  Biso   1.000  H
  C23      1.0000 0.32450  0.03450  0.72280  Biso   1.000  C
  C24      1.0000 0.67550  0.53450  0.27720  Biso   1.000  C
  H15      1.0000 0.42010  0.97070  0.71820  Biso   1.000  H
  H16      1.0000 0.57990  0.47070  0.28180  Biso   1.000  H
  N1       1.0000 0.29720  0.03190  0.83080  Biso   1.000  N
  N2       1.0000 0.70280  0.53190  0.16920  Biso   1.000  N
  N3       1.0000 0.35810  0.59620  0.96050  Biso   1.000  N
  N4       1.0000 0.64190  0.09620  0.03950  Biso   1.000  N
  N5       1.0000 0.22360  0.59430  0.97520  Biso   1.000  N
  N6       1.0000 0.77640  0.09430  0.02480  Biso   1.000  N
  N7       1.0000 0.09550  0.59720  0.98510  Biso   1.000  N
  N8       1.0000 0.90450  0.09720  0.01490  Biso   1.000  N
  O1       1.0000 0.38610  0.26210  0.11590  Biso   1.000  O
  O2       1.0000 0.61390  0.76210  0.88410  Biso   1.000  O
  O3       1.0000 0.40310  0.91720  0.12600  Biso   1.000  O
  O4       1.0000 0.59690  0.41720  0.87400  Biso   1.000  O
