data_image0
_cell_length_a       8.192
_cell_length_b       11.717
_cell_length_c       17.422
_cell_angle_alpha    90
_cell_angle_beta     96.838
_cell_angle_gamma    90

_symmetry_space_group_name_H-M    "P 1"
_symmetry_int_tables_number       1

loop_
  _symmetry_equiv_pos_as_xyz
  'x, y, z'

loop_
  _atom_site_label
  _atom_site_occupancy
  _atom_site_fract_x
  _atom_site_fract_y
  _atom_site_fract_z
  _atom_site_thermal_displace_type
  _atom_site_B_iso_or_equiv
  _atom_site_type_symbol
  C1       1.0000 0.52110  0.81740  0.22470  Biso   1.000  C
  C2       1.0000 0.97890  0.31740  0.27530  Biso   1.000  C
  C3       1.0000 0.47890  0.18260  0.77530  Biso   1.000  C
  C4       1.0000 0.02110  0.68260  0.72470  Biso   1.000  C
  C5       1.0000 0.48810  0.82070  0.30700  Biso   1.000  C
  C6       1.0000 0.01190  0.32070  0.19300  Biso   1.000  C
  C7       1.0000 0.51190  0.17930  0.69300  Biso   1.000  C
  C8       1.0000 0.98810  0.67930  0.80700  Biso   1.000  C
  H1       1.0000 0.59210  0.82320  0.34010  Biso   1.000  H
  H2       1.0000 0.90790  0.32320  0.15990  Biso   1.000  H
  H3       1.0000 0.40790  0.17680  0.65990  Biso   1.000  H
  H4       1.0000 0.09210  0.67680  0.84010  Biso   1.000  H
  H5       1.0000 0.43190  0.75110  0.31870  Biso   1.000  H
  H6       1.0000 0.06810  0.25110  0.18130  Biso   1.000  H
  H7       1.0000 0.56810  0.24890  0.68130  Biso   1.000  H
  H8       1.0000 0.93190  0.74890  0.81870  Biso   1.000  H
  C9       1.0000 0.38470  0.92230  0.32530  Biso   1.000  C
  C10      1.0000 0.11530  0.42230  0.17470  Biso   1.000  C
  C11      1.0000 0.61530  0.07770  0.67470  Biso   1.000  C
  C12      1.0000 0.88470  0.57770  0.82530  Biso   1.000  C
  H9       1.0000 0.38080  0.92480  0.38070  Biso   1.000  H
  H10      1.0000 0.11920  0.42480  0.11930  Biso   1.000  H
  H11      1.0000 0.61920  0.07520  0.61930  Biso   1.000  H
  H12      1.0000 0.88080  0.57520  0.88070  Biso   1.000  H
  H13      1.0000 0.43880  0.99140  0.31090  Biso   1.000  H
  H14      1.0000 0.06120  0.49140  0.18910  Biso   1.000  H
  H15      1.0000 0.56120  0.00860  0.68910  Biso   1.000  H
  H16      1.0000 0.93880  0.50860  0.81090  Biso   1.000  H
  C13      1.0000 0.11860  0.01420  0.31670  Biso   1.000  C
  C14      1.0000 0.38140  0.51420  0.18330  Biso   1.000  C
  C15      1.0000 0.88140  0.98580  0.68330  Biso   1.000  C
  C16      1.0000 0.61860  0.48580  0.81670  Biso   1.000  C
  H17      1.0000 0.15080  0.08660  0.29610  Biso   1.000  H
  H18      1.0000 0.34920  0.58660  0.20390  Biso   1.000  H
  H19      1.0000 0.84920  0.91340  0.70390  Biso   1.000  H
  H20      1.0000 0.65080  0.41340  0.79610  Biso   1.000  H
  H21      1.0000 0.14430  0.01700  0.37250  Biso   1.000  H
  H22      1.0000 0.35570  0.51700  0.12750  Biso   1.000  H
  H23      1.0000 0.85570  0.98300  0.62750  Biso   1.000  H
  H24      1.0000 0.64430  0.48300  0.87250  Biso   1.000  H
  C17      1.0000 0.92940  0.99820  0.29610  Biso   1.000  C
  C18      1.0000 0.57060  0.49820  0.20390  Biso   1.000  C
  C19      1.0000 0.07060  0.00180  0.70390  Biso   1.000  C
  C20      1.0000 0.42940  0.50180  0.79610  Biso   1.000  C
  H25      1.0000 0.89840  0.92190  0.31020  Biso   1.000  H
  H26      1.0000 0.60160  0.42190  0.18980  Biso   1.000  H
  H27      1.0000 0.10160  0.07810  0.68980  Biso   1.000  H
  H28      1.0000 0.39840  0.57810  0.81020  Biso   1.000  H
  H29      1.0000 0.87150  0.05240  0.32510  Biso   1.000  H
  H30      1.0000 0.62850  0.55240  0.17490  Biso   1.000  H
  H31      1.0000 0.12850  0.94760  0.67490  Biso   1.000  H
  H32      1.0000 0.37150  0.44760  0.82510  Biso   1.000  H
  C21      1.0000 0.88190  0.01650  0.21110  Biso   1.000  C
  C22      1.0000 0.61810  0.51650  0.28890  Biso   1.000  C
  C23      1.0000 0.11810  0.98350  0.78890  Biso   1.000  C
  C24      1.0000 0.38190  0.48350  0.71110  Biso   1.000  C
  Cl1      1.0000 0.31920  0.15779  0.08521  Biso   1.000  Cl
  Cl2      1.0000 0.18080  0.65779  0.41479  Biso   1.000  Cl
  Cl3      1.0000 0.68080  0.84221  0.91479  Biso   1.000  Cl
  Cl4      1.0000 0.81920  0.34221  0.58521  Biso   1.000  Cl
  Cu1      1.0000 0.00000  0.00000  0.00000  Biso   1.000  Cu
  Cu2      1.0000 0.50000  0.50000  0.50000  Biso   1.000  Cu
  Cu3      1.0000 0.37192  0.88732  0.00031  Biso   1.000  Cu
  Cu4      1.0000 0.12808  0.38732  0.49969  Biso   1.000  Cu
  Cu5      1.0000 0.62808  0.11268  0.99969  Biso   1.000  Cu
  Cu6      1.0000 0.87192  0.61268  0.50031  Biso   1.000  Cu
  Cu7      1.0000 0.20092  0.92370  0.16810  Biso   1.000  Cu
  Cu8      1.0000 0.29908  0.42370  0.33190  Biso   1.000  Cu
  Cu9      1.0000 0.79908  0.07630  0.83190  Biso   1.000  Cu
  Cu10     1.0000 0.70092  0.57630  0.66810  Biso   1.000  Cu
  N1       1.0000 0.41210  0.85030  0.16710  Biso   1.000  N
  N2       1.0000 0.08790  0.35030  0.33290  Biso   1.000  N
  N3       1.0000 0.58790  0.14970  0.83290  Biso   1.000  N
  N4       1.0000 0.91210  0.64970  0.66710  Biso   1.000  N
  N5       1.0000 0.48590  0.83720  0.10270  Biso   1.000  N
  N6       1.0000 0.01410  0.33720  0.39730  Biso   1.000  N
  N7       1.0000 0.51410  0.16280  0.89730  Biso   1.000  N
  N8       1.0000 0.98590  0.66280  0.60270  Biso   1.000  N
  N9       1.0000 0.63000  0.79630  0.12240  Biso   1.000  N
  N10      1.0000 0.87000  0.29630  0.37760  Biso   1.000  N
  N11      1.0000 0.37000  0.20370  0.87760  Biso   1.000  N
  N12      1.0000 0.13000  0.70370  0.62240  Biso   1.000  N
  N13      1.0000 0.65770  0.78420  0.19850  Biso   1.000  N
  N14      1.0000 0.84230  0.28420  0.30150  Biso   1.000  N
  N15      1.0000 0.34230  0.21580  0.80150  Biso   1.000  N
  N16      1.0000 0.15770  0.71580  0.69850  Biso   1.000  N
  N17      1.0000 0.21440  0.92200  0.28610  Biso   1.000  N
  N18      1.0000 0.28560  0.42200  0.21390  Biso   1.000  N
  N19      1.0000 0.78560  0.07800  0.71390  Biso   1.000  N
  N20      1.0000 0.71440  0.57800  0.78610  Biso   1.000  N
  H33      1.0000 0.16810  0.85520  0.29910  Biso   1.000  H
  H34      1.0000 0.33190  0.35520  0.20090  Biso   1.000  H
  H35      1.0000 0.83190  0.14480  0.70090  Biso   1.000  H
  H36      1.0000 0.66810  0.64480  0.79910  Biso   1.000  H
  N21      1.0000 0.97640  0.98310  0.15990  Biso   1.000  N
  N22      1.0000 0.52360  0.48310  0.34010  Biso   1.000  N
  N23      1.0000 0.02360  0.01690  0.84010  Biso   1.000  N
  N24      1.0000 0.47640  0.51690  0.65990  Biso   1.000  N
  N25      1.0000 0.89880  0.01230  0.09230  Biso   1.000  N
  N26      1.0000 0.60120  0.51230  0.40770  Biso   1.000  N
  N27      1.0000 0.10120  0.98770  0.90770  Biso   1.000  N
  N28      1.0000 0.39880  0.48770  0.59230  Biso   1.000  N
  N29      1.0000 0.75960  0.05930  0.10280  Biso   1.000  N
  N30      1.0000 0.74040  0.55930  0.39720  Biso   1.000  N
  N31      1.0000 0.24040  0.94070  0.89720  Biso   1.000  N
  N32      1.0000 0.25960  0.44070  0.60280  Biso   1.000  N
  N33      1.0000 0.74400  0.06470  0.17680  Biso   1.000  N
  N34      1.0000 0.75600  0.56470  0.32320  Biso   1.000  N
  N35      1.0000 0.25600  0.93530  0.82320  Biso   1.000  N
  N36      1.0000 0.24400  0.43530  0.67680  Biso   1.000  N
  O1       1.0000 0.16950  0.89510  0.05120  Biso   1.000  O
  O2       1.0000 0.33050  0.39510  0.44880  Biso   1.000  O
  O3       1.0000 0.83050  0.10490  0.94880  Biso   1.000  O
  O4       1.0000 0.66950  0.60490  0.55120  Biso   1.000  O
  O5       1.0000 0.15720  0.16450  0.04070  Biso   1.000  O
  O6       1.0000 0.34280  0.66450  0.45930  Biso   1.000  O
  O7       1.0000 0.84280  0.83550  0.95930  Biso   1.000  O
  O8       1.0000 0.65720  0.33550  0.54070  Biso   1.000  O
  O9       1.0000 0.42340  0.08400  0.03940  Biso   1.000  O
  O10      1.0000 0.07660  0.58400  0.46060  Biso   1.000  O
  O11      1.0000 0.57660  0.91600  0.96060  Biso   1.000  O
  O12      1.0000 0.92340  0.41600  0.53940  Biso   1.000  O
  O13      1.0000 0.31000  0.10180  0.16110  Biso   1.000  O
  O14      1.0000 0.19000  0.60180  0.33890  Biso   1.000  O
  O15      1.0000 0.69000  0.89820  0.83890  Biso   1.000  O
  O16      1.0000 0.81000  0.39820  0.66110  Biso   1.000  O
  O17      1.0000 0.39240  0.27080  0.09670  Biso   1.000  O
  O18      1.0000 0.10760  0.77080  0.40330  Biso   1.000  O
  O19      1.0000 0.60760  0.72920  0.90330  Biso   1.000  O
  O20      1.0000 0.89240  0.22920  0.59670  Biso   1.000  O
  O21      1.0000 0.31280  0.69930  0.95810  Biso   1.000  O
  O22      1.0000 0.18720  0.19930  0.54190  Biso   1.000  O
  O23      1.0000 0.68720  0.30070  0.04190  Biso   1.000  O
  O24      1.0000 0.81280  0.80070  0.45810  Biso   1.000  O
  O25      1.0000 0.00040  0.28380  0.78360  Biso   1.000  O
  O26      1.0000 0.49960  0.78380  0.71640  Biso   1.000  O
  O27      1.0000 0.99960  0.71620  0.21640  Biso   1.000  O
  O28      1.0000 0.50040  0.21620  0.28360  Biso   1.000  O
  H37      1.0000 0.96900  0.31640  0.74180  Biso   1.000  H
  H38      1.0000 0.53100  0.81640  0.75820  Biso   1.000  H
  H39      1.0000 0.03100  0.68360  0.25820  Biso   1.000  H
  H40      1.0000 0.46900  0.18360  0.24180  Biso   1.000  H
  H41      1.0000 0.09980  0.26490  0.78640  Biso   1.000  H
  H42      1.0000 0.40020  0.76490  0.71360  Biso   1.000  H
  H43      1.0000 0.90020  0.73510  0.21360  Biso   1.000  H
  H44      1.0000 0.59980  0.23510  0.28640  Biso   1.000  H
  O29      1.0000 0.99310  0.31230  0.93600  Biso   1.000  O
  O30      1.0000 0.50690  0.81230  0.56400  Biso   1.000  O
  O31      1.0000 0.00690  0.68770  0.06400  Biso   1.000  O
  O32      1.0000 0.49310  0.18770  0.43600  Biso   1.000  O
  H45      1.0000 0.97000  0.33250  0.88920  Biso   1.000  H
  H46      1.0000 0.53000  0.83250  0.61080  Biso   1.000  H
  H47      1.0000 0.03000  0.66750  0.11080  Biso   1.000  H
  H48      1.0000 0.47000  0.16750  0.38920  Biso   1.000  H
  H49      1.0000 0.07540  0.28360  0.96190  Biso   1.000  H
  H50      1.0000 0.42460  0.78360  0.53810  Biso   1.000  H
  H51      1.0000 0.92460  0.71640  0.03810  Biso   1.000  H
  H52      1.0000 0.57540  0.21640  0.46190  Biso   1.000  H
