data_image0
_cell_length_a       15.6288
_cell_length_b       19.896
_cell_length_c       12.7179
_cell_angle_alpha    90
_cell_angle_beta     117.495
_cell_angle_gamma    90

_symmetry_space_group_name_H-M    "P 1"
_symmetry_int_tables_number       1

loop_
  _symmetry_equiv_pos_as_xyz
  'x, y, z'

loop_
  _atom_site_label
  _atom_site_occupancy
  _atom_site_fract_x
  _atom_site_fract_y
  _atom_site_fract_z
  _atom_site_thermal_displace_type
  _atom_site_B_iso_or_equiv
  _atom_site_type_symbol
  Cu1      1.0000 0.18743  0.14349  0.58993  Biso   1.000  Cu
  Cu2      1.0000 0.68743  0.64349  0.58993  Biso   1.000  Cu
  Cu3      1.0000 0.81257  0.14349  0.91007  Biso   1.000  Cu
  Cu4      1.0000 0.31257  0.64349  0.91007  Biso   1.000  Cu
  Cu5      1.0000 0.81257  0.85651  0.41007  Biso   1.000  Cu
  Cu6      1.0000 0.31257  0.35651  0.41007  Biso   1.000  Cu
  Cu7      1.0000 0.18743  0.85651  0.08993  Biso   1.000  Cu
  Cu8      1.0000 0.68743  0.35651  0.08993  Biso   1.000  Cu
  N1       1.0000 0.17140  0.19430  0.71780  Biso   1.000  N
  N2       1.0000 0.67140  0.69430  0.71780  Biso   1.000  N
  N3       1.0000 0.82860  0.19430  0.78220  Biso   1.000  N
  N4       1.0000 0.32860  0.69430  0.78220  Biso   1.000  N
  N5       1.0000 0.82860  0.80570  0.28220  Biso   1.000  N
  N6       1.0000 0.32860  0.30570  0.28220  Biso   1.000  N
  N7       1.0000 0.17140  0.80570  0.21780  Biso   1.000  N
  N8       1.0000 0.67140  0.30570  0.21780  Biso   1.000  N
  N9       1.0000 0.05990  0.37980  0.11220  Biso   1.000  N
  N10      1.0000 0.55990  0.87980  0.11220  Biso   1.000  N
  N11      1.0000 0.94010  0.37980  0.38780  Biso   1.000  N
  N12      1.0000 0.44010  0.87980  0.38780  Biso   1.000  N
  N13      1.0000 0.94010  0.62020  0.88780  Biso   1.000  N
  N14      1.0000 0.44010  0.12020  0.88780  Biso   1.000  N
  N15      1.0000 0.05990  0.62020  0.61220  Biso   1.000  N
  N16      1.0000 0.55990  0.12020  0.61220  Biso   1.000  N
  N17      1.0000 0.00000  0.38470  0.25000  Biso   1.000  N
  N18      1.0000 0.50000  0.88470  0.25000  Biso   1.000  N
  N19      1.0000 0.00000  0.61530  0.75000  Biso   1.000  N
  N20      1.0000 0.50000  0.11530  0.75000  Biso   1.000  N
  N21      1.0000 0.00000  0.52420  0.25000  Biso   1.000  N
  N22      1.0000 0.50000  0.02420  0.25000  Biso   1.000  N
  N23      1.0000 0.00000  0.47580  0.75000  Biso   1.000  N
  N24      1.0000 0.50000  0.97580  0.75000  Biso   1.000  N
  O1       1.0000 0.26020  0.95440  0.67110  Biso   1.000  O
  O2       1.0000 0.76020  0.45440  0.67110  Biso   1.000  O
  O3       1.0000 0.73980  0.95440  0.82890  Biso   1.000  O
  O4       1.0000 0.23980  0.45440  0.82890  Biso   1.000  O
  O5       1.0000 0.73980  0.04560  0.32890  Biso   1.000  O
  O6       1.0000 0.23980  0.54560  0.32890  Biso   1.000  O
  O7       1.0000 0.26020  0.04560  0.17110  Biso   1.000  O
  O8       1.0000 0.76020  0.54560  0.17110  Biso   1.000  O
  O9       1.0000 0.18990  0.97520  0.43200  Biso   1.000  O
  O10      1.0000 0.68990  0.47520  0.43200  Biso   1.000  O
  O11      1.0000 0.81010  0.97520  0.06800  Biso   1.000  O
  O12      1.0000 0.31010  0.47520  0.06800  Biso   1.000  O
  O13      1.0000 0.81010  0.02480  0.56800  Biso   1.000  O
  O14      1.0000 0.31010  0.52480  0.56800  Biso   1.000  O
  O15      1.0000 0.18990  0.02480  0.93200  Biso   1.000  O
  O16      1.0000 0.68990  0.52480  0.93200  Biso   1.000  O
  O17      1.0000 0.18570  0.08440  0.46590  Biso   1.000  O
  O18      1.0000 0.68570  0.58440  0.46590  Biso   1.000  O
  O19      1.0000 0.81430  0.08440  0.03410  Biso   1.000  O
  O20      1.0000 0.31430  0.58440  0.03410  Biso   1.000  O
  O21      1.0000 0.81430  0.91560  0.53410  Biso   1.000  O
  O22      1.0000 0.31430  0.41560  0.53410  Biso   1.000  O
  O23      1.0000 0.18570  0.91560  0.96590  Biso   1.000  O
  O24      1.0000 0.68570  0.41560  0.96590  Biso   1.000  O
  O25      1.0000 0.23740  0.06360  0.68990  Biso   1.000  O
  O26      1.0000 0.73740  0.56360  0.68990  Biso   1.000  O
  O27      1.0000 0.76260  0.06360  0.81010  Biso   1.000  O
  O28      1.0000 0.26260  0.56360  0.81010  Biso   1.000  O
  O29      1.0000 0.76260  0.93640  0.31010  Biso   1.000  O
  O30      1.0000 0.26260  0.43640  0.31010  Biso   1.000  O
  O31      1.0000 0.23740  0.93640  0.18990  Biso   1.000  O
  O32      1.0000 0.73740  0.43640  0.18990  Biso   1.000  O
  O33      1.0000 0.13750  0.21700  0.47390  Biso   1.000  O
  O34      1.0000 0.63750  0.71700  0.47390  Biso   1.000  O
  O35      1.0000 0.86250  0.21700  0.02610  Biso   1.000  O
  O36      1.0000 0.36250  0.71700  0.02610  Biso   1.000  O
  O37      1.0000 0.86250  0.78300  0.52610  Biso   1.000  O
  O38      1.0000 0.36250  0.28300  0.52610  Biso   1.000  O
  O39      1.0000 0.13750  0.78300  0.97390  Biso   1.000  O
  O40      1.0000 0.63750  0.28300  0.97390  Biso   1.000  O
  O41      1.0000 0.17270  0.29950  0.38060  Biso   1.000  O
  O42      1.0000 0.67270  0.79950  0.38060  Biso   1.000  O
  O43      1.0000 0.82730  0.29950  0.11940  Biso   1.000  O
  O44      1.0000 0.32730  0.79950  0.11940  Biso   1.000  O
  O45      1.0000 0.82730  0.70050  0.61940  Biso   1.000  O
  O46      1.0000 0.32730  0.20050  0.61940  Biso   1.000  O
  O47      1.0000 0.17270  0.70050  0.88060  Biso   1.000  O
  O48      1.0000 0.67270  0.20050  0.88060  Biso   1.000  O
  C1       1.0000 0.18000  0.26140  0.72860  Biso   1.000  C
  C2       1.0000 0.68000  0.76140  0.72860  Biso   1.000  C
  C3       1.0000 0.82000  0.26140  0.77140  Biso   1.000  C
  C4       1.0000 0.32000  0.76140  0.77140  Biso   1.000  C
  C5       1.0000 0.82000  0.73860  0.27140  Biso   1.000  C
  C6       1.0000 0.32000  0.23860  0.27140  Biso   1.000  C
  C7       1.0000 0.18000  0.73860  0.22860  Biso   1.000  C
  C8       1.0000 0.68000  0.23860  0.22860  Biso   1.000  C
  H1       1.0000 0.20060  0.28450  0.68090  Biso   1.000  H
  H2       1.0000 0.70060  0.78450  0.68090  Biso   1.000  H
  H3       1.0000 0.79940  0.28450  0.81910  Biso   1.000  H
  H4       1.0000 0.29940  0.78450  0.81910  Biso   1.000  H
  H5       1.0000 0.79940  0.71550  0.31910  Biso   1.000  H
  H6       1.0000 0.29940  0.21550  0.31910  Biso   1.000  H
  H7       1.0000 0.20060  0.71550  0.18090  Biso   1.000  H
  H8       1.0000 0.70060  0.21550  0.18090  Biso   1.000  H
  C9       1.0000 0.14390  0.16240  0.79050  Biso   1.000  C
  C10      1.0000 0.64390  0.66240  0.79050  Biso   1.000  C
  C11      1.0000 0.85610  0.16240  0.70950  Biso   1.000  C
  C12      1.0000 0.35610  0.66240  0.70950  Biso   1.000  C
  C13      1.0000 0.85610  0.83760  0.20950  Biso   1.000  C
  C14      1.0000 0.35610  0.33760  0.20950  Biso   1.000  C
  C15      1.0000 0.14390  0.83760  0.29050  Biso   1.000  C
  C16      1.0000 0.64390  0.33760  0.29050  Biso   1.000  C
  H9       1.0000 0.13820  0.11580  0.78570  Biso   1.000  H
  H10      1.0000 0.63820  0.61580  0.78570  Biso   1.000  H
  H11      1.0000 0.86180  0.11580  0.71430  Biso   1.000  H
  H12      1.0000 0.36180  0.61580  0.71430  Biso   1.000  H
  H13      1.0000 0.86180  0.88420  0.21430  Biso   1.000  H
  H14      1.0000 0.36180  0.38420  0.21430  Biso   1.000  H
  H15      1.0000 0.13820  0.88420  0.28570  Biso   1.000  H
  H16      1.0000 0.63820  0.38420  0.28570  Biso   1.000  H
  C17      1.0000 0.12370  0.19530  0.87170  Biso   1.000  C
  C18      1.0000 0.62370  0.69530  0.87170  Biso   1.000  C
  C19      1.0000 0.87630  0.19530  0.62830  Biso   1.000  C
  C20      1.0000 0.37630  0.69530  0.62830  Biso   1.000  C
  C21      1.0000 0.87630  0.80470  0.12830  Biso   1.000  C
  C22      1.0000 0.37630  0.30470  0.12830  Biso   1.000  C
  C23      1.0000 0.12370  0.80470  0.37170  Biso   1.000  C
  C24      1.0000 0.62370  0.30470  0.37170  Biso   1.000  C
  H17      1.0000 0.10500  0.17120  0.92030  Biso   1.000  H
  H18      1.0000 0.60500  0.67120  0.92030  Biso   1.000  H
  H19      1.0000 0.89500  0.17120  0.57970  Biso   1.000  H
  H20      1.0000 0.39500  0.67120  0.57970  Biso   1.000  H
  H21      1.0000 0.89500  0.82880  0.07970  Biso   1.000  H
  H22      1.0000 0.39500  0.32880  0.07970  Biso   1.000  H
  H23      1.0000 0.10500  0.82880  0.42030  Biso   1.000  H
  H24      1.0000 0.60500  0.32880  0.42030  Biso   1.000  H
  C25      1.0000 0.16000  0.29780  0.80660  Biso   1.000  C
  C26      1.0000 0.66000  0.79780  0.80660  Biso   1.000  C
  C27      1.0000 0.84000  0.29780  0.69340  Biso   1.000  C
  C28      1.0000 0.34000  0.79780  0.69340  Biso   1.000  C
  C29      1.0000 0.84000  0.70220  0.19340  Biso   1.000  C
  C30      1.0000 0.34000  0.20220  0.19340  Biso   1.000  C
  C31      1.0000 0.16000  0.70220  0.30660  Biso   1.000  C
  C32      1.0000 0.66000  0.20220  0.30660  Biso   1.000  C
  H25      1.0000 0.16560  0.34430  0.80920  Biso   1.000  H
  H26      1.0000 0.66560  0.84430  0.80920  Biso   1.000  H
  H27      1.0000 0.83440  0.34430  0.69080  Biso   1.000  H
  H28      1.0000 0.33440  0.84430  0.69080  Biso   1.000  H
  H29      1.0000 0.83440  0.65570  0.19080  Biso   1.000  H
  H30      1.0000 0.33440  0.15570  0.19080  Biso   1.000  H
  H31      1.0000 0.16560  0.65570  0.30920  Biso   1.000  H
  H32      1.0000 0.66560  0.15570  0.30920  Biso   1.000  H
  C33      1.0000 0.13170  0.26530  0.88060  Biso   1.000  C
  C34      1.0000 0.63170  0.76530  0.88060  Biso   1.000  C
  C35      1.0000 0.86830  0.26530  0.61940  Biso   1.000  C
  C36      1.0000 0.36830  0.76530  0.61940  Biso   1.000  C
  C37      1.0000 0.86830  0.73470  0.11940  Biso   1.000  C
  C38      1.0000 0.36830  0.23470  0.11940  Biso   1.000  C
  C39      1.0000 0.13170  0.73470  0.38060  Biso   1.000  C
  C40      1.0000 0.63170  0.23470  0.38060  Biso   1.000  C
  C41      1.0000 0.10840  0.30470  0.96430  Biso   1.000  C
  C42      1.0000 0.60840  0.80470  0.96430  Biso   1.000  C
  C43      1.0000 0.89160  0.30470  0.53570  Biso   1.000  C
  C44      1.0000 0.39160  0.80470  0.53570  Biso   1.000  C
  C45      1.0000 0.89160  0.69530  0.03570  Biso   1.000  C
  C46      1.0000 0.39160  0.19530  0.03570  Biso   1.000  C
  C47      1.0000 0.10840  0.69530  0.46430  Biso   1.000  C
  C48      1.0000 0.60840  0.19530  0.46430  Biso   1.000  C
  C49      1.0000 0.05630  0.27630  0.01810  Biso   1.000  C
  C50      1.0000 0.55630  0.77630  0.01810  Biso   1.000  C
  C51      1.0000 0.94370  0.27630  0.48190  Biso   1.000  C
  C52      1.0000 0.44370  0.77630  0.48190  Biso   1.000  C
  C53      1.0000 0.94370  0.72370  0.98190  Biso   1.000  C
  C54      1.0000 0.44370  0.22370  0.98190  Biso   1.000  C
  C55      1.0000 0.05630  0.72370  0.51810  Biso   1.000  C
  C56      1.0000 0.55630  0.22370  0.51810  Biso   1.000  C
  H33      1.0000 0.03810  0.23130  0.00530  Biso   1.000  H
  H34      1.0000 0.53810  0.73130  0.00530  Biso   1.000  H
  H35      1.0000 0.96190  0.23130  0.49470  Biso   1.000  H
  H36      1.0000 0.46190  0.73130  0.49470  Biso   1.000  H
  H37      1.0000 0.96190  0.76870  0.99470  Biso   1.000  H
  H38      1.0000 0.46190  0.26870  0.99470  Biso   1.000  H
  H39      1.0000 0.03810  0.76870  0.50530  Biso   1.000  H
  H40      1.0000 0.53810  0.26870  0.50530  Biso   1.000  H
  C57      1.0000 0.13740  0.37120  0.99090  Biso   1.000  C
  C58      1.0000 0.63740  0.87120  0.99090  Biso   1.000  C
  C59      1.0000 0.86260  0.37120  0.50910  Biso   1.000  C
  C60      1.0000 0.36260  0.87120  0.50910  Biso   1.000  C
  C61      1.0000 0.86260  0.62880  0.00910  Biso   1.000  C
  C62      1.0000 0.36260  0.12880  0.00910  Biso   1.000  C
  C63      1.0000 0.13740  0.62880  0.49090  Biso   1.000  C
  C64      1.0000 0.63740  0.12880  0.49090  Biso   1.000  C
  H41      1.0000 0.17320  0.39120  0.95790  Biso   1.000  H
  H42      1.0000 0.67320  0.89120  0.95790  Biso   1.000  H
  H43      1.0000 0.82680  0.39120  0.54210  Biso   1.000  H
  H44      1.0000 0.32680  0.89120  0.54210  Biso   1.000  H
  H45      1.0000 0.82680  0.60880  0.04210  Biso   1.000  H
  H46      1.0000 0.32680  0.10880  0.04210  Biso   1.000  H
  H47      1.0000 0.17320  0.60880  0.45790  Biso   1.000  H
  H48      1.0000 0.67320  0.10880  0.45790  Biso   1.000  H
  C65      1.0000 0.03230  0.31520  0.09010  Biso   1.000  C
  C66      1.0000 0.53230  0.81520  0.09010  Biso   1.000  C
  C67      1.0000 0.96770  0.31520  0.40990  Biso   1.000  C
  C68      1.0000 0.46770  0.81520  0.40990  Biso   1.000  C
  C69      1.0000 0.96770  0.68480  0.90990  Biso   1.000  C
  C70      1.0000 0.46770  0.18480  0.90990  Biso   1.000  C
  C71      1.0000 0.03230  0.68480  0.59010  Biso   1.000  C
  C72      1.0000 0.53230  0.18480  0.59010  Biso   1.000  C
  H49      1.0000 0.99630  0.29640  0.12390  Biso   1.000  H
  H50      1.0000 0.49630  0.79640  0.12390  Biso   1.000  H
  H51      1.0000 0.00370  0.29640  0.37610  Biso   1.000  H
  H52      1.0000 0.50370  0.79640  0.37610  Biso   1.000  H
  H53      1.0000 0.00370  0.70360  0.87610  Biso   1.000  H
  H54      1.0000 0.50370  0.20360  0.87610  Biso   1.000  H
  H55      1.0000 0.99630  0.70360  0.62390  Biso   1.000  H
  H56      1.0000 0.49630  0.20360  0.62390  Biso   1.000  H
  C73      1.0000 0.11400  0.40730  0.06460  Biso   1.000  C
  C74      1.0000 0.61400  0.90730  0.06460  Biso   1.000  C
  C75      1.0000 0.88600  0.40730  0.43540  Biso   1.000  C
  C76      1.0000 0.38600  0.90730  0.43540  Biso   1.000  C
  C77      1.0000 0.88600  0.59270  0.93540  Biso   1.000  C
  C78      1.0000 0.38600  0.09270  0.93540  Biso   1.000  C
  C79      1.0000 0.11400  0.59270  0.56460  Biso   1.000  C
  C80      1.0000 0.61400  0.09270  0.56460  Biso   1.000  C
  H57      1.0000 0.13520  0.45150  0.08280  Biso   1.000  H
  H58      1.0000 0.63520  0.95150  0.08280  Biso   1.000  H
  H59      1.0000 0.86480  0.45150  0.41720  Biso   1.000  H
  H60      1.0000 0.36480  0.95150  0.41720  Biso   1.000  H
  H61      1.0000 0.86480  0.54850  0.91720  Biso   1.000  H
  H62      1.0000 0.36480  0.04850  0.91720  Biso   1.000  H
  H63      1.0000 0.13520  0.54850  0.58280  Biso   1.000  H
  H64      1.0000 0.63520  0.04850  0.58280  Biso   1.000  H
  C81      1.0000 0.02900  0.41940  0.18380  Biso   1.000  C
  C82      1.0000 0.52900  0.91940  0.18380  Biso   1.000  C
  C83      1.0000 0.97100  0.41940  0.31620  Biso   1.000  C
  C84      1.0000 0.47100  0.91940  0.31620  Biso   1.000  C
  C85      1.0000 0.97100  0.58060  0.81620  Biso   1.000  C
  C86      1.0000 0.47100  0.08060  0.81620  Biso   1.000  C
  C87      1.0000 0.02900  0.58060  0.68380  Biso   1.000  C
  C88      1.0000 0.52900  0.08060  0.68380  Biso   1.000  C
  C89      1.0000 0.02780  0.48950  0.17980  Biso   1.000  C
  C90      1.0000 0.52780  0.98950  0.17980  Biso   1.000  C
  C91      1.0000 0.97220  0.48950  0.32020  Biso   1.000  C
  C92      1.0000 0.47220  0.98950  0.32020  Biso   1.000  C
  C93      1.0000 0.97220  0.51050  0.82020  Biso   1.000  C
  C94      1.0000 0.47220  0.01050  0.82020  Biso   1.000  C
  C95      1.0000 0.02780  0.51050  0.67980  Biso   1.000  C
  C96      1.0000 0.52780  0.01050  0.67980  Biso   1.000  C
  C97      1.0000 0.19850  0.02300  0.49670  Biso   1.000  C
  C98      1.0000 0.69850  0.52300  0.49670  Biso   1.000  C
  C99      1.0000 0.80150  0.02300  0.00330  Biso   1.000  C
  C100     1.0000 0.30150  0.52300  0.00330  Biso   1.000  C
  C101     1.0000 0.80150  0.97700  0.50330  Biso   1.000  C
  C102     1.0000 0.30150  0.47700  0.50330  Biso   1.000  C
  C103     1.0000 0.19850  0.97700  0.99670  Biso   1.000  C
  C104     1.0000 0.69850  0.47700  0.99670  Biso   1.000  C
  C105     1.0000 0.23470  0.01110  0.63090  Biso   1.000  C
  C106     1.0000 0.73470  0.51110  0.63090  Biso   1.000  C
  C107     1.0000 0.76530  0.01110  0.86910  Biso   1.000  C
  C108     1.0000 0.26530  0.51110  0.86910  Biso   1.000  C
  C109     1.0000 0.76530  0.98890  0.36910  Biso   1.000  C
  C110     1.0000 0.26530  0.48890  0.36910  Biso   1.000  C
  C111     1.0000 0.23470  0.98890  0.13090  Biso   1.000  C
  C112     1.0000 0.73470  0.48890  0.13090  Biso   1.000  C
  C113     1.0000 0.19650  0.25520  0.45780  Biso   1.000  C
  C114     1.0000 0.69650  0.75520  0.45780  Biso   1.000  C
  C115     1.0000 0.80350  0.25520  0.04220  Biso   1.000  C
  C116     1.0000 0.30350  0.75520  0.04220  Biso   1.000  C
  C117     1.0000 0.80350  0.74480  0.54220  Biso   1.000  C
  C118     1.0000 0.30350  0.24480  0.54220  Biso   1.000  C
  C119     1.0000 0.19650  0.74480  0.95780  Biso   1.000  C
  C120     1.0000 0.69650  0.24480  0.95780  Biso   1.000  C
  O49      1.0000 0.01080  0.10250  0.52430  Biso   1.000  O
  O50      1.0000 0.51080  0.60250  0.52430  Biso   1.000  O
  O51      1.0000 0.98920  0.10250  0.97570  Biso   1.000  O
  O52      1.0000 0.48920  0.60250  0.97570  Biso   1.000  O
  O53      1.0000 0.98920  0.89750  0.47570  Biso   1.000  O
  O54      1.0000 0.48920  0.39750  0.47570  Biso   1.000  O
  O55      1.0000 0.01080  0.89750  0.02430  Biso   1.000  O
  O56      1.0000 0.51080  0.39750  0.02430  Biso   1.000  O
  O57      1.0000 0.35040  0.91480  0.91080  Biso   1.000  O
  O58      1.0000 0.85040  0.41480  0.91080  Biso   1.000  O
  O59      1.0000 0.64960  0.91480  0.58920  Biso   1.000  O
  O60      1.0000 0.14960  0.41480  0.58920  Biso   1.000  O
  O61      1.0000 0.64960  0.08520  0.08920  Biso   1.000  O
  O62      1.0000 0.14960  0.58520  0.08920  Biso   1.000  O
  O63      1.0000 0.35040  0.08520  0.41080  Biso   1.000  O
  O64      1.0000 0.85040  0.58520  0.41080  Biso   1.000  O
  O65      1.0000 0.04920  0.99300  0.68940  Biso   1.000  O
  O66      1.0000 0.54920  0.49300  0.68940  Biso   1.000  O
  O67      1.0000 0.95080  0.99300  0.81060  Biso   1.000  O
  O68      1.0000 0.45080  0.49300  0.81060  Biso   1.000  O
  O69      1.0000 0.95080  0.00700  0.31060  Biso   1.000  O
  O70      1.0000 0.45080  0.50700  0.31060  Biso   1.000  O
  O71      1.0000 0.04920  0.00700  0.18940  Biso   1.000  O
  O72      1.0000 0.54920  0.50700  0.18940  Biso   1.000  O
  O73      1.0000 0.38700  0.36380  0.77600  Biso   1.000  O
  O74      1.0000 0.88700  0.86380  0.77600  Biso   1.000  O
  O75      1.0000 0.61300  0.36380  0.72400  Biso   1.000  O
  O76      1.0000 0.11300  0.86380  0.72400  Biso   1.000  O
  O77      1.0000 0.61300  0.63620  0.22400  Biso   1.000  O
  O78      1.0000 0.11300  0.13620  0.22400  Biso   1.000  O
  O79      1.0000 0.38700  0.63620  0.27600  Biso   1.000  O
  O80      1.0000 0.88700  0.13620  0.27600  Biso   1.000  O
  O81      1.0000 0.45600  0.34640  0.77100  Biso   1.000  O
  O82      1.0000 0.95600  0.84640  0.77100  Biso   1.000  O
  O83      1.0000 0.54400  0.34640  0.72900  Biso   1.000  O
  O84      1.0000 0.04400  0.84640  0.72900  Biso   1.000  O
  O85      1.0000 0.54400  0.65360  0.22900  Biso   1.000  O
  O86      1.0000 0.04400  0.15360  0.22900  Biso   1.000  O
  O87      1.0000 0.45600  0.65360  0.27100  Biso   1.000  O
  O88      1.0000 0.95600  0.15360  0.27100  Biso   1.000  O
