data_image0
_cell_length_a       15.507
_cell_length_b       7.084
_cell_length_c       20.918
_cell_angle_alpha    90
_cell_angle_beta     90
_cell_angle_gamma    90

_symmetry_space_group_name_H-M    "P 1"
_symmetry_int_tables_number       1

loop_
  _symmetry_equiv_pos_as_xyz
  'x, y, z'

loop_
  _atom_site_label
  _atom_site_occupancy
  _atom_site_fract_x
  _atom_site_fract_y
  _atom_site_fract_z
  _atom_site_thermal_displace_type
  _atom_site_B_iso_or_equiv
  _atom_site_type_symbol
  Cu1      1.0000 0.43960  0.12267  0.33752  Biso   1.000  Cu
  Cu2      1.0000 0.06040  0.87733  0.83752  Biso   1.000  Cu
  Cu3      1.0000 0.93960  0.37733  0.66248  Biso   1.000  Cu
  Cu4      1.0000 0.56040  0.62267  0.16248  Biso   1.000  Cu
  Cu5      1.0000 0.56040  0.87733  0.66248  Biso   1.000  Cu
  Cu6      1.0000 0.93960  0.12267  0.16248  Biso   1.000  Cu
  Cu7      1.0000 0.06040  0.62267  0.33752  Biso   1.000  Cu
  Cu8      1.0000 0.43960  0.37733  0.83752  Biso   1.000  Cu
  O1       1.0000 0.47129  0.86630  0.16496  Biso   1.000  O
  O2       1.0000 0.02871  0.13370  0.66496  Biso   1.000  O
  O3       1.0000 0.97129  0.63370  0.83504  Biso   1.000  O
  O4       1.0000 0.52871  0.36630  0.33504  Biso   1.000  O
  O5       1.0000 0.52871  0.13370  0.83504  Biso   1.000  O
  O6       1.0000 0.97129  0.86630  0.33504  Biso   1.000  O
  O7       1.0000 0.02871  0.36630  0.16496  Biso   1.000  O
  O8       1.0000 0.47129  0.63370  0.66496  Biso   1.000  O
  N1       1.0000 0.47942  0.00770  0.60070  Biso   1.000  N
  N2       1.0000 0.02058  0.99230  0.10070  Biso   1.000  N
  N3       1.0000 0.97942  0.49230  0.39930  Biso   1.000  N
  N4       1.0000 0.52058  0.50770  0.89930  Biso   1.000  N
  N5       1.0000 0.52058  0.99230  0.39930  Biso   1.000  N
  N6       1.0000 0.97942  0.00770  0.89930  Biso   1.000  N
  N7       1.0000 0.02058  0.50770  0.60070  Biso   1.000  N
  N8       1.0000 0.47942  0.49230  0.10070  Biso   1.000  N
  O9       1.0000 0.19623  0.25370  0.39497  Biso   1.000  O
  O10      1.0000 0.30377  0.74630  0.89497  Biso   1.000  O
  O11      1.0000 0.69623  0.24630  0.60503  Biso   1.000  O
  O12      1.0000 0.80377  0.75370  0.10503  Biso   1.000  O
  O13      1.0000 0.80377  0.74630  0.60503  Biso   1.000  O
  O14      1.0000 0.69623  0.25370  0.10503  Biso   1.000  O
  O15      1.0000 0.30377  0.75370  0.39497  Biso   1.000  O
  O16      1.0000 0.19623  0.24630  0.89497  Biso   1.000  O
  O17      1.0000 0.49885  0.99030  0.26143  Biso   1.000  O
  O18      1.0000 0.00115  0.00970  0.76143  Biso   1.000  O
  O19      1.0000 0.99885  0.50970  0.73857  Biso   1.000  O
  O20      1.0000 0.50115  0.49030  0.23857  Biso   1.000  O
  O21      1.0000 0.50115  0.00970  0.73857  Biso   1.000  O
  O22      1.0000 0.99885  0.99030  0.23857  Biso   1.000  O
  O23      1.0000 0.00115  0.49030  0.26143  Biso   1.000  O
  O24      1.0000 0.49885  0.50970  0.76143  Biso   1.000  O
  N9       1.0000 0.34330  0.08610  0.28072  Biso   1.000  N
  N10      1.0000 0.15670  0.91390  0.78072  Biso   1.000  N
  N11      1.0000 0.84330  0.41390  0.71928  Biso   1.000  N
  N12      1.0000 0.65670  0.58610  0.21928  Biso   1.000  N
  N13      1.0000 0.65670  0.91390  0.71928  Biso   1.000  N
  N14      1.0000 0.84330  0.08610  0.21928  Biso   1.000  N
  N15      1.0000 0.15670  0.58610  0.28072  Biso   1.000  N
  N16      1.0000 0.34330  0.41390  0.78072  Biso   1.000  N
  N17      1.0000 0.34587  0.22620  0.39257  Biso   1.000  N
  N18      1.0000 0.15413  0.77380  0.89257  Biso   1.000  N
  N19      1.0000 0.84587  0.27380  0.60743  Biso   1.000  N
  N20      1.0000 0.65413  0.72620  0.10743  Biso   1.000  N
  N21      1.0000 0.65413  0.77380  0.60743  Biso   1.000  N
  N22      1.0000 0.84587  0.22620  0.10743  Biso   1.000  N
  N23      1.0000 0.15413  0.72620  0.39257  Biso   1.000  N
  N24      1.0000 0.34587  0.27380  0.89257  Biso   1.000  N
  C1       1.0000 0.42696  0.92230  0.55797  Biso   1.000  C
  C2       1.0000 0.07304  0.07770  0.05797  Biso   1.000  C
  C3       1.0000 0.92696  0.57770  0.44203  Biso   1.000  C
  C4       1.0000 0.57304  0.42230  0.94203  Biso   1.000  C
  C5       1.0000 0.57304  0.07770  0.44203  Biso   1.000  C
  C6       1.0000 0.92696  0.92230  0.94203  Biso   1.000  C
  C7       1.0000 0.07304  0.42230  0.55797  Biso   1.000  C
  C8       1.0000 0.42696  0.57770  0.05797  Biso   1.000  C
  H1       1.0000 0.41920  0.78960  0.56090  Biso   1.000  H
  H2       1.0000 0.08080  0.21040  0.06090  Biso   1.000  H
  H3       1.0000 0.91920  0.71040  0.43910  Biso   1.000  H
  H4       1.0000 0.58080  0.28960  0.93910  Biso   1.000  H
  H5       1.0000 0.58080  0.21040  0.43910  Biso   1.000  H
  H6       1.0000 0.91920  0.78960  0.93910  Biso   1.000  H
  H7       1.0000 0.08080  0.28960  0.56090  Biso   1.000  H
  H8       1.0000 0.41920  0.71040  0.06090  Biso   1.000  H
  C9       1.0000 0.26505  0.12100  0.30346  Biso   1.000  C
  C10      1.0000 0.23495  0.87900  0.80346  Biso   1.000  C
  C11      1.0000 0.76505  0.37900  0.69654  Biso   1.000  C
  C12      1.0000 0.73495  0.62100  0.19654  Biso   1.000  C
  C13      1.0000 0.73495  0.87900  0.69654  Biso   1.000  C
  C14      1.0000 0.76505  0.12100  0.19654  Biso   1.000  C
  C15      1.0000 0.23495  0.62100  0.30346  Biso   1.000  C
  C16      1.0000 0.26505  0.37900  0.80346  Biso   1.000  C
  C17      1.0000 0.35660  0.00670  0.22384  Biso   1.000  C
  C18      1.0000 0.14340  0.99330  0.72384  Biso   1.000  C
  C19      1.0000 0.85660  0.49330  0.77616  Biso   1.000  C
  C20      1.0000 0.64340  0.50670  0.27616  Biso   1.000  C
  C21      1.0000 0.64340  0.99330  0.77616  Biso   1.000  C
  C22      1.0000 0.85660  0.00670  0.27616  Biso   1.000  C
  C23      1.0000 0.14340  0.50670  0.22384  Biso   1.000  C
  C24      1.0000 0.35660  0.49330  0.72384  Biso   1.000  C
  C25      1.0000 0.38401  0.01920  0.51022  Biso   1.000  C
  C26      1.0000 0.11599  0.98080  0.01022  Biso   1.000  C
  C27      1.0000 0.88401  0.48080  0.48978  Biso   1.000  C
  C28      1.0000 0.61599  0.51920  0.98978  Biso   1.000  C
  C29      1.0000 0.61599  0.98080  0.48978  Biso   1.000  C
  C30      1.0000 0.88401  0.01920  0.98978  Biso   1.000  C
  C31      1.0000 0.11599  0.51920  0.51022  Biso   1.000  C
  C32      1.0000 0.38401  0.48080  0.01022  Biso   1.000  C
  H9       1.0000 0.34800  0.95380  0.48090  Biso   1.000  H
  H10      1.0000 0.15200  0.04620  0.98090  Biso   1.000  H
  H11      1.0000 0.84800  0.54620  0.51910  Biso   1.000  H
  H12      1.0000 0.65200  0.45380  0.01910  Biso   1.000  H
  H13      1.0000 0.65200  0.04620  0.51910  Biso   1.000  H
  H14      1.0000 0.84800  0.95380  0.01910  Biso   1.000  H
  H15      1.0000 0.15200  0.45380  0.48090  Biso   1.000  H
  H16      1.0000 0.34800  0.54620  0.98090  Biso   1.000  H
  C33      1.0000 0.39433  0.21620  0.50571  Biso   1.000  C
  C34      1.0000 0.10567  0.78380  0.00571  Biso   1.000  C
  C35      1.0000 0.89433  0.28380  0.49429  Biso   1.000  C
  C36      1.0000 0.60567  0.71620  0.99429  Biso   1.000  C
  C37      1.0000 0.60567  0.78380  0.49429  Biso   1.000  C
  C38      1.0000 0.89433  0.21620  0.99429  Biso   1.000  C
  C39      1.0000 0.10567  0.71620  0.50571  Biso   1.000  C
  C40      1.0000 0.39433  0.28380  0.00571  Biso   1.000  C
  C41      1.0000 0.20444  0.00320  0.20649  Biso   1.000  C
  C42      1.0000 0.29556  0.99680  0.70649  Biso   1.000  C
  C43      1.0000 0.70444  0.49680  0.79351  Biso   1.000  C
  C44      1.0000 0.79556  0.50320  0.29351  Biso   1.000  C
  C45      1.0000 0.79556  0.99680  0.79351  Biso   1.000  C
  C46      1.0000 0.70444  0.00320  0.29351  Biso   1.000  C
  C47      1.0000 0.29556  0.50320  0.20649  Biso   1.000  C
  C48      1.0000 0.20444  0.49680  0.70649  Biso   1.000  C
  H17      1.0000 0.15600  0.97750  0.18010  Biso   1.000  H
  H18      1.0000 0.34400  0.02250  0.68010  Biso   1.000  H
  H19      1.0000 0.65600  0.52250  0.81990  Biso   1.000  H
  H20      1.0000 0.84400  0.47750  0.31990  Biso   1.000  H
  H21      1.0000 0.84400  0.02250  0.81990  Biso   1.000  H
  H22      1.0000 0.65600  0.97750  0.31990  Biso   1.000  H
  H23      1.0000 0.34400  0.47750  0.18010  Biso   1.000  H
  H24      1.0000 0.15600  0.52250  0.68010  Biso   1.000  H
  C49      1.0000 0.44438  0.30440  0.55231  Biso   1.000  C
  C50      1.0000 0.05562  0.69560  0.05231  Biso   1.000  C
  C51      1.0000 0.94438  0.19560  0.44769  Biso   1.000  C
  C52      1.0000 0.55562  0.80440  0.94769  Biso   1.000  C
  C53      1.0000 0.55562  0.69560  0.44769  Biso   1.000  C
  C54      1.0000 0.94438  0.30440  0.94769  Biso   1.000  C
  C55      1.0000 0.05562  0.80440  0.55231  Biso   1.000  C
  C56      1.0000 0.44438  0.19560  0.05231  Biso   1.000  C
  H25      1.0000 0.44980  0.43800  0.55270  Biso   1.000  H
  H26      1.0000 0.05020  0.56200  0.05270  Biso   1.000  H
  H27      1.0000 0.94980  0.06200  0.44730  Biso   1.000  H
  H28      1.0000 0.55020  0.93800  0.94730  Biso   1.000  H
  H29      1.0000 0.55020  0.56200  0.44730  Biso   1.000  H
  H30      1.0000 0.94980  0.43800  0.94730  Biso   1.000  H
  H31      1.0000 0.05020  0.93800  0.55270  Biso   1.000  H
  H32      1.0000 0.44980  0.06200  0.05270  Biso   1.000  H
  C57      1.0000 0.48591  0.19740  0.59784  Biso   1.000  C
  C58      1.0000 0.01409  0.80260  0.09784  Biso   1.000  C
  C59      1.0000 0.98591  0.30260  0.40216  Biso   1.000  C
  C60      1.0000 0.51409  0.69740  0.90216  Biso   1.000  C
  C61      1.0000 0.51409  0.80260  0.40216  Biso   1.000  C
  C62      1.0000 0.98591  0.19740  0.90216  Biso   1.000  C
  C63      1.0000 0.01409  0.69740  0.59784  Biso   1.000  C
  C64      1.0000 0.48591  0.30260  0.09784  Biso   1.000  C
  H33      1.0000 0.52070  0.26010  0.62860  Biso   1.000  H
  H34      1.0000 0.97930  0.73990  0.12860  Biso   1.000  H
  H35      1.0000 0.02070  0.23990  0.37140  Biso   1.000  H
  H36      1.0000 0.47930  0.76010  0.87140  Biso   1.000  H
  H37      1.0000 0.47930  0.73990  0.37140  Biso   1.000  H
  H38      1.0000 0.02070  0.26010  0.87140  Biso   1.000  H
  H39      1.0000 0.97930  0.76010  0.62860  Biso   1.000  H
  H40      1.0000 0.52070  0.23990  0.12860  Biso   1.000  H
  C65      1.0000 0.28754  0.96780  0.18381  Biso   1.000  C
  C66      1.0000 0.21246  0.03220  0.68381  Biso   1.000  C
  C67      1.0000 0.78754  0.53220  0.81619  Biso   1.000  C
  C68      1.0000 0.71246  0.46780  0.31619  Biso   1.000  C
  C69      1.0000 0.71246  0.03220  0.81619  Biso   1.000  C
  C70      1.0000 0.78754  0.96780  0.31619  Biso   1.000  C
  C71      1.0000 0.21246  0.46780  0.18381  Biso   1.000  C
  C72      1.0000 0.28754  0.53220  0.68381  Biso   1.000  C
  H41      1.0000 0.29650  0.91840  0.14210  Biso   1.000  H
  H42      1.0000 0.20350  0.08160  0.64210  Biso   1.000  H
  H43      1.0000 0.79650  0.58160  0.85790  Biso   1.000  H
  H44      1.0000 0.70350  0.41840  0.35790  Biso   1.000  H
  H45      1.0000 0.70350  0.08160  0.85790  Biso   1.000  H
  H46      1.0000 0.79650  0.91840  0.35790  Biso   1.000  H
  H47      1.0000 0.20350  0.41840  0.14210  Biso   1.000  H
  H48      1.0000 0.29650  0.58160  0.64210  Biso   1.000  H
  C73      1.0000 0.35392  0.33030  0.45253  Biso   1.000  C
  C74      1.0000 0.14608  0.66970  0.95253  Biso   1.000  C
  C75      1.0000 0.85392  0.16970  0.54747  Biso   1.000  C
  C76      1.0000 0.64608  0.83030  0.04747  Biso   1.000  C
  C77      1.0000 0.64608  0.66970  0.54747  Biso   1.000  C
  C78      1.0000 0.85392  0.33030  0.04747  Biso   1.000  C
  C79      1.0000 0.14608  0.83030  0.45253  Biso   1.000  C
  C80      1.0000 0.35392  0.16970  0.95253  Biso   1.000  C
  H49      1.0000 0.29590  0.37230  0.46630  Biso   1.000  H
  H50      1.0000 0.20410  0.62770  0.96630  Biso   1.000  H
  H51      1.0000 0.79590  0.12770  0.53370  Biso   1.000  H
  H52      1.0000 0.70410  0.87230  0.03370  Biso   1.000  H
  H53      1.0000 0.70410  0.62770  0.53370  Biso   1.000  H
  H54      1.0000 0.79590  0.37230  0.03370  Biso   1.000  H
  H55      1.0000 0.20410  0.87230  0.46630  Biso   1.000  H
  H56      1.0000 0.29590  0.12770  0.96630  Biso   1.000  H
  H57      1.0000 0.38930  0.44450  0.44500  Biso   1.000  H
  H58      1.0000 0.11070  0.55550  0.94500  Biso   1.000  H
  H59      1.0000 0.88930  0.05550  0.55500  Biso   1.000  H
  H60      1.0000 0.61070  0.94450  0.05500  Biso   1.000  H
  H61      1.0000 0.61070  0.55550  0.55500  Biso   1.000  H
  H62      1.0000 0.88930  0.44450  0.05500  Biso   1.000  H
  H63      1.0000 0.11070  0.94450  0.44500  Biso   1.000  H
  H64      1.0000 0.38930  0.05550  0.94500  Biso   1.000  H
  C81      1.0000 0.26586  0.20750  0.36989  Biso   1.000  C
  C82      1.0000 0.23414  0.79250  0.86989  Biso   1.000  C
  C83      1.0000 0.76586  0.29250  0.63011  Biso   1.000  C
  C84      1.0000 0.73414  0.70750  0.13011  Biso   1.000  C
  C85      1.0000 0.73414  0.79250  0.63011  Biso   1.000  C
  C86      1.0000 0.76586  0.20750  0.13011  Biso   1.000  C
  C87      1.0000 0.23414  0.70750  0.36989  Biso   1.000  C
  C88      1.0000 0.26586  0.29250  0.86989  Biso   1.000  C
  C89      1.0000 0.45020  0.95080  0.21470  Biso   1.000  C
  C90      1.0000 0.04980  0.04920  0.71470  Biso   1.000  C
  C91      1.0000 0.95020  0.54920  0.78530  Biso   1.000  C
  C92      1.0000 0.54980  0.45080  0.28530  Biso   1.000  C
  C93      1.0000 0.54980  0.04920  0.78530  Biso   1.000  C
  C94      1.0000 0.95020  0.95080  0.28530  Biso   1.000  C
  C95      1.0000 0.04980  0.45080  0.21470  Biso   1.000  C
  C96      1.0000 0.45020  0.54920  0.71470  Biso   1.000  C
  C97      1.0000 0.19238  0.07660  0.26800  Biso   1.000  C
  C98      1.0000 0.30762  0.92340  0.76800  Biso   1.000  C
  C99      1.0000 0.69238  0.42340  0.73200  Biso   1.000  C
  C100     1.0000 0.80762  0.57660  0.23200  Biso   1.000  C
  C101     1.0000 0.80762  0.92340  0.73200  Biso   1.000  C
  C102     1.0000 0.69238  0.07660  0.23200  Biso   1.000  C
  C103     1.0000 0.30762  0.57660  0.26800  Biso   1.000  C
  C104     1.0000 0.19238  0.42340  0.76800  Biso   1.000  C
  H65      1.0000 0.13620  0.09520  0.28490  Biso   1.000  H
  H66      1.0000 0.36380  0.90480  0.78490  Biso   1.000  H
  H67      1.0000 0.63620  0.40480  0.71510  Biso   1.000  H
  H68      1.0000 0.86380  0.59520  0.21510  Biso   1.000  H
  H69      1.0000 0.86380  0.90480  0.71510  Biso   1.000  H
  H70      1.0000 0.63620  0.09520  0.21510  Biso   1.000  H
  H71      1.0000 0.36380  0.59520  0.28490  Biso   1.000  H
  H72      1.0000 0.13620  0.40480  0.78490  Biso   1.000  H
