data_image0
_cell_length_a       11.544
_cell_length_b       16.129
_cell_length_c       21.181
_cell_angle_alpha    90
_cell_angle_beta     98.848
_cell_angle_gamma    90

_symmetry_space_group_name_H-M    "P 1"
_symmetry_int_tables_number       1

loop_
  _symmetry_equiv_pos_as_xyz
  'x, y, z'

loop_
  _atom_site_label
  _atom_site_occupancy
  _atom_site_fract_x
  _atom_site_fract_y
  _atom_site_fract_z
  _atom_site_thermal_displace_type
  _atom_site_B_iso_or_equiv
  _atom_site_type_symbol
  Cu1      1.0000 0.00000  0.00000  0.00000  Biso   1.000  Cu
  Cu2      1.0000 0.00000  0.50000  0.50000  Biso   1.000  Cu
  O1       1.0000 0.86610  0.06820  0.00310  Biso   1.000  O
  O2       1.0000 0.13390  0.56820  0.49690  Biso   1.000  O
  O3       1.0000 0.13390  0.93180  0.99690  Biso   1.000  O
  O4       1.0000 0.86610  0.43180  0.50310  Biso   1.000  O
  N1       1.0000 0.44140  0.10040  0.11260  Biso   1.000  N
  N2       1.0000 0.55860  0.60040  0.38740  Biso   1.000  N
  N3       1.0000 0.55860  0.89960  0.88740  Biso   1.000  N
  N4       1.0000 0.44140  0.39960  0.61260  Biso   1.000  N
  C1       1.0000 0.80050  0.20590  0.00030  Biso   1.000  C
  C2       1.0000 0.19950  0.70590  0.49970  Biso   1.000  C
  C3       1.0000 0.19950  0.79410  0.99970  Biso   1.000  C
  C4       1.0000 0.80050  0.29410  0.50030  Biso   1.000  C
  Cu3      1.0000 0.54012  0.99697  0.11026  Biso   1.000  Cu
  Cu4      1.0000 0.45988  0.49697  0.38974  Biso   1.000  Cu
  Cu5      1.0000 0.45988  0.00303  0.88974  Biso   1.000  Cu
  Cu6      1.0000 0.54012  0.50303  0.61026  Biso   1.000  Cu
  C5       1.0000 0.68970  0.18240  0.01340  Biso   1.000  C
  C6       1.0000 0.31030  0.68240  0.48660  Biso   1.000  C
  C7       1.0000 0.31030  0.81760  0.98660  Biso   1.000  C
  C8       1.0000 0.68970  0.31760  0.51340  Biso   1.000  C
  O5       1.0000 0.98900  0.16400  0.98000  Biso   1.000  O
  O6       1.0000 0.01100  0.66400  0.52000  Biso   1.000  O
  O7       1.0000 0.01100  0.83600  0.02000  Biso   1.000  O
  O8       1.0000 0.98900  0.33600  0.48000  Biso   1.000  O
  N5       1.0000 0.78820  0.21490  0.28630  Biso   1.000  N
  N6       1.0000 0.21180  0.71490  0.21370  Biso   1.000  N
  N7       1.0000 0.21180  0.78510  0.71370  Biso   1.000  N
  N8       1.0000 0.78820  0.28510  0.78630  Biso   1.000  N
  O9       1.0000 0.65780  0.06380  0.07390  Biso   1.000  O
  O10      1.0000 0.34220  0.56380  0.42610  Biso   1.000  O
  O11      1.0000 0.34220  0.93620  0.92610  Biso   1.000  O
  O12      1.0000 0.65780  0.43620  0.57390  Biso   1.000  O
  C9       1.0000 0.60850  0.24370  0.02170  Biso   1.000  C
  C10      1.0000 0.39150  0.74370  0.47830  Biso   1.000  C
  C11      1.0000 0.39150  0.75630  0.97830  Biso   1.000  C
  C12      1.0000 0.60850  0.25630  0.52170  Biso   1.000  C
  H1       1.0000 0.53460  0.22920  0.03030  Biso   1.000  H
  H2       1.0000 0.46540  0.72920  0.46970  Biso   1.000  H
  H3       1.0000 0.46540  0.77080  0.96970  Biso   1.000  H
  H4       1.0000 0.53460  0.27080  0.53030  Biso   1.000  H
  N9       1.0000 0.04390  0.01290  0.09740  Biso   1.000  N
  N10      1.0000 0.95610  0.51290  0.40260  Biso   1.000  N
  N11      1.0000 0.95610  0.98710  0.90260  Biso   1.000  N
  N12      1.0000 0.04390  0.48710  0.59740  Biso   1.000  N
  N13      1.0000 0.38110  0.38500  0.39280  Biso   1.000  N
  N14      1.0000 0.61890  0.88500  0.10720  Biso   1.000  N
  N15      1.0000 0.61890  0.61500  0.60720  Biso   1.000  N
  N16      1.0000 0.38110  0.11500  0.89280  Biso   1.000  N
  O13      1.0000 0.60120  0.05930  0.96800  Biso   1.000  O
  O14      1.0000 0.39880  0.55930  0.53200  Biso   1.000  O
  O15      1.0000 0.39880  0.94070  0.03200  Biso   1.000  O
  O16      1.0000 0.60120  0.44070  0.46800  Biso   1.000  O
  C13      1.0000 0.63860  0.32670  0.01700  Biso   1.000  C
  C14      1.0000 0.36140  0.82670  0.48300  Biso   1.000  C
  C15      1.0000 0.36140  0.67330  0.98300  Biso   1.000  C
  C16      1.0000 0.63860  0.17330  0.51700  Biso   1.000  C
  O17      1.0000 0.35530  0.50510  0.27170  Biso   1.000  O
  O18      1.0000 0.64470  0.00510  0.22830  Biso   1.000  O
  O19      1.0000 0.64470  0.49490  0.72830  Biso   1.000  O
  O20      1.0000 0.35530  0.99490  0.77170  Biso   1.000  O
  C17      1.0000 0.74620  0.35030  0.00340  Biso   1.000  C
  C18      1.0000 0.25380  0.85030  0.49660  Biso   1.000  C
  C19      1.0000 0.25380  0.64970  0.99660  Biso   1.000  C
  C20      1.0000 0.74620  0.14970  0.50340  Biso   1.000  C
  H5       1.0000 0.76470  0.40600  0.99990  Biso   1.000  H
  H6       1.0000 0.23530  0.90600  0.50010  Biso   1.000  H
  H7       1.0000 0.23530  0.59400  0.00010  Biso   1.000  H
  H8       1.0000 0.76470  0.09400  0.49990  Biso   1.000  H
  O21      1.0000 0.53010  0.45800  0.31511  Biso   1.000  O
  O22      1.0000 0.46990  0.95800  0.18489  Biso   1.000  O
  O23      1.0000 0.46990  0.54200  0.68489  Biso   1.000  O
  O24      1.0000 0.53010  0.04200  0.81511  Biso   1.000  O
  C21      1.0000 0.82650  0.28910  0.99510  Biso   1.000  C
  C22      1.0000 0.17350  0.78910  0.50490  Biso   1.000  C
  C23      1.0000 0.17350  0.71090  0.00490  Biso   1.000  C
  C24      1.0000 0.82650  0.21090  0.49510  Biso   1.000  C
  H9       1.0000 0.89970  0.30430  0.98580  Biso   1.000  H
  H10      1.0000 0.10030  0.80430  0.51420  Biso   1.000  H
  H11      1.0000 0.10030  0.69570  0.01420  Biso   1.000  H
  H12      1.0000 0.89970  0.19570  0.48580  Biso   1.000  H
  O25      1.0000 0.36360  0.62070  0.16750  Biso   1.000  O
  O26      1.0000 0.63640  0.12070  0.33250  Biso   1.000  O
  O27      1.0000 0.63640  0.37930  0.83250  Biso   1.000  O
  O28      1.0000 0.36360  0.87930  0.66750  Biso   1.000  O
  H13      1.0000 0.31160  0.65610  0.17700  Biso   1.000  H
  H14      1.0000 0.68840  0.15610  0.32300  Biso   1.000  H
  H15      1.0000 0.68840  0.34390  0.82300  Biso   1.000  H
  H16      1.0000 0.31160  0.84390  0.67700  Biso   1.000  H
  C25      1.0000 0.48080  0.45150  0.20250  Biso   1.000  C
  C26      1.0000 0.51920  0.95150  0.29750  Biso   1.000  C
  C27      1.0000 0.51920  0.54850  0.79750  Biso   1.000  C
  C28      1.0000 0.48080  0.04850  0.70250  Biso   1.000  C
  C29      1.0000 0.41690  0.48460  0.14630  Biso   1.000  C
  C30      1.0000 0.58310  0.98460  0.35370  Biso   1.000  C
  C31      1.0000 0.58310  0.51540  0.85370  Biso   1.000  C
  C32      1.0000 0.41690  0.01540  0.64630  Biso   1.000  C
  O29      1.0000 0.22050  0.53250  0.13020  Biso   1.000  O
  O30      1.0000 0.77950  0.03250  0.36980  Biso   1.000  O
  O31      1.0000 0.77950  0.46750  0.86980  Biso   1.000  O
  O32      1.0000 0.22050  0.96750  0.63020  Biso   1.000  O
  O33      1.0000 0.55410  0.38730  0.02300  Biso   1.000  O
  O34      1.0000 0.44590  0.88730  0.47700  Biso   1.000  O
  O35      1.0000 0.44590  0.61270  0.97700  Biso   1.000  O
  O36      1.0000 0.55410  0.11270  0.52300  Biso   1.000  O
  C33      1.0000 0.44280  0.46130  0.08780  Biso   1.000  C
  C34      1.0000 0.55720  0.96130  0.41220  Biso   1.000  C
  C35      1.0000 0.55720  0.53870  0.91220  Biso   1.000  C
  C36      1.0000 0.44280  0.03870  0.58780  Biso   1.000  C
  H17      1.0000 0.39960  0.48270  0.05070  Biso   1.000  H
  H18      1.0000 0.60040  0.98270  0.44930  Biso   1.000  H
  H19      1.0000 0.60040  0.51730  0.94930  Biso   1.000  H
  H20      1.0000 0.39960  0.01730  0.55070  Biso   1.000  H
  C37      1.0000 0.53360  0.40550  0.08390  Biso   1.000  C
  C38      1.0000 0.46640  0.90550  0.41610  Biso   1.000  C
  C39      1.0000 0.46640  0.59450  0.91610  Biso   1.000  C
  C40      1.0000 0.53360  0.09450  0.58390  Biso   1.000  C
  C41      1.0000 0.59800  0.37180  0.13850  Biso   1.000  C
  C42      1.0000 0.40200  0.87180  0.36150  Biso   1.000  C
  C43      1.0000 0.40200  0.62820  0.86150  Biso   1.000  C
  C44      1.0000 0.59800  0.12820  0.63850  Biso   1.000  C
  H21      1.0000 0.65850  0.33450  0.13590  Biso   1.000  H
  H22      1.0000 0.34150  0.83450  0.36410  Biso   1.000  H
  H23      1.0000 0.34150  0.66550  0.86410  Biso   1.000  H
  H24      1.0000 0.65850  0.16550  0.63590  Biso   1.000  H
  C45      1.0000 0.56920  0.39550  0.19730  Biso   1.000  C
  C46      1.0000 0.43080  0.89550  0.30270  Biso   1.000  C
  C47      1.0000 0.43080  0.60450  0.80270  Biso   1.000  C
  C48      1.0000 0.56920  0.10450  0.69730  Biso   1.000  C
  H25      1.0000 0.61100  0.37280  0.23430  Biso   1.000  H
  H26      1.0000 0.38900  0.87280  0.26570  Biso   1.000  H
  H27      1.0000 0.38900  0.62720  0.76570  Biso   1.000  H
  H28      1.0000 0.61100  0.12720  0.73430  Biso   1.000  H
  C49      1.0000 0.89290  0.14410  0.99350  Biso   1.000  C
  C50      1.0000 0.10710  0.64410  0.50650  Biso   1.000  C
  C51      1.0000 0.10710  0.85590  0.00650  Biso   1.000  C
  C52      1.0000 0.89290  0.35590  0.49350  Biso   1.000  C
  C53      1.0000 0.64830  0.09360  0.01820  Biso   1.000  C
  C54      1.0000 0.35170  0.59360  0.48180  Biso   1.000  C
  C55      1.0000 0.35170  0.90640  0.98180  Biso   1.000  C
  C56      1.0000 0.64830  0.40640  0.51820  Biso   1.000  C
  C57      1.0000 0.45190  0.47330  0.26650  Biso   1.000  C
  C58      1.0000 0.54810  0.97330  0.23350  Biso   1.000  C
  C59      1.0000 0.54810  0.52670  0.73350  Biso   1.000  C
  C60      1.0000 0.45190  0.02670  0.76650  Biso   1.000  C
  C61      1.0000 0.32120  0.54810  0.14830  Biso   1.000  C
  C62      1.0000 0.67880  0.04810  0.35170  Biso   1.000  C
  C63      1.0000 0.67880  0.45190  0.85170  Biso   1.000  C
  C64      1.0000 0.32120  0.95190  0.64830  Biso   1.000  C
  C65      1.0000 0.35360  0.11860  0.06560  Biso   1.000  C
  C66      1.0000 0.64640  0.61860  0.43440  Biso   1.000  C
  C67      1.0000 0.64640  0.88140  0.93440  Biso   1.000  C
  C68      1.0000 0.35360  0.38140  0.56560  Biso   1.000  C
  H29      1.0000 0.34200  0.08520  0.02940  Biso   1.000  H
  H30      1.0000 0.65800  0.58520  0.47060  Biso   1.000  H
  H31      1.0000 0.65800  0.91480  0.97060  Biso   1.000  H
  H32      1.0000 0.34200  0.41480  0.52940  Biso   1.000  H
  C69      1.0000 0.27910  0.18600  0.06890  Biso   1.000  C
  C70      1.0000 0.72090  0.68600  0.43110  Biso   1.000  C
  C71      1.0000 0.72090  0.81400  0.93110  Biso   1.000  C
  C72      1.0000 0.27910  0.31400  0.56890  Biso   1.000  C
  H33      1.0000 0.21930  0.19680  0.03520  Biso   1.000  H
  H34      1.0000 0.78070  0.69680  0.46480  Biso   1.000  H
  H35      1.0000 0.78070  0.80320  0.96480  Biso   1.000  H
  H36      1.0000 0.21930  0.30320  0.53520  Biso   1.000  H
  C73      1.0000 0.29370  0.23650  0.12200  Biso   1.000  C
  C74      1.0000 0.70630  0.73650  0.37800  Biso   1.000  C
  C75      1.0000 0.70630  0.76350  0.87800  Biso   1.000  C
  C76      1.0000 0.29370  0.26350  0.62200  Biso   1.000  C
  C77      1.0000 0.38570  0.21700  0.16990  Biso   1.000  C
  C78      1.0000 0.61430  0.71700  0.33010  Biso   1.000  C
  C79      1.0000 0.61430  0.78300  0.83010  Biso   1.000  C
  C80      1.0000 0.38570  0.28300  0.66990  Biso   1.000  C
  H37      1.0000 0.39950  0.24990  0.20630  Biso   1.000  H
  H38      1.0000 0.60050  0.74990  0.29370  Biso   1.000  H
  H39      1.0000 0.60050  0.75010  0.79370  Biso   1.000  H
  H40      1.0000 0.39950  0.25010  0.70630  Biso   1.000  H
  C81      1.0000 0.45670  0.14960  0.16420  Biso   1.000  C
  C82      1.0000 0.54330  0.64960  0.33580  Biso   1.000  C
  C83      1.0000 0.54330  0.85040  0.83580  Biso   1.000  C
  C84      1.0000 0.45670  0.35040  0.66420  Biso   1.000  C
  H41      1.0000 0.51730  0.13800  0.19730  Biso   1.000  H
  H42      1.0000 0.48270  0.63800  0.30270  Biso   1.000  H
  H43      1.0000 0.48270  0.86200  0.80270  Biso   1.000  H
  H44      1.0000 0.51730  0.36200  0.69730  Biso   1.000  H
  C85      1.0000 0.78460  0.19980  0.22380  Biso   1.000  C
  C86      1.0000 0.21540  0.69980  0.27620  Biso   1.000  C
  C87      1.0000 0.21540  0.80020  0.77620  Biso   1.000  C
  C88      1.0000 0.78460  0.30020  0.72380  Biso   1.000  C
  H45      1.0000 0.73180  0.16030  0.20470  Biso   1.000  H
  H46      1.0000 0.26820  0.66030  0.29530  Biso   1.000  H
  H47      1.0000 0.26820  0.83970  0.79530  Biso   1.000  H
  H48      1.0000 0.73180  0.33970  0.70470  Biso   1.000  H
  C89      1.0000 0.85480  0.23960  0.18640  Biso   1.000  C
  C90      1.0000 0.14520  0.73960  0.31360  Biso   1.000  C
  C91      1.0000 0.14520  0.76040  0.81360  Biso   1.000  C
  C92      1.0000 0.85480  0.26040  0.68640  Biso   1.000  C
  H49      1.0000 0.84710  0.22850  0.14280  Biso   1.000  H
  H50      1.0000 0.15290  0.72850  0.35720  Biso   1.000  H
  H51      1.0000 0.15290  0.77150  0.85720  Biso   1.000  H
  H52      1.0000 0.84710  0.27150  0.64280  Biso   1.000  H
  C93      1.0000 0.93660  0.29620  0.21440  Biso   1.000  C
  C94      1.0000 0.06340  0.79620  0.28560  Biso   1.000  C
  C95      1.0000 0.06340  0.70380  0.78560  Biso   1.000  C
  C96      1.0000 0.93660  0.20380  0.71440  Biso   1.000  C
  C97      1.0000 0.94110  0.31080  0.27890  Biso   1.000  C
  C98      1.0000 0.05890  0.81080  0.22110  Biso   1.000  C
  C99      1.0000 0.05890  0.68920  0.72110  Biso   1.000  C
  C100     1.0000 0.94110  0.18920  0.77890  Biso   1.000  C
  H53      1.0000 0.99440  0.34880  0.29980  Biso   1.000  H
  H54      1.0000 0.00560  0.84880  0.20020  Biso   1.000  H
  H55      1.0000 0.00560  0.65120  0.70020  Biso   1.000  H
  H56      1.0000 0.99440  0.15120  0.79980  Biso   1.000  H
  C101     1.0000 0.86700  0.26930  0.31160  Biso   1.000  C
  C102     1.0000 0.13300  0.76930  0.18840  Biso   1.000  C
  C103     1.0000 0.13300  0.73070  0.68840  Biso   1.000  C
  C104     1.0000 0.86700  0.23070  0.81160  Biso   1.000  C
  H57      1.0000 0.87220  0.28010  0.35510  Biso   1.000  H
  H58      1.0000 0.12780  0.78010  0.14490  Biso   1.000  H
  H59      1.0000 0.12780  0.71990  0.64490  Biso   1.000  H
  H60      1.0000 0.87220  0.21990  0.85510  Biso   1.000  H
  C105     1.0000 0.20780  0.30500  0.12910  Biso   1.000  C
  C106     1.0000 0.79220  0.80500  0.37090  Biso   1.000  C
  C107     1.0000 0.79220  0.69500  0.87090  Biso   1.000  C
  C108     1.0000 0.20780  0.19500  0.62910  Biso   1.000  C
  H61      1.0000 0.24770  0.35060  0.15320  Biso   1.000  H
  H62      1.0000 0.75230  0.85060  0.34680  Biso   1.000  H
  H63      1.0000 0.75230  0.64940  0.84680  Biso   1.000  H
  H64      1.0000 0.24770  0.14940  0.65320  Biso   1.000  H
  H65      1.0000 0.17340  0.32550  0.08730  Biso   1.000  H
  H66      1.0000 0.82660  0.82550  0.41270  Biso   1.000  H
  H67      1.0000 0.82660  0.67450  0.91270  Biso   1.000  H
  H68      1.0000 0.17340  0.17450  0.58730  Biso   1.000  H
  C109     1.0000 0.11390  0.27090  0.16350  Biso   1.000  C
  C110     1.0000 0.88610  0.77090  0.33650  Biso   1.000  C
  C111     1.0000 0.88610  0.72910  0.83650  Biso   1.000  C
  C112     1.0000 0.11390  0.22910  0.66350  Biso   1.000  C
  H69      1.0000 0.15030  0.24860  0.20430  Biso   1.000  H
  H70      1.0000 0.84970  0.74860  0.29570  Biso   1.000  H
  H71      1.0000 0.84970  0.75140  0.79570  Biso   1.000  H
  H72      1.0000 0.15030  0.25140  0.70430  Biso   1.000  H
  H73      1.0000 0.07500  0.22550  0.13870  Biso   1.000  H
  H74      1.0000 0.92500  0.72550  0.36130  Biso   1.000  H
  H75      1.0000 0.92500  0.77450  0.86130  Biso   1.000  H
  H76      1.0000 0.07500  0.27450  0.63870  Biso   1.000  H
  C113     1.0000 0.02130  0.33510  0.17540  Biso   1.000  C
  C114     1.0000 0.97870  0.83510  0.32460  Biso   1.000  C
  C115     1.0000 0.97870  0.66490  0.82460  Biso   1.000  C
  C116     1.0000 0.02130  0.16490  0.67540  Biso   1.000  C
  H77      1.0000 0.05940  0.38250  0.19800  Biso   1.000  H
  H78      1.0000 0.94060  0.88250  0.30200  Biso   1.000  H
  H79      1.0000 0.94060  0.61750  0.80200  Biso   1.000  H
  H80      1.0000 0.05940  0.11750  0.69800  Biso   1.000  H
  H81      1.0000 0.97920  0.35440  0.13490  Biso   1.000  H
  H82      1.0000 0.02080  0.85440  0.36510  Biso   1.000  H
  H83      1.0000 0.02080  0.64560  0.86510  Biso   1.000  H
  H84      1.0000 0.97920  0.14560  0.63490  Biso   1.000  H
  C117     1.0000 0.15450  0.00000  0.12720  Biso   1.000  C
  C118     1.0000 0.84550  0.50000  0.37280  Biso   1.000  C
  C119     1.0000 0.84550  0.00000  0.87280  Biso   1.000  C
  C120     1.0000 0.15450  0.50000  0.62720  Biso   1.000  C
  H85      1.0000 0.21140  0.98540  0.10250  Biso   1.000  H
  H86      1.0000 0.78860  0.48540  0.39750  Biso   1.000  H
  H87      1.0000 0.78860  0.01460  0.89750  Biso   1.000  H
  H88      1.0000 0.21140  0.51460  0.60250  Biso   1.000  H
  C121     1.0000 0.18680  0.00710  0.19140  Biso   1.000  C
  C122     1.0000 0.81320  0.50710  0.30860  Biso   1.000  C
  C123     1.0000 0.81320  0.99290  0.80860  Biso   1.000  C
  C124     1.0000 0.18680  0.49290  0.69140  Biso   1.000  C
  H89      1.0000 0.26470  0.99930  0.20940  Biso   1.000  H
  H90      1.0000 0.73530  0.49930  0.29060  Biso   1.000  H
  H91      1.0000 0.73530  0.00070  0.79060  Biso   1.000  H
  H92      1.0000 0.26470  0.50070  0.70940  Biso   1.000  H
  C125     1.0000 0.10310  0.02610  0.23080  Biso   1.000  C
  C126     1.0000 0.89690  0.52610  0.26920  Biso   1.000  C
  C127     1.0000 0.89690  0.97390  0.76920  Biso   1.000  C
  C128     1.0000 0.10310  0.47390  0.73080  Biso   1.000  C
  C129     1.0000 0.99000  0.03660  0.20010  Biso   1.000  C
  C130     1.0000 0.01000  0.53660  0.29990  Biso   1.000  C
  C131     1.0000 0.01000  0.96340  0.79990  Biso   1.000  C
  C132     1.0000 0.99000  0.46340  0.70010  Biso   1.000  C
  H93      1.0000 0.93070  0.04760  0.22410  Biso   1.000  H
  H94      1.0000 0.06930  0.54760  0.27590  Biso   1.000  H
  H95      1.0000 0.06930  0.95240  0.77590  Biso   1.000  H
  H96      1.0000 0.93070  0.45240  0.72410  Biso   1.000  H
  C133     1.0000 0.96290  0.03110  0.13450  Biso   1.000  C
  C134     1.0000 0.03710  0.53110  0.36550  Biso   1.000  C
  C135     1.0000 0.03710  0.96890  0.86550  Biso   1.000  C
  C136     1.0000 0.96290  0.46890  0.63450  Biso   1.000  C
  H97      1.0000 0.88590  0.04020  0.11530  Biso   1.000  H
  H98      1.0000 0.11410  0.54020  0.38470  Biso   1.000  H
  H99      1.0000 0.11410  0.95980  0.88470  Biso   1.000  H
  H100     1.0000 0.88590  0.45980  0.61530  Biso   1.000  H
  C137     1.0000 0.44340  0.31770  0.38280  Biso   1.000  C
  C138     1.0000 0.55660  0.81770  0.11720  Biso   1.000  C
  C139     1.0000 0.55660  0.68230  0.61720  Biso   1.000  C
  C140     1.0000 0.44340  0.18230  0.88280  Biso   1.000  C
  H101     1.0000 0.52070  0.32450  0.37610  Biso   1.000  H
  H102     1.0000 0.47930  0.82450  0.12390  Biso   1.000  H
  H103     1.0000 0.47930  0.67550  0.62390  Biso   1.000  H
  H104     1.0000 0.52070  0.17550  0.87610  Biso   1.000  H
  C141     1.0000 0.39800  0.23880  0.38180  Biso   1.000  C
  C142     1.0000 0.60200  0.73880  0.11820  Biso   1.000  C
  C143     1.0000 0.60200  0.76120  0.61820  Biso   1.000  C
  C144     1.0000 0.39800  0.26120  0.88180  Biso   1.000  C
  H105     1.0000 0.44420  0.19340  0.37510  Biso   1.000  H
  H106     1.0000 0.55580  0.69340  0.12490  Biso   1.000  H
  H107     1.0000 0.55580  0.80660  0.62490  Biso   1.000  H
  H108     1.0000 0.44420  0.30660  0.87510  Biso   1.000  H
  C145     1.0000 0.28320  0.22770  0.39080  Biso   1.000  C
  C146     1.0000 0.71680  0.72770  0.10920  Biso   1.000  C
  C147     1.0000 0.71680  0.77230  0.60920  Biso   1.000  C
  C148     1.0000 0.28320  0.27230  0.89080  Biso   1.000  C
  C149     1.0000 0.22010  0.29710  0.40140  Biso   1.000  C
  C150     1.0000 0.77990  0.79710  0.09860  Biso   1.000  C
  C151     1.0000 0.77990  0.70290  0.59860  Biso   1.000  C
  C152     1.0000 0.22010  0.20290  0.90140  Biso   1.000  C
  H109     1.0000 0.14280  0.29210  0.40830  Biso   1.000  H
  H110     1.0000 0.85720  0.79210  0.09170  Biso   1.000  H
  H111     1.0000 0.85720  0.70790  0.59170  Biso   1.000  H
  H112     1.0000 0.14280  0.20790  0.90830  Biso   1.000  H
  C153     1.0000 0.27150  0.37430  0.40190  Biso   1.000  C
  C154     1.0000 0.72850  0.87430  0.09810  Biso   1.000  C
  C155     1.0000 0.72850  0.62570  0.59810  Biso   1.000  C
  C156     1.0000 0.27150  0.12570  0.90190  Biso   1.000  C
  H113     1.0000 0.22720  0.42060  0.40880  Biso   1.000  H
  H114     1.0000 0.77280  0.92060  0.09120  Biso   1.000  H
  H115     1.0000 0.77280  0.57940  0.59120  Biso   1.000  H
  H116     1.0000 0.22720  0.07940  0.90880  Biso   1.000  H
  C157     1.0000 0.13750  0.03600  0.30160  Biso   1.000  C
  C158     1.0000 0.86250  0.53600  0.19840  Biso   1.000  C
  C159     1.0000 0.86250  0.96400  0.69840  Biso   1.000  C
  C160     1.0000 0.13750  0.46400  0.80160  Biso   1.000  C
  H117     1.0000 0.19430  0.99390  0.31790  Biso   1.000  H
  H118     1.0000 0.80570  0.49390  0.18210  Biso   1.000  H
  H119     1.0000 0.80570  0.00610  0.68210  Biso   1.000  H
  H120     1.0000 0.19430  0.50610  0.81790  Biso   1.000  H
  H121     1.0000 0.06920  0.02950  0.32280  Biso   1.000  H
  H122     1.0000 0.93080  0.52950  0.17720  Biso   1.000  H
  H123     1.0000 0.93080  0.97050  0.67720  Biso   1.000  H
  H124     1.0000 0.06920  0.47050  0.82280  Biso   1.000  H
  C161     1.0000 0.19030  0.12190  0.31520  Biso   1.000  C
  C162     1.0000 0.80970  0.62190  0.18480  Biso   1.000  C
  C163     1.0000 0.80970  0.87810  0.68480  Biso   1.000  C
  C164     1.0000 0.19030  0.37810  0.81520  Biso   1.000  C
  H125     1.0000 0.13260  0.16290  0.29790  Biso   1.000  H
  H126     1.0000 0.86740  0.66290  0.20210  Biso   1.000  H
  H127     1.0000 0.86740  0.83710  0.70210  Biso   1.000  H
  H128     1.0000 0.13260  0.33710  0.79790  Biso   1.000  H
  H129     1.0000 0.25690  0.12750  0.29270  Biso   1.000  H
  H130     1.0000 0.74310  0.62750  0.20730  Biso   1.000  H
  H131     1.0000 0.74310  0.87250  0.70730  Biso   1.000  H
  H132     1.0000 0.25690  0.37250  0.79270  Biso   1.000  H
  C165     1.0000 0.23040  0.14110  0.38580  Biso   1.000  C
  C166     1.0000 0.76960  0.64110  0.11420  Biso   1.000  C
  C167     1.0000 0.76960  0.85890  0.61420  Biso   1.000  C
  C168     1.0000 0.23040  0.35890  0.88580  Biso   1.000  C
  H133     1.0000 0.16420  0.13840  0.40890  Biso   1.000  H
  H134     1.0000 0.83580  0.63840  0.09110  Biso   1.000  H
  H135     1.0000 0.83580  0.86160  0.59110  Biso   1.000  H
  H136     1.0000 0.16420  0.36160  0.90890  Biso   1.000  H
  H137     1.0000 0.28830  0.10080  0.40410  Biso   1.000  H
  H138     1.0000 0.71170  0.60080  0.09590  Biso   1.000  H
  H139     1.0000 0.71170  0.89920  0.59590  Biso   1.000  H
  H140     1.0000 0.28830  0.39920  0.90410  Biso   1.000  H
