data_image0
_cell_length_a       9.43
_cell_length_b       12.148
_cell_length_c       13.721
_cell_angle_alpha    109.62
_cell_angle_beta     94.351
_cell_angle_gamma    94.83

_symmetry_space_group_name_H-M    "P 1"
_symmetry_int_tables_number       1

loop_
  _symmetry_equiv_pos_as_xyz
  'x, y, z'

loop_
  _atom_site_label
  _atom_site_occupancy
  _atom_site_fract_x
  _atom_site_fract_y
  _atom_site_fract_z
  _atom_site_thermal_displace_type
  _atom_site_B_iso_or_equiv
  _atom_site_type_symbol
  Cu1      1.0000 0.00000  0.50000  0.00000  Biso   1.000  Cu
  Cu2      1.0000 0.00000  0.50000  0.50000  Biso   1.000  Cu
  O1       1.0000 0.83605  0.48984  0.07886  Biso   1.000  O
  O2       1.0000 0.16395  0.51016  0.92114  Biso   1.000  O
  O3       1.0000 0.89288  0.35652  0.15007  Biso   1.000  O
  O4       1.0000 0.10712  0.64348  0.84993  Biso   1.000  O
  O5       1.0000 0.89255  0.49872  0.36785  Biso   1.000  O
  O6       1.0000 0.10745  0.50128  0.63215  Biso   1.000  O
  O7       1.0000 0.75350  0.37489  0.41585  Biso   1.000  O
  O8       1.0000 0.24650  0.62511  0.58415  Biso   1.000  O
  O9       1.0000 0.12690  0.91634  0.02893  Biso   1.000  O
  O10      1.0000 0.87310  0.08366  0.97107  Biso   1.000  O
  O11      1.0000 0.33890  0.95075  0.43373  Biso   1.000  O
  O12      1.0000 0.66110  0.04925  0.56627  Biso   1.000  O
  N1       1.0000 0.11360  0.60840  0.12922  Biso   1.000  N
  N2       1.0000 0.88640  0.39160  0.87078  Biso   1.000  N
  N3       1.0000 0.20680  0.69517  0.29135  Biso   1.000  N
  N4       1.0000 0.79320  0.30483  0.70865  Biso   1.000  N
  N5       1.0000 0.09410  0.36074  0.42304  Biso   1.000  N
  N6       1.0000 0.90590  0.63926  0.57696  Biso   1.000  N
  N7       1.0000 0.12870  0.19622  0.30264  Biso   1.000  N
  N8       1.0000 0.87130  0.80378  0.69736  Biso   1.000  N
  C1       1.0000 0.27320  0.75290  0.23392  Biso   1.000  C
  C2       1.0000 0.72680  0.24710  0.76608  Biso   1.000  C
  H1       1.0000 0.34460  0.81640  0.25850  Biso   1.000  H
  H2       1.0000 0.65540  0.18360  0.74150  Biso   1.000  H
  C3       1.0000 0.21430  0.69940  0.13472  Biso   1.000  C
  C4       1.0000 0.78570  0.30060  0.86528  Biso   1.000  C
  H3       1.0000 0.23830  0.72080  0.07850  Biso   1.000  H
  H4       1.0000 0.76170  0.27920  0.92150  Biso   1.000  H
  C5       1.0000 0.11230  0.60960  0.22546  Biso   1.000  C
  C6       1.0000 0.88770  0.39040  0.77454  Biso   1.000  C
  H5       1.0000 0.05300  0.55740  0.24510  Biso   1.000  H
  H6       1.0000 0.94700  0.44260  0.75490  Biso   1.000  H
  C7       1.0000 0.23950  0.71560  0.40292  Biso   1.000  C
  C8       1.0000 0.76050  0.28440  0.59708  Biso   1.000  C
  H7       1.0000 0.34270  0.72840  0.41960  Biso   1.000  H
  H8       1.0000 0.65730  0.27160  0.58040  Biso   1.000  H
  H9       1.0000 0.20540  0.64470  0.41580  Biso   1.000  H
  H10      1.0000 0.79460  0.35530  0.58420  Biso   1.000  H
  C9       1.0000 0.17640  0.81810  0.47642  Biso   1.000  C
  C10      1.0000 0.82360  0.18190  0.52358  Biso   1.000  C
  H11      1.0000 0.07760  0.81610  0.44970  Biso   1.000  H
  H12      1.0000 0.92240  0.18390  0.55030  Biso   1.000  H
  H13      1.0000 0.17600  0.80760  0.54350  Biso   1.000  H
  H14      1.0000 0.82400  0.19240  0.45650  Biso   1.000  H
  C11      1.0000 0.25400  0.93790  0.49264  Biso   1.000  C
  C12      1.0000 0.74600  0.06210  0.50736  Biso   1.000  C
  C13      1.0000 0.22880  0.04100  0.58295  Biso   1.000  C
  C14      1.0000 0.77120  0.95900  0.41705  Biso   1.000  C
  C15      1.0000 0.11600  0.03980  0.64170  Biso   1.000  C
  C16      1.0000 0.88400  0.96020  0.35830  Biso   1.000  C
  H15      1.0000 0.05070  0.97260  0.62460  Biso   1.000  H
  H16      1.0000 0.94930  0.02740  0.37540  Biso   1.000  H
  C17      1.0000 0.10030  0.13820  0.72590  Biso   1.000  C
  C18      1.0000 0.89970  0.86180  0.27410  Biso   1.000  C
  H17      1.0000 0.02310  0.13730  0.76410  Biso   1.000  H
  H18      1.0000 0.97690  0.86270  0.23590  Biso   1.000  H
  C19      1.0000 0.19670  0.23690  0.75350  Biso   1.000  C
  C20      1.0000 0.80330  0.76310  0.24650  Biso   1.000  C
  H19      1.0000 0.18600  0.30230  0.81080  Biso   1.000  H
  H20      1.0000 0.81400  0.69770  0.18920  Biso   1.000  H
  C21      1.0000 0.31010  0.23920  0.69620  Biso   1.000  C
  C22      1.0000 0.68990  0.76080  0.30380  Biso   1.000  C
  H21      1.0000 0.37590  0.30620  0.71460  Biso   1.000  H
  H22      1.0000 0.62410  0.69380  0.28540  Biso   1.000  H
  C23      1.0000 0.32590  0.14200  0.61150  Biso   1.000  C
  C24      1.0000 0.67410  0.85800  0.38850  Biso   1.000  C
  H23      1.0000 0.40250  0.14400  0.57300  Biso   1.000  H
  H24      1.0000 0.59750  0.85600  0.42700  Biso   1.000  H
  C25      1.0000 0.81300  0.42650  0.13447  Biso   1.000  C
  C26      1.0000 0.18700  0.57350  0.86553  Biso   1.000  C
  C27      1.0000 0.67250  0.43620  0.18006  Biso   1.000  C
  C28      1.0000 0.32750  0.56380  0.81994  Biso   1.000  C
  C29      1.0000 0.55250  0.44130  0.11655  Biso   1.000  C
  C30      1.0000 0.44750  0.55870  0.88345  Biso   1.000  C
  H25      1.0000 0.56370  0.44500  0.05090  Biso   1.000  H
  H26      1.0000 0.43630  0.55500  0.94910  Biso   1.000  H
  C31      1.0000 0.41790  0.44100  0.14850  Biso   1.000  C
  C32      1.0000 0.58210  0.55900  0.85150  Biso   1.000  C
  H27      1.0000 0.33900  0.44380  0.10470  Biso   1.000  H
  H28      1.0000 0.66100  0.55620  0.89530  Biso   1.000  H
  C33      1.0000 0.40080  0.43650  0.24590  Biso   1.000  C
  C34      1.0000 0.59920  0.56350  0.75410  Biso   1.000  C
  H29      1.0000 0.31010  0.43620  0.26810  Biso   1.000  H
  H30      1.0000 0.68990  0.56380  0.73190  Biso   1.000  H
  C35      1.0000 0.51800  0.43250  0.31030  Biso   1.000  C
  C36      1.0000 0.48200  0.56750  0.68970  Biso   1.000  C
  H31      1.0000 0.50520  0.42970  0.37600  Biso   1.000  H
  H32      1.0000 0.49480  0.57030  0.62400  Biso   1.000  H
  C37      1.0000 0.65530  0.43250  0.27957  Biso   1.000  C
  C38      1.0000 0.34470  0.56750  0.72043  Biso   1.000  C
  C39      1.0000 0.77540  0.43290  0.35860  Biso   1.000  C
  C40      1.0000 0.22460  0.56710  0.64140  Biso   1.000  C
  C41      1.0000 0.21700  0.20620  0.38920  Biso   1.000  C
  C42      1.0000 0.78300  0.79380  0.61080  Biso   1.000  C
  H33      1.0000 0.28000  0.15360  0.39600  Biso   1.000  H
  H34      1.0000 0.72000  0.84640  0.60400  Biso   1.000  H
  C43      1.0000 0.19510  0.30680  0.46260  Biso   1.000  C
  C44      1.0000 0.80490  0.69320  0.53740  Biso   1.000  C
  H35      1.0000 0.24110  0.33580  0.53010  Biso   1.000  H
  H36      1.0000 0.75890  0.66420  0.46990  Biso   1.000  H
  C45      1.0000 0.05670  0.28980  0.32641  Biso   1.000  C
  C46      1.0000 0.94330  0.71020  0.67359  Biso   1.000  C
  H37      1.0000 0.98840  0.30330  0.28050  Biso   1.000  H
  H38      1.0000 0.01160  0.69670  0.71950  Biso   1.000  H
  C47      1.0000 0.11220  0.09720  0.20420  Biso   1.000  C
  C48      1.0000 0.88780  0.90280  0.79580  Biso   1.000  C
  H39      1.0000 0.01540  0.08820  0.17090  Biso   1.000  H
  H40      1.0000 0.98460  0.91180  0.82910  Biso   1.000  H
  H41      1.0000 0.12600  0.02560  0.21860  Biso   1.000  H
  H42      1.0000 0.87400  0.97440  0.78140  Biso   1.000  H
  C49      1.0000 0.21590  0.11240  0.13080  Biso   1.000  C
  C50      1.0000 0.78410  0.88760  0.86920  Biso   1.000  C
  H43      1.0000 0.31240  0.12960  0.16620  Biso   1.000  H
  H44      1.0000 0.68760  0.87040  0.83380  Biso   1.000  H
  H45      1.0000 0.19530  0.17870  0.10990  Biso   1.000  H
  H46      1.0000 0.80470  0.82130  0.89010  Biso   1.000  H
  C51      1.0000 0.20680  0.00360  0.03560  Biso   1.000  C
  C52      1.0000 0.79320  0.99640  0.96440  Biso   1.000  C
  C53      1.0000 0.29580  0.00420  0.95096  Biso   1.000  C
  C54      1.0000 0.70420  0.99580  0.04904  Biso   1.000  C
  C55      1.0000 0.37590  0.10650  0.95210  Biso   1.000  C
  C56      1.0000 0.62410  0.89350  0.04790  Biso   1.000  C
  H47      1.0000 0.37640  0.17620  0.00770  Biso   1.000  H
  H48      1.0000 0.62360  0.82380  0.99230  Biso   1.000  H
  C57      1.0000 0.45450  0.10420  0.87080  Biso   1.000  C
  C58      1.0000 0.54550  0.89580  0.12920  Biso   1.000  C
  H49      1.0000 0.50750  0.17270  0.87190  Biso   1.000  H
  H50      1.0000 0.49250  0.82730  0.12810  Biso   1.000  H
  C59      1.0000 0.45520  0.00190  0.78830  Biso   1.000  C
  C60      1.0000 0.54480  0.99810  0.21170  Biso   1.000  C
  H51      1.0000 0.50820  0.00130  0.73370  Biso   1.000  H
  H52      1.0000 0.49180  0.99870  0.26630  Biso   1.000  H
  C61      1.0000 0.37660  0.89920  0.78660  Biso   1.000  C
  C62      1.0000 0.62340  0.10080  0.21340  Biso   1.000  C
  H53      1.0000 0.37720  0.82950  0.73110  Biso   1.000  H
  H54      1.0000 0.62280  0.17050  0.26890  Biso   1.000  H
  C63      1.0000 0.29750  0.90130  0.86810  Biso   1.000  C
  C64      1.0000 0.70250  0.09870  0.13190  Biso   1.000  C
  H55      1.0000 0.24480  0.83250  0.86690  Biso   1.000  H
  H56      1.0000 0.75520  0.16750  0.13310  Biso   1.000  H
  O13      1.0000 0.09390  0.30860  0.01980  Biso   1.000  O
  O14      1.0000 0.90610  0.69140  0.98020  Biso   1.000  O
  H57      1.0000 0.03400  0.31750  0.06440  Biso   1.000  H
  H58      1.0000 0.96600  0.68250  0.93560  Biso   1.000  H
  H59      1.0000 0.08790  0.24150  0.97220  Biso   1.000  H
  H60      1.0000 0.91210  0.75850  0.02780  Biso   1.000  H
