data_image0
_cell_length_a       14.9
_cell_length_b       15.029
_cell_length_c       12.308
_cell_angle_alpha    90
_cell_angle_beta     102.519
_cell_angle_gamma    90

_symmetry_space_group_name_H-M    "P 1"
_symmetry_int_tables_number       1

loop_
  _symmetry_equiv_pos_as_xyz
  'x, y, z'

loop_
  _atom_site_label
  _atom_site_occupancy
  _atom_site_fract_x
  _atom_site_fract_y
  _atom_site_fract_z
  _atom_site_thermal_displace_type
  _atom_site_B_iso_or_equiv
  _atom_site_type_symbol
  Cu1      1.0000 0.60361  0.98111  0.42972  Biso   1.000  Cu
  Cu2      1.0000 0.39639  0.48111  0.07028  Biso   1.000  Cu
  Cu3      1.0000 0.39639  0.01889  0.57028  Biso   1.000  Cu
  Cu4      1.0000 0.60361  0.51889  0.92972  Biso   1.000  Cu
  Cu5      1.0000 0.50000  0.50000  0.50000  Biso   1.000  Cu
  Cu6      1.0000 0.50000  0.00000  0.00000  Biso   1.000  Cu
  C1       1.0000 0.67550  0.89720  0.24140  Biso   1.000  C
  C2       1.0000 0.32450  0.39720  0.25860  Biso   1.000  C
  C3       1.0000 0.32450  0.10280  0.75860  Biso   1.000  C
  C4       1.0000 0.67550  0.60280  0.74140  Biso   1.000  C
  H1       1.0000 0.72720  0.93280  0.26430  Biso   1.000  H
  H2       1.0000 0.27280  0.43280  0.23570  Biso   1.000  H
  H3       1.0000 0.27280  0.06720  0.73570  Biso   1.000  H
  H4       1.0000 0.72720  0.56720  0.76430  Biso   1.000  H
  C5       1.0000 0.67130  0.84160  0.15120  Biso   1.000  C
  C6       1.0000 0.32870  0.34160  0.34880  Biso   1.000  C
  C7       1.0000 0.32870  0.15840  0.84880  Biso   1.000  C
  C8       1.0000 0.67130  0.65840  0.65120  Biso   1.000  C
  H5       1.0000 0.71980  0.83920  0.11470  Biso   1.000  H
  H6       1.0000 0.28020  0.33920  0.38530  Biso   1.000  H
  H7       1.0000 0.28020  0.16080  0.88530  Biso   1.000  H
  H8       1.0000 0.71980  0.66080  0.61470  Biso   1.000  H
  C9       1.0000 0.59490  0.79010  0.11640  Biso   1.000  C
  C10      1.0000 0.40510  0.29010  0.38360  Biso   1.000  C
  C11      1.0000 0.40510  0.20990  0.88360  Biso   1.000  C
  C12      1.0000 0.59490  0.70990  0.61640  Biso   1.000  C
  H9       1.0000 0.59110  0.75150  0.05650  Biso   1.000  H
  H10      1.0000 0.40890  0.25150  0.44350  Biso   1.000  H
  H11      1.0000 0.40890  0.24850  0.94350  Biso   1.000  H
  H12      1.0000 0.59110  0.74850  0.55650  Biso   1.000  H
  C13      1.0000 0.52420  0.79610  0.17080  Biso   1.000  C
  C14      1.0000 0.47580  0.29610  0.32920  Biso   1.000  C
  C15      1.0000 0.47580  0.20390  0.82920  Biso   1.000  C
  C16      1.0000 0.52420  0.70390  0.67080  Biso   1.000  C
  H13      1.0000 0.47080  0.76290  0.14720  Biso   1.000  H
  H14      1.0000 0.52920  0.26290  0.35280  Biso   1.000  H
  H15      1.0000 0.52920  0.23710  0.85280  Biso   1.000  H
  H16      1.0000 0.47080  0.73710  0.64720  Biso   1.000  H
  C17      1.0000 0.53350  0.85240  0.26140  Biso   1.000  C
  C18      1.0000 0.46650  0.35240  0.23860  Biso   1.000  C
  C19      1.0000 0.46650  0.14760  0.73860  Biso   1.000  C
  C20      1.0000 0.53350  0.64760  0.76140  Biso   1.000  C
  C21      1.0000 0.46380  0.86530  0.32670  Biso   1.000  C
  C22      1.0000 0.53620  0.36530  0.17330  Biso   1.000  C
  C23      1.0000 0.53620  0.13470  0.67330  Biso   1.000  C
  C24      1.0000 0.46380  0.63470  0.82670  Biso   1.000  C
  C25      1.0000 0.37790  0.82970  0.32260  Biso   1.000  C
  C26      1.0000 0.62210  0.32970  0.17740  Biso   1.000  C
  C27      1.0000 0.62210  0.17030  0.67740  Biso   1.000  C
  C28      1.0000 0.37790  0.67030  0.82260  Biso   1.000  C
  H17      1.0000 0.34810  0.78500  0.27620  Biso   1.000  H
  H18      1.0000 0.65190  0.28500  0.22380  Biso   1.000  H
  H19      1.0000 0.65190  0.21500  0.72380  Biso   1.000  H
  H20      1.0000 0.34810  0.71500  0.77620  Biso   1.000  H
  C29      1.0000 0.34640  0.87600  0.40360  Biso   1.000  C
  C30      1.0000 0.65360  0.37600  0.09640  Biso   1.000  C
  C31      1.0000 0.65360  0.12400  0.59640  Biso   1.000  C
  C32      1.0000 0.34640  0.62400  0.90360  Biso   1.000  C
  H21      1.0000 0.28950  0.86680  0.42130  Biso   1.000  H
  H22      1.0000 0.71050  0.36680  0.07870  Biso   1.000  H
  H23      1.0000 0.71050  0.13320  0.57870  Biso   1.000  H
  H24      1.0000 0.28950  0.63320  0.92130  Biso   1.000  H
  C33      1.0000 0.77530  0.93600  0.52880  Biso   1.000  C
  C34      1.0000 0.22470  0.43600  0.97120  Biso   1.000  C
  C35      1.0000 0.22470  0.06400  0.47120  Biso   1.000  C
  C36      1.0000 0.77530  0.56400  0.02880  Biso   1.000  C
  C37      1.0000 0.87830  0.94340  0.57370  Biso   1.000  C
  C38      1.0000 0.12170  0.44340  0.92630  Biso   1.000  C
  C39      1.0000 0.12170  0.05660  0.42630  Biso   1.000  C
  C40      1.0000 0.87830  0.55660  0.07370  Biso   1.000  C
  C41      1.0000 0.91110  0.02530  0.61760  Biso   1.000  C
  C42      1.0000 0.08890  0.52530  0.88240  Biso   1.000  C
  C43      1.0000 0.08890  0.97470  0.38240  Biso   1.000  C
  C44      1.0000 0.91110  0.47470  0.11760  Biso   1.000  C
  H25      1.0000 0.87130  0.07370  0.60960  Biso   1.000  H
  H26      1.0000 0.12870  0.57370  0.89040  Biso   1.000  H
  H27      1.0000 0.12870  0.92630  0.39040  Biso   1.000  H
  H28      1.0000 0.87130  0.42630  0.10960  Biso   1.000  H
  C45      1.0000 0.00110  0.03630  0.67280  Biso   1.000  C
  C46      1.0000 0.99890  0.53630  0.82720  Biso   1.000  C
  C47      1.0000 0.99890  0.96370  0.32720  Biso   1.000  C
  C48      1.0000 0.00110  0.46370  0.17280  Biso   1.000  C
  H29      1.0000 0.02230  0.09140  0.70170  Biso   1.000  H
  H30      1.0000 0.97770  0.59140  0.79830  Biso   1.000  H
  H31      1.0000 0.97770  0.90860  0.29830  Biso   1.000  H
  H32      1.0000 0.02230  0.40860  0.20170  Biso   1.000  H
  C49      1.0000 0.05870  0.96470  0.68420  Biso   1.000  C
  C50      1.0000 0.94130  0.46470  0.81580  Biso   1.000  C
  C51      1.0000 0.94130  0.03530  0.31580  Biso   1.000  C
  C52      1.0000 0.05870  0.53530  0.18420  Biso   1.000  C
  H33      1.0000 0.11890  0.97040  0.72450  Biso   1.000  H
  H34      1.0000 0.88110  0.47040  0.77550  Biso   1.000  H
  H35      1.0000 0.88110  0.02960  0.27550  Biso   1.000  H
  H36      1.0000 0.11890  0.52960  0.22450  Biso   1.000  H
  C53      1.0000 0.02870  0.88360  0.63650  Biso   1.000  C
  C54      1.0000 0.97130  0.38360  0.86350  Biso   1.000  C
  C55      1.0000 0.97130  0.11640  0.36350  Biso   1.000  C
  C56      1.0000 0.02870  0.61640  0.13650  Biso   1.000  C
  H37      1.0000 0.06990  0.83660  0.64170  Biso   1.000  H
  H38      1.0000 0.93010  0.33660  0.85830  Biso   1.000  H
  H39      1.0000 0.93010  0.16340  0.35830  Biso   1.000  H
  H40      1.0000 0.06990  0.66340  0.14170  Biso   1.000  H
  C57      1.0000 0.93780  0.87140  0.58100  Biso   1.000  C
  C58      1.0000 0.06220  0.37140  0.91900  Biso   1.000  C
  C59      1.0000 0.06220  0.12860  0.41900  Biso   1.000  C
  C60      1.0000 0.93780  0.62860  0.08100  Biso   1.000  C
  C61      1.0000 0.91040  0.78640  0.52480  Biso   1.000  C
  C62      1.0000 0.08960  0.28640  0.97520  Biso   1.000  C
  C63      1.0000 0.08960  0.21360  0.47520  Biso   1.000  C
  C64      1.0000 0.91040  0.71360  0.02480  Biso   1.000  C
  C65      1.0000 0.86090  0.78420  0.41610  Biso   1.000  C
  C66      1.0000 0.13910  0.28420  0.08390  Biso   1.000  C
  C67      1.0000 0.13910  0.21580  0.58390  Biso   1.000  C
  C68      1.0000 0.86090  0.71580  0.91610  Biso   1.000  C
  H41      1.0000 0.84440  0.83770  0.37910  Biso   1.000  H
  H42      1.0000 0.15560  0.33770  0.12090  Biso   1.000  H
  H43      1.0000 0.15560  0.16230  0.62090  Biso   1.000  H
  H44      1.0000 0.84440  0.66230  0.87910  Biso   1.000  H
  C69      1.0000 0.83520  0.70610  0.36090  Biso   1.000  C
  C70      1.0000 0.16480  0.20610  0.13910  Biso   1.000  C
  C71      1.0000 0.16480  0.29390  0.63910  Biso   1.000  C
  C72      1.0000 0.83520  0.79390  0.86090  Biso   1.000  C
  H45      1.0000 0.80140  0.70760  0.28790  Biso   1.000  H
  H46      1.0000 0.19860  0.20760  0.21210  Biso   1.000  H
  H47      1.0000 0.19860  0.29240  0.71210  Biso   1.000  H
  H48      1.0000 0.80140  0.79240  0.78790  Biso   1.000  H
  C73      1.0000 0.85850  0.62520  0.41210  Biso   1.000  C
  C74      1.0000 0.14150  0.12520  0.08790  Biso   1.000  C
  C75      1.0000 0.14150  0.37480  0.58790  Biso   1.000  C
  C76      1.0000 0.85850  0.87480  0.91210  Biso   1.000  C
  C77      1.0000 0.91120  0.62680  0.52010  Biso   1.000  C
  C78      1.0000 0.08880  0.12680  0.97990  Biso   1.000  C
  C79      1.0000 0.08880  0.37320  0.47990  Biso   1.000  C
  C80      1.0000 0.91120  0.87320  0.02010  Biso   1.000  C
  H49      1.0000 0.93000  0.57350  0.55620  Biso   1.000  H
  H50      1.0000 0.07000  0.07350  0.94380  Biso   1.000  H
  H51      1.0000 0.07000  0.42650  0.44380  Biso   1.000  H
  H52      1.0000 0.93000  0.92650  0.05620  Biso   1.000  H
  C81      1.0000 0.93620  0.70580  0.57450  Biso   1.000  C
  C82      1.0000 0.06380  0.20580  0.92550  Biso   1.000  C
  C83      1.0000 0.06380  0.29420  0.42550  Biso   1.000  C
  C84      1.0000 0.93620  0.79420  0.07450  Biso   1.000  C
  H53      1.0000 0.97130  0.70470  0.64680  Biso   1.000  H
  H54      1.0000 0.02870  0.20470  0.85320  Biso   1.000  H
  H55      1.0000 0.02870  0.29530  0.35320  Biso   1.000  H
  H56      1.0000 0.97130  0.79530  0.14680  Biso   1.000  H
  C85      1.0000 0.82200  0.54060  0.35490  Biso   1.000  C
  C86      1.0000 0.17800  0.04060  0.14510  Biso   1.000  C
  C87      1.0000 0.17800  0.45940  0.64510  Biso   1.000  C
  C88      1.0000 0.82200  0.95940  0.85490  Biso   1.000  C
  H57      1.0000 0.82860  0.54210  0.27820  Biso   1.000  H
  H58      1.0000 0.17140  0.04210  0.22180  Biso   1.000  H
  H59      1.0000 0.17140  0.45790  0.72180  Biso   1.000  H
  H60      1.0000 0.82860  0.95790  0.77820  Biso   1.000  H
  H61      1.0000 0.85730  0.49060  0.39140  Biso   1.000  H
  H62      1.0000 0.14270  0.99060  0.10860  Biso   1.000  H
  H63      1.0000 0.14270  0.50940  0.60860  Biso   1.000  H
  H64      1.0000 0.85730  0.00940  0.89140  Biso   1.000  H
  C89      1.0000 0.65180  0.56850  0.28510  Biso   1.000  C
  C90      1.0000 0.34820  0.06850  0.21490  Biso   1.000  C
  C91      1.0000 0.34820  0.43150  0.71490  Biso   1.000  C
  C92      1.0000 0.65180  0.93150  0.78510  Biso   1.000  C
  H65      1.0000 0.65420  0.59820  0.21950  Biso   1.000  H
  H66      1.0000 0.34580  0.09820  0.28050  Biso   1.000  H
  H67      1.0000 0.34580  0.40180  0.78050  Biso   1.000  H
  H68      1.0000 0.65420  0.90180  0.71950  Biso   1.000  H
  C93      1.0000 0.69220  0.49210  0.44300  Biso   1.000  C
  C94      1.0000 0.30780  0.99210  0.05700  Biso   1.000  C
  C95      1.0000 0.30780  0.50790  0.55700  Biso   1.000  C
  C96      1.0000 0.69220  0.00790  0.94300  Biso   1.000  C
  C97      1.0000 0.74990  0.43710  0.53250  Biso   1.000  C
  C98      1.0000 0.25010  0.93710  0.96750  Biso   1.000  C
  C99      1.0000 0.25010  0.56290  0.46750  Biso   1.000  C
  C100     1.0000 0.74990  0.06290  0.03250  Biso   1.000  C
  H69      1.0000 0.71930  0.43270  0.59430  Biso   1.000  H
  H70      1.0000 0.28070  0.93270  0.90570  Biso   1.000  H
  H71      1.0000 0.28070  0.56730  0.40570  Biso   1.000  H
  H72      1.0000 0.71930  0.06730  0.09430  Biso   1.000  H
  H73      1.0000 0.80820  0.46710  0.55930  Biso   1.000  H
  H74      1.0000 0.19180  0.96710  0.94070  Biso   1.000  H
  H75      1.0000 0.19180  0.53290  0.44070  Biso   1.000  H
  H76      1.0000 0.80820  0.03290  0.05930  Biso   1.000  H
  C101     1.0000 0.76840  0.34350  0.49450  Biso   1.000  C
  C102     1.0000 0.23160  0.84350  0.00550  Biso   1.000  C
  C103     1.0000 0.23160  0.65650  0.50550  Biso   1.000  C
  C104     1.0000 0.76840  0.15650  0.99450  Biso   1.000  C
  H77      1.0000 0.71180  0.30950  0.48210  Biso   1.000  H
  H78      1.0000 0.28820  0.80950  0.01790  Biso   1.000  H
  H79      1.0000 0.28820  0.69050  0.51790  Biso   1.000  H
  H80      1.0000 0.71180  0.19050  0.98210  Biso   1.000  H
  H81      1.0000 0.78750  0.34740  0.42420  Biso   1.000  H
  H82      1.0000 0.21250  0.84740  0.07580  Biso   1.000  H
  H83      1.0000 0.21250  0.65260  0.57580  Biso   1.000  H
  H84      1.0000 0.78750  0.15260  0.92420  Biso   1.000  H
  C105     1.0000 0.84140  0.29510  0.57770  Biso   1.000  C
  C106     1.0000 0.15860  0.79510  0.92230  Biso   1.000  C
  C107     1.0000 0.15860  0.70490  0.42230  Biso   1.000  C
  C108     1.0000 0.84140  0.20490  0.07770  Biso   1.000  C
  H85      1.0000 0.89800  0.32770  0.58890  Biso   1.000  H
  H86      1.0000 0.10200  0.82770  0.91110  Biso   1.000  H
  H87      1.0000 0.10200  0.67230  0.41110  Biso   1.000  H
  H88      1.0000 0.89800  0.17230  0.08890  Biso   1.000  H
  H89      1.0000 0.85020  0.23680  0.55000  Biso   1.000  H
  H90      1.0000 0.14980  0.73680  0.95000  Biso   1.000  H
  H91      1.0000 0.14980  0.76320  0.45000  Biso   1.000  H
  H92      1.0000 0.85020  0.26320  0.05000  Biso   1.000  H
  H93      1.0000 0.82230  0.29000  0.64710  Biso   1.000  H
  H94      1.0000 0.17770  0.79000  0.85290  Biso   1.000  H
  H95      1.0000 0.17770  0.71000  0.35290  Biso   1.000  H
  H96      1.0000 0.82230  0.21000  0.14710  Biso   1.000  H
  C109     1.0000 0.57700  0.55590  0.32860  Biso   1.000  C
  C110     1.0000 0.42300  0.05590  0.17140  Biso   1.000  C
  C111     1.0000 0.42300  0.44410  0.67140  Biso   1.000  C
  C112     1.0000 0.57700  0.94410  0.82860  Biso   1.000  C
  C113     1.0000 0.47850  0.58030  0.29650  Biso   1.000  C
  C114     1.0000 0.52150  0.08030  0.20350  Biso   1.000  C
  C115     1.0000 0.52150  0.41970  0.70350  Biso   1.000  C
  C116     1.0000 0.47850  0.91970  0.79650  Biso   1.000  C
  N1       1.0000 0.48120  0.92871  0.40550  Biso   1.000  N
  N2       1.0000 0.51880  0.42871  0.09450  Biso   1.000  N
  N3       1.0000 0.51880  0.07129  0.59450  Biso   1.000  N
  N4       1.0000 0.48120  0.57129  0.90550  Biso   1.000  N
  N5       1.0000 0.40800  0.93568  0.45350  Biso   1.000  N
  N6       1.0000 0.59200  0.43568  0.04650  Biso   1.000  N
  N7       1.0000 0.59200  0.06432  0.54650  Biso   1.000  N
  N8       1.0000 0.40800  0.56432  0.95350  Biso   1.000  N
  N9       1.0000 0.60830  0.90172  0.29700  Biso   1.000  N
  N10      1.0000 0.39170  0.40172  0.20300  Biso   1.000  N
  N11      1.0000 0.39170  0.09828  0.70300  Biso   1.000  N
  N12      1.0000 0.60830  0.59828  0.79700  Biso   1.000  N
  N13      1.0000 0.72400  0.52854  0.35760  Biso   1.000  N
  N14      1.0000 0.27600  0.02854  0.14240  Biso   1.000  N
  N15      1.0000 0.27600  0.47146  0.64240  Biso   1.000  N
  N16      1.0000 0.72400  0.97146  0.85760  Biso   1.000  N
  N17      1.0000 0.60310  0.50796  0.42690  Biso   1.000  N
  N18      1.0000 0.39690  0.00796  0.07310  Biso   1.000  N
  N19      1.0000 0.39690  0.49204  0.57310  Biso   1.000  N
  N20      1.0000 0.60310  0.99204  0.92690  Biso   1.000  N
  O1       1.0000 0.44471  0.60939  0.20330  Biso   1.000  O
  O2       1.0000 0.55529  0.10939  0.29670  Biso   1.000  O
  O3       1.0000 0.55529  0.39061  0.79670  Biso   1.000  O
  O4       1.0000 0.44471  0.89061  0.70330  Biso   1.000  O
  O5       1.0000 0.43480  0.56572  0.37350  Biso   1.000  O
  O6       1.0000 0.56520  0.06572  0.12650  Biso   1.000  O
  O7       1.0000 0.56520  0.43428  0.62650  Biso   1.000  O
  O8       1.0000 0.43480  0.93428  0.87350  Biso   1.000  O
  O9       1.0000 0.73248  0.87626  0.56350  Biso   1.000  O
  O10      1.0000 0.26752  0.37626  0.93650  Biso   1.000  O
  O11      1.0000 0.26752  0.12374  0.43650  Biso   1.000  O
  O12      1.0000 0.73248  0.62374  0.06350  Biso   1.000  O
  O13      1.0000 0.73835  0.99664  0.46100  Biso   1.000  O
  O14      1.0000 0.26165  0.49664  0.03900  Biso   1.000  O
  O15      1.0000 0.26165  0.00336  0.53900  Biso   1.000  O
  O16      1.0000 0.73835  0.50336  0.96100  Biso   1.000  O
  O17      1.0000 0.25480  0.85180  0.67700  Biso   1.000  O
  O18      1.0000 0.74520  0.35180  0.82300  Biso   1.000  O
  O19      1.0000 0.74520  0.14820  0.32300  Biso   1.000  O
  O20      1.0000 0.25480  0.64820  0.17700  Biso   1.000  O
  H97      1.0000 0.24200  0.88900  0.62800  Biso   1.000  H
  H98      1.0000 0.75800  0.38900  0.87200  Biso   1.000  H
  H99      1.0000 0.75800  0.11100  0.37200  Biso   1.000  H
  H100     1.0000 0.24200  0.61100  0.12800  Biso   1.000  H
  H101     1.0000 0.30800  0.83400  0.69000  Biso   1.000  H
  H102     1.0000 0.69200  0.33400  0.81000  Biso   1.000  H
  H103     1.0000 0.69200  0.16600  0.31000  Biso   1.000  H
  H104     1.0000 0.30800  0.66600  0.19000  Biso   1.000  H
