data_image0
_cell_length_a       8.739
_cell_length_b       13.455
_cell_length_c       18.443
_cell_angle_alpha    95.74
_cell_angle_beta     97.55
_cell_angle_gamma    106.71

_symmetry_space_group_name_H-M    "P 1"
_symmetry_int_tables_number       1

loop_
  _symmetry_equiv_pos_as_xyz
  'x, y, z'

loop_
  _atom_site_label
  _atom_site_occupancy
  _atom_site_fract_x
  _atom_site_fract_y
  _atom_site_fract_z
  _atom_site_thermal_displace_type
  _atom_site_B_iso_or_equiv
  _atom_site_type_symbol
  Cu1      1.0000 0.61941  0.00056  0.95339  Biso   1.000  Cu
  Cu2      1.0000 0.38059  0.99944  0.04661  Biso   1.000  Cu
  N1       1.0000 0.77960  0.92500  0.93708  Biso   1.000  N
  N2       1.0000 0.22040  0.07500  0.06292  Biso   1.000  N
  C1       1.0000 0.77030  0.82900  0.95420  Biso   1.000  C
  C2       1.0000 0.22970  0.17100  0.04580  Biso   1.000  C
  H1       1.0000 0.68040  0.79240  0.97510  Biso   1.000  H
  H2       1.0000 0.31960  0.20760  0.02490  Biso   1.000  H
  C3       1.0000 0.88770  0.78190  0.94220  Biso   1.000  C
  C4       1.0000 0.11230  0.21810  0.05780  Biso   1.000  C
  H3       1.0000 0.87860  0.71370  0.95440  Biso   1.000  H
  H4       1.0000 0.12140  0.28630  0.04560  Biso   1.000  H
  C5       1.0000 0.01900  0.83580  0.91220  Biso   1.000  C
  C6       1.0000 0.98100  0.16420  0.08780  Biso   1.000  C
  H5       1.0000 0.10130  0.80490  0.90380  Biso   1.000  H
  H6       1.0000 0.89870  0.19510  0.09620  Biso   1.000  H
  C7       1.0000 0.02970  0.93510  0.89451  Biso   1.000  C
  C8       1.0000 0.97030  0.06490  0.10549  Biso   1.000  C
  H7       1.0000 0.11930  0.97330  0.87410  Biso   1.000  H
  H8       1.0000 0.88070  0.02670  0.12590  Biso   1.000  H
  C9       1.0000 0.90680  0.97750  0.90720  Biso   1.000  C
  C10      1.0000 0.09320  0.02250  0.09280  Biso   1.000  C
  C11      1.0000 0.90290  0.08210  0.88999  Biso   1.000  C
  C12      1.0000 0.09710  0.91790  0.11001  Biso   1.000  C
  C13      1.0000 0.02220  0.14860  0.85920  Biso   1.000  C
  C14      1.0000 0.97780  0.85140  0.14080  Biso   1.000  C
  H9       1.0000 0.11270  0.12860  0.84730  Biso   1.000  H
  H10      1.0000 0.88730  0.87140  0.15270  Biso   1.000  H
  C15      1.0000 0.00540  0.24490  0.84640  Biso   1.000  C
  C16      1.0000 0.99460  0.75510  0.15360  Biso   1.000  C
  H11      1.0000 0.08530  0.29210  0.82560  Biso   1.000  H
  H12      1.0000 0.91470  0.70790  0.17440  Biso   1.000  H
  C17      1.0000 0.87360  0.27220  0.86370  Biso   1.000  C
  C18      1.0000 0.12640  0.72780  0.13630  Biso   1.000  C
  H13      1.0000 0.86120  0.33810  0.85490  Biso   1.000  H
  H14      1.0000 0.13880  0.66190  0.14510  Biso   1.000  H
  C19      1.0000 0.75830  0.20190  0.89420  Biso   1.000  C
  C20      1.0000 0.24170  0.79810  0.10580  Biso   1.000  C
  H15      1.0000 0.66620  0.22010  0.90590  Biso   1.000  H
  H16      1.0000 0.33380  0.77990  0.09410  Biso   1.000  H
  N3       1.0000 0.77430  0.10940  0.90759  Biso   1.000  N
  N4       1.0000 0.22570  0.89060  0.09241  Biso   1.000  N
  N5       1.0000 0.52880  0.70150  0.76629  Biso   1.000  N
  N6       1.0000 0.47120  0.29850  0.23371  Biso   1.000  N
  C21      1.0000 0.44850  0.61440  0.79189  Biso   1.000  C
  C22      1.0000 0.55150  0.38560  0.20811  Biso   1.000  C
  H17      1.0000 0.34000  0.60540  0.79920  Biso   1.000  H
  H18      1.0000 0.66000  0.39460  0.20080  Biso   1.000  H
  C23      1.0000 0.51890  0.53810  0.80770  Biso   1.000  C
  C24      1.0000 0.48110  0.46190  0.19230  Biso   1.000  C
  H19      1.0000 0.46140  0.47880  0.82770  Biso   1.000  H
  H20      1.0000 0.53860  0.52120  0.17230  Biso   1.000  H
  C25      1.0000 0.67400  0.54870  0.79430  Biso   1.000  C
  C26      1.0000 0.32600  0.45130  0.20570  Biso   1.000  C
  H21      1.0000 0.72250  0.49530  0.80300  Biso   1.000  H
  H22      1.0000 0.27750  0.50470  0.19700  Biso   1.000  H
  C27      1.0000 0.75870  0.63820  0.76790  Biso   1.000  C
  C28      1.0000 0.24130  0.36180  0.23210  Biso   1.000  C
  H23      1.0000 0.86590  0.64740  0.75860  Biso   1.000  H
  H24      1.0000 0.13410  0.35260  0.24140  Biso   1.000  H
  C29      1.0000 0.68190  0.71350  0.75548  Biso   1.000  C
  C30      1.0000 0.31810  0.28650  0.24452  Biso   1.000  C
  C31      1.0000 0.76060  0.81400  0.73017  Biso   1.000  C
  C32      1.0000 0.23940  0.18600  0.26983  Biso   1.000  C
  C33      1.0000 0.91830  0.84410  0.71628  Biso   1.000  C
  C34      1.0000 0.08170  0.15590  0.28372  Biso   1.000  C
  H25      1.0000 0.98310  0.79860  0.72150  Biso   1.000  H
  H26      1.0000 0.01690  0.20140  0.27850  Biso   1.000  H
  C35      1.0000 0.98020  0.94160  0.69460  Biso   1.000  C
  C36      1.0000 0.01980  0.05840  0.30540  Biso   1.000  C
  H27      1.0000 0.08840  0.96390  0.68530  Biso   1.000  H
  H28      1.0000 0.91160  0.03610  0.31470  Biso   1.000  H
  C37      1.0000 0.88300  0.00560  0.68660  Biso   1.000  C
  C38      1.0000 0.11700  0.99440  0.31340  Biso   1.000  C
  H29      1.0000 0.92280  0.07220  0.67120  Biso   1.000  H
  H30      1.0000 0.07720  0.92780  0.32880  Biso   1.000  H
  C39      1.0000 0.72690  0.97150  0.70116  Biso   1.000  C
  C40      1.0000 0.27310  0.02850  0.29884  Biso   1.000  C
  H31      1.0000 0.66030  0.01590  0.69580  Biso   1.000  H
  H32      1.0000 0.33970  0.98410  0.30420  Biso   1.000  H
  N7       1.0000 0.66590  0.87750  0.72276  Biso   1.000  N
  N8       1.0000 0.33410  0.12250  0.27724  Biso   1.000  N
  N9       1.0000 0.81990  0.67570  0.53238  Biso   1.000  N
  N10      1.0000 0.18010  0.32430  0.46762  Biso   1.000  N
  C41      1.0000 0.89750  0.76560  0.50808  Biso   1.000  C
  C42      1.0000 0.10250  0.23440  0.49192  Biso   1.000  C
  H33      1.0000 0.99980  0.77250  0.49340  Biso   1.000  H
  H34      1.0000 0.00020  0.22750  0.50660  Biso   1.000  H
  C43      1.0000 0.83290  0.84710  0.50396  Biso   1.000  C
  C44      1.0000 0.16710  0.15290  0.49604  Biso   1.000  C
  H35      1.0000 0.88940  0.90860  0.48590  Biso   1.000  H
  H36      1.0000 0.11060  0.09140  0.51410  Biso   1.000  H
  C45      1.0000 0.68530  0.83910  0.52622  Biso   1.000  C
  C46      1.0000 0.31470  0.16090  0.47378  Biso   1.000  C
  H37      1.0000 0.63930  0.89490  0.52380  Biso   1.000  H
  H38      1.0000 0.36070  0.10510  0.47620  Biso   1.000  H
  C47      1.0000 0.60550  0.74800  0.55226  Biso   1.000  C
  C48      1.0000 0.39450  0.25200  0.44774  Biso   1.000  C
  H39      1.0000 0.50440  0.74070  0.56830  Biso   1.000  H
  H40      1.0000 0.49560  0.25930  0.43170  Biso   1.000  H
  C49      1.0000 0.67610  0.66790  0.55441  Biso   1.000  C
  C50      1.0000 0.32390  0.33210  0.44559  Biso   1.000  C
  C51      1.0000 0.60210  0.56750  0.58040  Biso   1.000  C
  C52      1.0000 0.39790  0.43250  0.41960  Biso   1.000  C
  C53      1.0000 0.45420  0.54290  0.60578  Biso   1.000  C
  C54      1.0000 0.54580  0.45710  0.39422  Biso   1.000  C
  H41      1.0000 0.39290  0.59080  0.60600  Biso   1.000  H
  H42      1.0000 0.60710  0.40920  0.39400  Biso   1.000  H
  C55      1.0000 0.39830  0.44730  0.63071  Biso   1.000  C
  C56      1.0000 0.60170  0.55270  0.36929  Biso   1.000  C
  H43      1.0000 0.29810  0.42890  0.64860  Biso   1.000  H
  H44      1.0000 0.70190  0.57110  0.35140  Biso   1.000  H
  C57      1.0000 0.49040  0.37880  0.62926  Biso   1.000  C
  C58      1.0000 0.50960  0.62120  0.37074  Biso   1.000  C
  H45      1.0000 0.45510  0.31350  0.64700  Biso   1.000  H
  H46      1.0000 0.54490  0.68650  0.35300  Biso   1.000  H
  C59      1.0000 0.63320  0.40650  0.60188  Biso   1.000  C
  C60      1.0000 0.36680  0.59350  0.39812  Biso   1.000  C
  H47      1.0000 0.69430  0.35850  0.59980  Biso   1.000  H
  H48      1.0000 0.30570  0.64150  0.40020  Biso   1.000  H
  N11      1.0000 0.68970  0.49950  0.57782  Biso   1.000  N
  N12      1.0000 0.31030  0.50050  0.42218  Biso   1.000  N
  O1       1.0000 0.51050  0.90989  0.01991  Biso   1.000  O
  O2       1.0000 0.48950  0.09011  0.98009  Biso   1.000  O
  H49      1.0000 0.58040  0.92040  0.06780  Biso   1.000  H
  H50      1.0000 0.41960  0.07960  0.93220  Biso   1.000  H
  O3       1.0000 0.92810  0.40927  0.51844  Biso   1.000  O
  O4       1.0000 0.07190  0.59073  0.48156  Biso   1.000  O
  H51      1.0000 0.85310  0.36120  0.48680  Biso   1.000  H
  H52      1.0000 0.14690  0.63880  0.51320  Biso   1.000  H
  C61      1.0000 0.39530  0.97910  0.80833  Biso   1.000  C
  C62      1.0000 0.60470  0.02090  0.19167  Biso   1.000  C
  O5       1.0000 0.36120  0.06096  0.83204  Biso   1.000  O
  O6       1.0000 0.63880  0.93904  0.16796  Biso   1.000  O
  O7       1.0000 0.38230  0.94916  0.73813  Biso   1.000  O
  O8       1.0000 0.61770  0.05084  0.26187  Biso   1.000  O
  O9       1.0000 0.44430  0.92096  0.85205  Biso   1.000  O
  O10      1.0000 0.55570  0.07904  0.14795  Biso   1.000  O
  C63      1.0000 0.16860  0.68400  0.66329  Biso   1.000  C
  C64      1.0000 0.83140  0.31600  0.33671  Biso   1.000  C
  O11      1.0000 0.25320  0.71681  0.61377  Biso   1.000  O
  O12      1.0000 0.74680  0.28319  0.38623  Biso   1.000  O
  O13      1.0000 0.21790  0.72882  0.73157  Biso   1.000  O
  O14      1.0000 0.78210  0.27118  0.26843  Biso   1.000  O
  O15      1.0000 0.03760  0.60709  0.64843  Biso   1.000  O
  O16      1.0000 0.96240  0.39291  0.35157  Biso   1.000  O
  O17      1.0000 0.37470  0.08283  0.63975  Biso   1.000  O
  O18      1.0000 0.62530  0.91717  0.36025  Biso   1.000  O
  H53      1.0000 0.31010  0.11630  0.65020  Biso   1.000  H
  H54      1.0000 0.68990  0.88370  0.34980  Biso   1.000  H
  H55      1.0000 0.36880  0.04200  0.67370  Biso   1.000  H
  H56      1.0000 0.63120  0.95800  0.32630  Biso   1.000  H
  O19      1.0000 0.97080  0.31550  0.64472  Biso   1.000  O
  O20      1.0000 0.02920  0.68450  0.35528  Biso   1.000  O
  H57      1.0000 0.96900  0.34800  0.60700  Biso   1.000  H
  H58      1.0000 0.03100  0.65200  0.39300  Biso   1.000  H
  H59      1.0000 0.89100  0.27400  0.64100  Biso   1.000  H
  H60      1.0000 0.10900  0.72600  0.35900  Biso   1.000  H
  O21      1.0000 0.67020  0.26160  0.07963  Biso   1.000  O
  O22      1.0000 0.32980  0.73840  0.92037  Biso   1.000  O
  H61      1.0000 0.61850  0.21120  0.03430  Biso   1.000  H
  H62      1.0000 0.38150  0.78880  0.96570  Biso   1.000  H
  H63      1.0000 0.64080  0.22300  0.12780  Biso   1.000  H
  H64      1.0000 0.35920  0.77700  0.87220  Biso   1.000  H
  O23      1.0000 0.00990  0.48350  0.75740  Biso   1.000  O
  O24      1.0000 0.99010  0.51650  0.24260  Biso   1.000  O
  H65      1.0000 0.00850  0.52580  0.72030  Biso   1.000  H
  H66      1.0000 0.99150  0.47420  0.27970  Biso   1.000  H
  H67      1.0000 0.98960  0.42740  0.73000  Biso   1.000  H
  H68      1.0000 0.01040  0.57260  0.27000  Biso   1.000  H
  O25      1.0000 0.19430  0.20960  0.68394  Biso   1.000  O
  O26      1.0000 0.80570  0.79040  0.31606  Biso   1.000  O
  H69      1.0000 0.24770  0.24190  0.72800  Biso   1.000  H
  H70      1.0000 0.75230  0.75810  0.27200  Biso   1.000  H
  H71      1.0000 0.12360  0.23770  0.66540  Biso   1.000  H
  H72      1.0000 0.87640  0.76230  0.33460  Biso   1.000  H
  O27      1.0000 0.68320  0.16120  0.60310  Biso   1.000  O
  O28      1.0000 0.31680  0.83880  0.39690  Biso   1.000  O
  H73      1.0000 0.66920  0.13960  0.55200  Biso   1.000  H
  H74      1.0000 0.33080  0.86040  0.44800  Biso   1.000  H
  H75      1.0000 0.57790  0.14260  0.61150  Biso   1.000  H
  H76      1.0000 0.42210  0.85740  0.38850  Biso   1.000  H
  O29      1.0000 0.31440  0.89310  0.54383  Biso   1.000  O
  O30      1.0000 0.68560  0.10690  0.45617  Biso   1.000  O
  H77      1.0000 0.31110  0.94810  0.56770  Biso   1.000  H
  H78      1.0000 0.68890  0.05190  0.43230  Biso   1.000  H
  H79      1.0000 0.27500  0.84480  0.57080  Biso   1.000  H
  H80      1.0000 0.72500  0.15520  0.42920  Biso   1.000  H
  O31      1.0000 0.40830  0.26690  0.81421  Biso   1.000  O
  O32      1.0000 0.59170  0.73310  0.18579  Biso   1.000  O
  H81      1.0000 0.41580  0.29330  0.86270  Biso   1.000  H
  H82      1.0000 0.58420  0.70670  0.13730  Biso   1.000  H
  H83      1.0000 0.39620  0.20330  0.80900  Biso   1.000  H
  H84      1.0000 0.60380  0.79670  0.19100  Biso   1.000  H
  O33      1.0000 0.05870  0.56250  0.90328  Biso   1.000  O
  O34      1.0000 0.94130  0.43750  0.09672  Biso   1.000  O
  H85      1.0000 0.03710  0.53770  0.84930  Biso   1.000  H
  H86      1.0000 0.96290  0.46230  0.15070  Biso   1.000  H
  H87      1.0000 0.14150  0.62470  0.91300  Biso   1.000  H
  H88      1.0000 0.85850  0.37530  0.08700  Biso   1.000  H
  O35      1.0000 0.21900  0.48060  0.01350  Biso   1.000  O
  O36      1.0000 0.78100  0.51940  0.98650  Biso   1.000  O
  H89      1.0000 0.11250  0.46450  0.02970  Biso   1.000  H
  H90      1.0000 0.88750  0.53550  0.97030  Biso   1.000  H
  H91      1.0000 0.16150  0.49670  0.97210  Biso   1.000  H
  H92      1.0000 0.83850  0.50330  0.02790  Biso   1.000  H
  O37      1.0000 0.55580  0.62810  0.04540  Biso   1.000  O
  O38      1.0000 0.44420  0.37190  0.95460  Biso   1.000  O
  H93      1.0000 0.43590  0.58110  0.02970  Biso   1.000  H
  H94      1.0000 0.56410  0.41890  0.97030  Biso   1.000  H
  H95      1.0000 0.61470  0.58300  0.02460  Biso   1.000  H
  H96      1.0000 0.38530  0.41700  0.97540  Biso   1.000  H
  Cu3      1.0000 0.43885  0.81744  0.74062  Biso   1.000  Cu
  Cu4      1.0000 0.56115  0.18256  0.25938  Biso   1.000  Cu
  Cu5      1.0000 0.89638  0.54761  0.53813  Biso   1.000  Cu
  Cu6      1.0000 0.10362  0.45239  0.46187  Biso   1.000  Cu
