data_image0
_cell_length_a       6.9927
_cell_length_b       10.8763
_cell_length_c       12.2831
_cell_angle_alpha    69.21
_cell_angle_beta     81.602
_cell_angle_gamma    87.821

_symmetry_space_group_name_H-M    "P 1"
_symmetry_int_tables_number       1

loop_
  _symmetry_equiv_pos_as_xyz
  'x, y, z'

loop_
  _atom_site_label
  _atom_site_occupancy
  _atom_site_fract_x
  _atom_site_fract_y
  _atom_site_fract_z
  _atom_site_thermal_displace_type
  _atom_site_B_iso_or_equiv
  _atom_site_type_symbol
  Fe1      1.0000 0.43419  0.39823  0.80934  Biso   1.000  Fe
  Fe2      1.0000 0.56581  0.60177  0.19066  Biso   1.000  Fe
  Cu1      1.0000 0.00000  0.50000  0.50000  Biso   1.000  Cu
  N1       1.0000 0.45280  0.68370  0.79380  Biso   1.000  N
  N2       1.0000 0.54720  0.31630  0.20620  Biso   1.000  N
  N3       1.0000 0.80490  0.32750  0.92660  Biso   1.000  N
  N4       1.0000 0.19510  0.67250  0.07340  Biso   1.000  N
  N5       1.0000 0.74470  0.47910  0.59590  Biso   1.000  N
  N6       1.0000 0.25530  0.52090  0.40410  Biso   1.000  N
  N7       1.0000 0.12690  0.46980  0.64140  Biso   1.000  N
  N8       1.0000 0.87310  0.53020  0.35860  Biso   1.000  N
  N9       1.0000 0.26340  0.32980  0.96260  Biso   1.000  N
  N10      1.0000 0.73660  0.67020  0.03740  Biso   1.000  N
  N11      1.0000 0.12750  0.13300  0.10670  Biso   1.000  N
  N12      1.0000 0.87250  0.86700  0.89330  Biso   1.000  N
  N13      1.0000 0.40880  0.21170  0.82230  Biso   1.000  N
  N14      1.0000 0.59120  0.78830  0.17770  Biso   1.000  N
  N15      1.0000 0.28300  0.00430  0.95330  Biso   1.000  N
  N16      1.0000 0.71700  0.99570  0.04670  Biso   1.000  N
  C1       1.0000 0.44510  0.57640  0.80190  Biso   1.000  C
  C2       1.0000 0.55490  0.42360  0.19810  Biso   1.000  C
  C3       1.0000 0.66590  0.35350  0.88800  Biso   1.000  C
  C4       1.0000 0.33410  0.64650  0.11200  Biso   1.000  C
  C5       1.0000 0.61950  0.45260  0.67150  Biso   1.000  C
  C6       1.0000 0.38050  0.54740  0.32850  Biso   1.000  C
  C7       1.0000 0.22970  0.44370  0.70950  Biso   1.000  C
  C8       1.0000 0.77030  0.55630  0.29050  Biso   1.000  C
  C9       1.0000 0.19090  0.39600  0.03240  Biso   1.000  C
  C10      1.0000 0.80910  0.60400  0.96760  Biso   1.000  C
  C11      1.0000 0.08540  0.33470  0.13860  Biso   1.000  C
  C12      1.0000 0.91460  0.66530  0.86140  Biso   1.000  C
  C13      1.0000 0.05610  0.20300  0.17380  Biso   1.000  C
  C14      1.0000 0.94390  0.79700  0.82620  Biso   1.000  C
  C15      1.0000 0.22770  0.20030  0.00360  Biso   1.000  C
  C16      1.0000 0.77230  0.79970  0.99640  Biso   1.000  C
  C17      1.0000 0.31040  0.13240  0.92340  Biso   1.000  C
  C18      1.0000 0.68960  0.86760  0.07660  Biso   1.000  C
  C19      1.0000 0.47930  0.15600  0.74420  Biso   1.000  C
  C20      1.0000 0.52070  0.84400  0.25580  Biso   1.000  C
  C21      1.0000 0.45210  0.02680  0.76640  Biso   1.000  C
  C22      1.0000 0.54790  0.97320  0.23360  Biso   1.000  C
  C23      1.0000 0.35480  0.95390  0.87190  Biso   1.000  C
  C24      1.0000 0.64520  0.04610  0.12810  Biso   1.000  C
  O1       1.0000 0.00940  0.25540  0.54370  Biso   1.000  O
  O2       1.0000 0.99060  0.74460  0.45630  Biso   1.000  O
  O3       1.0000 0.04040  0.84720  0.21420  Biso   1.000  O
  O4       1.0000 0.95960  0.15280  0.78580  Biso   1.000  O
  O5       1.0000 0.32920  0.15750  0.43640  Biso   1.000  O
  O6       1.0000 0.67080  0.84250  0.56360  Biso   1.000  O
  O7       1.0000 0.25870  0.88060  0.52350  Biso   1.000  O
  O8       1.0000 0.74130  0.11940  0.47650  Biso   1.000  O
  H1       1.0000 0.20200  0.47500  0.01000  Biso   1.000  H
  H2       1.0000 0.79800  0.52500  0.99000  Biso   1.000  H
  H3       1.0000 0.03300  0.37500  0.19400  Biso   1.000  H
  H4       1.0000 0.96700  0.62500  0.80600  Biso   1.000  H
  H5       1.0000 0.97500  0.15300  0.25000  Biso   1.000  H
  H6       1.0000 0.02500  0.84700  0.75000  Biso   1.000  H
  H7       1.0000 0.52900  0.20500  0.68100  Biso   1.000  H
  H8       1.0000 0.47100  0.79500  0.31900  Biso   1.000  H
  H9       1.0000 0.49300  0.99300  0.71900  Biso   1.000  H
  H10      1.0000 0.50700  0.00700  0.28100  Biso   1.000  H
  H11      1.0000 0.33500  0.86600  0.89300  Biso   1.000  H
  H12      1.0000 0.66500  0.13400  0.10700  Biso   1.000  H
