data_image0
_cell_length_a       10.729
_cell_length_b       12.776
_cell_length_c       13.909
_cell_angle_alpha    90
_cell_angle_beta     90
_cell_angle_gamma    90

_symmetry_space_group_name_H-M    "P 1"
_symmetry_int_tables_number       1

loop_
  _symmetry_equiv_pos_as_xyz
  'x, y, z'

loop_
  _atom_site_label
  _atom_site_occupancy
  _atom_site_fract_x
  _atom_site_fract_y
  _atom_site_fract_z
  _atom_site_thermal_displace_type
  _atom_site_B_iso_or_equiv
  _atom_site_type_symbol
  Cu1      1.0000 0.59664  0.19805  0.84109  Biso   1.000  Cu
  Cu2      1.0000 0.90336  0.80195  0.34109  Biso   1.000  Cu
  Cu3      1.0000 0.09664  0.30195  0.15891  Biso   1.000  Cu
  Cu4      1.0000 0.40336  0.69805  0.65891  Biso   1.000  Cu
  N1       1.0000 0.46320  0.25250  0.75070  Biso   1.000  N
  N2       1.0000 0.03680  0.74750  0.25070  Biso   1.000  N
  N3       1.0000 0.96320  0.24750  0.24930  Biso   1.000  N
  N4       1.0000 0.53680  0.75250  0.74930  Biso   1.000  N
  N5       1.0000 0.47010  0.13900  0.92530  Biso   1.000  N
  N6       1.0000 0.02990  0.86100  0.42530  Biso   1.000  N
  N7       1.0000 0.97010  0.36100  0.07470  Biso   1.000  N
  N8       1.0000 0.52990  0.63900  0.57470  Biso   1.000  N
  N9       1.0000 0.51950  0.08300  0.00470  Biso   1.000  N
  N10      1.0000 0.98050  0.91700  0.50470  Biso   1.000  N
  N11      1.0000 0.01950  0.41700  0.99530  Biso   1.000  N
  N12      1.0000 0.48050  0.58300  0.49530  Biso   1.000  N
  N13      1.0000 0.82770  0.91610  0.22830  Biso   1.000  N
  N14      1.0000 0.67230  0.08390  0.72830  Biso   1.000  N
  N15      1.0000 0.32770  0.58390  0.77170  Biso   1.000  N
  N16      1.0000 0.17230  0.41610  0.27170  Biso   1.000  N
  O1       1.0000 0.70760  0.13710  0.94060  Biso   1.000  O
  O2       1.0000 0.79240  0.86290  0.44060  Biso   1.000  O
  O3       1.0000 0.20760  0.36290  0.05940  Biso   1.000  O
  O4       1.0000 0.29240  0.63710  0.55940  Biso   1.000  O
  O5       1.0000 0.72160  0.30210  0.79880  Biso   1.000  O
  O6       1.0000 0.77840  0.69790  0.29880  Biso   1.000  O
  O7       1.0000 0.22160  0.19790  0.20120  Biso   1.000  O
  O8       1.0000 0.27840  0.80210  0.70120  Biso   1.000  O
  O9       1.0000 0.63070  0.40210  0.91080  Biso   1.000  O
  O10      1.0000 0.86930  0.59790  0.41080  Biso   1.000  O
  O11      1.0000 0.13070  0.09790  0.08920  Biso   1.000  O
  O12      1.0000 0.36930  0.90210  0.58920  Biso   1.000  O
  C1       1.0000 0.50510  0.29680  0.66930  Biso   1.000  C
  C2       1.0000 0.99490  0.70320  0.16930  Biso   1.000  C
  C3       1.0000 0.00510  0.20320  0.33070  Biso   1.000  C
  C4       1.0000 0.49490  0.79680  0.83070  Biso   1.000  C
  H1       1.0000 0.59060  0.29720  0.65840  Biso   1.000  H
  H2       1.0000 0.90940  0.70280  0.15840  Biso   1.000  H
  H3       1.0000 0.09060  0.20280  0.34160  Biso   1.000  H
  H4       1.0000 0.40940  0.79720  0.84160  Biso   1.000  H
  C5       1.0000 0.42870  0.34200  0.60060  Biso   1.000  C
  C6       1.0000 0.07130  0.65800  0.10060  Biso   1.000  C
  C7       1.0000 0.92870  0.15800  0.39940  Biso   1.000  C
  C8       1.0000 0.57130  0.84200  0.89940  Biso   1.000  C
  H5       1.0000 0.46230  0.37060  0.54490  Biso   1.000  H
  H6       1.0000 0.03770  0.62940  0.04490  Biso   1.000  H
  H7       1.0000 0.96230  0.12940  0.45510  Biso   1.000  H
  H8       1.0000 0.53770  0.87060  0.95510  Biso   1.000  H
  C9       1.0000 0.30660  0.34360  0.61580  Biso   1.000  C
  C10      1.0000 0.19340  0.65640  0.11580  Biso   1.000  C
  C11      1.0000 0.80660  0.15640  0.38420  Biso   1.000  C
  C12      1.0000 0.69340  0.84360  0.88420  Biso   1.000  C
  H9       1.0000 0.25540  0.37610  0.57090  Biso   1.000  H
  H10      1.0000 0.24460  0.62390  0.07090  Biso   1.000  H
  H11      1.0000 0.75540  0.12390  0.42910  Biso   1.000  H
  H12      1.0000 0.74460  0.87610  0.92910  Biso   1.000  H
  C13      1.0000 0.25270  0.29850  0.69660  Biso   1.000  C
  C14      1.0000 0.24730  0.70150  0.19660  Biso   1.000  C
  C15      1.0000 0.75270  0.20150  0.30340  Biso   1.000  C
  C16      1.0000 0.74730  0.79850  0.80340  Biso   1.000  C
  C17      1.0000 0.12440  0.29910  0.71450  Biso   1.000  C
  C18      1.0000 0.37560  0.70090  0.21450  Biso   1.000  C
  C19      1.0000 0.62440  0.20090  0.28550  Biso   1.000  C
  C20      1.0000 0.87560  0.79910  0.78550  Biso   1.000  C
  H13      1.0000 0.07170  0.33100  0.67030  Biso   1.000  H
  H14      1.0000 0.42830  0.66900  0.17030  Biso   1.000  H
  H15      1.0000 0.57170  0.16900  0.32970  Biso   1.000  H
  H16      1.0000 0.92830  0.83100  0.82970  Biso   1.000  H
  C21      1.0000 0.07510  0.25530  0.79330  Biso   1.000  C
  C22      1.0000 0.42490  0.74470  0.29330  Biso   1.000  C
  C23      1.0000 0.57510  0.24470  0.20670  Biso   1.000  C
  C24      1.0000 0.92490  0.75530  0.70670  Biso   1.000  C
  H17      1.0000 0.98940  0.25660  0.80340  Biso   1.000  H
  H18      1.0000 0.51060  0.74340  0.30340  Biso   1.000  H
  H19      1.0000 0.48940  0.24340  0.19660  Biso   1.000  H
  H20      1.0000 0.01060  0.75660  0.69660  Biso   1.000  H
  C25      1.0000 0.15550  0.20710  0.86090  Biso   1.000  C
  C26      1.0000 0.34450  0.79290  0.36090  Biso   1.000  C
  C27      1.0000 0.65550  0.29290  0.13910  Biso   1.000  C
  C28      1.0000 0.84450  0.70710  0.63910  Biso   1.000  C
  H21      1.0000 0.12100  0.17700  0.91560  Biso   1.000  H
  H22      1.0000 0.37900  0.82300  0.41560  Biso   1.000  H
  H23      1.0000 0.62100  0.32300  0.08440  Biso   1.000  H
  H24      1.0000 0.87900  0.67700  0.58440  Biso   1.000  H
  C29      1.0000 0.28160  0.20330  0.84870  Biso   1.000  C
  C30      1.0000 0.21840  0.79670  0.34870  Biso   1.000  C
  C31      1.0000 0.78160  0.29670  0.15130  Biso   1.000  C
  C32      1.0000 0.71840  0.70330  0.65130  Biso   1.000  C
  C33      1.0000 0.33610  0.25160  0.76340  Biso   1.000  C
  C34      1.0000 0.16390  0.74840  0.26340  Biso   1.000  C
  C35      1.0000 0.83610  0.24840  0.23660  Biso   1.000  C
  C36      1.0000 0.66390  0.75160  0.73660  Biso   1.000  C
  C37      1.0000 0.35260  0.15010  0.92390  Biso   1.000  C
  C38      1.0000 0.14740  0.84990  0.42390  Biso   1.000  C
  C39      1.0000 0.85260  0.34990  0.07610  Biso   1.000  C
  C40      1.0000 0.64740  0.65010  0.57610  Biso   1.000  C
  H25      1.0000 0.30790  0.12210  0.97510  Biso   1.000  H
  H26      1.0000 0.19210  0.87790  0.47510  Biso   1.000  H
  H27      1.0000 0.80790  0.37790  0.02490  Biso   1.000  H
  H28      1.0000 0.69210  0.62210  0.52490  Biso   1.000  H
  C41      1.0000 0.64030  0.08740  0.00300  Biso   1.000  C
  C42      1.0000 0.85970  0.91260  0.50300  Biso   1.000  C
  C43      1.0000 0.14030  0.41260  0.99700  Biso   1.000  C
  C44      1.0000 0.35970  0.58740  0.49700  Biso   1.000  C
  C45      1.0000 0.70600  0.03010  0.08130  Biso   1.000  C
  C46      1.0000 0.79400  0.96990  0.58130  Biso   1.000  C
  C47      1.0000 0.20600  0.46990  0.91870  Biso   1.000  C
  C48      1.0000 0.29400  0.53010  0.41870  Biso   1.000  C
  C49      1.0000 0.64090  0.97170  0.15090  Biso   1.000  C
  C50      1.0000 0.85910  0.02830  0.65090  Biso   1.000  C
  C51      1.0000 0.14090  0.52830  0.84910  Biso   1.000  C
  C52      1.0000 0.35910  0.47170  0.34910  Biso   1.000  C
  H29      1.0000 0.55430  0.96910  0.14920  Biso   1.000  H
  H30      1.0000 0.94570  0.03090  0.64920  Biso   1.000  H
  H31      1.0000 0.05430  0.53090  0.85080  Biso   1.000  H
  H32      1.0000 0.44570  0.46910  0.35080  Biso   1.000  H
  C53      1.0000 0.70520  0.91790  0.22190  Biso   1.000  C
  C54      1.0000 0.79480  0.08210  0.72190  Biso   1.000  C
  C55      1.0000 0.20520  0.58210  0.77810  Biso   1.000  C
  C56      1.0000 0.29480  0.41790  0.27810  Biso   1.000  C
  H33      1.0000 0.65930  0.88110  0.26750  Biso   1.000  H
  H34      1.0000 0.84070  0.11890  0.76750  Biso   1.000  H
  H35      1.0000 0.15930  0.61890  0.73250  Biso   1.000  H
  H36      1.0000 0.34070  0.38110  0.23250  Biso   1.000  H
  C57      1.0000 0.89090  0.97070  0.16140  Biso   1.000  C
  C58      1.0000 0.60910  0.02930  0.66140  Biso   1.000  C
  C59      1.0000 0.39090  0.52930  0.83860  Biso   1.000  C
  C60      1.0000 0.10910  0.47070  0.33860  Biso   1.000  C
  H37      1.0000 0.97750  0.96950  0.16380  Biso   1.000  H
  H38      1.0000 0.52250  0.03050  0.66380  Biso   1.000  H
  H39      1.0000 0.47750  0.53050  0.83620  Biso   1.000  H
  H40      1.0000 0.02250  0.46950  0.33620  Biso   1.000  H
  C61      1.0000 0.83460  0.02860  0.08940  Biso   1.000  C
  C62      1.0000 0.66540  0.97140  0.58940  Biso   1.000  C
  C63      1.0000 0.33460  0.47140  0.91060  Biso   1.000  C
  C64      1.0000 0.16540  0.52860  0.41060  Biso   1.000  C
  H41      1.0000 0.88330  0.06660  0.04630  Biso   1.000  H
  H42      1.0000 0.61670  0.93340  0.54630  Biso   1.000  H
  H43      1.0000 0.38330  0.43340  0.95370  Biso   1.000  H
  H44      1.0000 0.11670  0.56660  0.45370  Biso   1.000  H
  C65      1.0000 0.70710  0.38890  0.84450  Biso   1.000  C
  C66      1.0000 0.79290  0.61110  0.34450  Biso   1.000  C
  C67      1.0000 0.20710  0.11110  0.15550  Biso   1.000  C
  C68      1.0000 0.29290  0.88890  0.65550  Biso   1.000  C
  C69      1.0000 0.79020  0.47840  0.81250  Biso   1.000  C
  C70      1.0000 0.70980  0.52160  0.31250  Biso   1.000  C
  C71      1.0000 0.29020  0.02160  0.18750  Biso   1.000  C
  C72      1.0000 0.20980  0.97840  0.68750  Biso   1.000  C
  H45      1.0000 0.77270  0.53930  0.85060  Biso   1.000  H
  H46      1.0000 0.72730  0.46070  0.35060  Biso   1.000  H
  H47      1.0000 0.27270  0.96070  0.14940  Biso   1.000  H
  H48      1.0000 0.22730  0.03930  0.64940  Biso   1.000  H
  H49      1.0000 0.77450  0.49380  0.74600  Biso   1.000  H
  H50      1.0000 0.72550  0.50620  0.24600  Biso   1.000  H
  H51      1.0000 0.27450  0.00620  0.25400  Biso   1.000  H
  H52      1.0000 0.22550  0.99380  0.75400  Biso   1.000  H
  H53      1.0000 0.87600  0.45890  0.82050  Biso   1.000  H
  H54      1.0000 0.62400  0.54110  0.32050  Biso   1.000  H
  H55      1.0000 0.37600  0.04110  0.17950  Biso   1.000  H
  H56      1.0000 0.12400  0.95890  0.67950  Biso   1.000  H
  O13      1.0000 0.41220  0.07410  0.46590  Biso   1.000  O
  O14      1.0000 0.08780  0.92590  0.96590  Biso   1.000  O
  O15      1.0000 0.91220  0.42590  0.53410  Biso   1.000  O
  O16      1.0000 0.58780  0.57410  0.03410  Biso   1.000  O
  H57      1.0000 0.39410  0.02490  0.50100  Biso   1.000  H
  H58      1.0000 0.10590  0.97510  0.00100  Biso   1.000  H
  H59      1.0000 0.89410  0.47510  0.49900  Biso   1.000  H
  H60      1.0000 0.60590  0.52490  0.99900  Biso   1.000  H
  C73      1.0000 0.31000  0.12700  0.44380  Biso   1.000  C
  C74      1.0000 0.19000  0.87300  0.94380  Biso   1.000  C
  C75      1.0000 0.81000  0.37300  0.55620  Biso   1.000  C
  C76      1.0000 0.69000  0.62700  0.05620  Biso   1.000  C
  H61      1.0000 0.27790  0.16030  0.50040  Biso   1.000  H
  H62      1.0000 0.22210  0.83970  0.00040  Biso   1.000  H
  H63      1.0000 0.77790  0.33970  0.49960  Biso   1.000  H
  H64      1.0000 0.72210  0.66030  0.99960  Biso   1.000  H
  H65      1.0000 0.24860  0.07990  0.41840  Biso   1.000  H
  H66      1.0000 0.25140  0.92010  0.91840  Biso   1.000  H
  H67      1.0000 0.74860  0.42010  0.58160  Biso   1.000  H
  H68      1.0000 0.75140  0.57990  0.08160  Biso   1.000  H
  H69      1.0000 0.32950  0.17920  0.39640  Biso   1.000  H
  H70      1.0000 0.17050  0.82080  0.89640  Biso   1.000  H
  H71      1.0000 0.82950  0.32080  0.60360  Biso   1.000  H
  H72      1.0000 0.67050  0.67920  0.10360  Biso   1.000  H
