data_image0
_cell_length_a       8.3167
_cell_length_b       4.8505
_cell_length_c       15.561
_cell_angle_alpha    90
_cell_angle_beta     94.108
_cell_angle_gamma    90

_symmetry_space_group_name_H-M    "P 1"
_symmetry_int_tables_number       1

loop_
  _symmetry_equiv_pos_as_xyz
  'x, y, z'

loop_
  _atom_site_label
  _atom_site_occupancy
  _atom_site_fract_x
  _atom_site_fract_y
  _atom_site_fract_z
  _atom_site_thermal_displace_type
  _atom_site_B_iso_or_equiv
  _atom_site_type_symbol
  Cu1      1.0000 0.00000  0.00000  0.00000  Biso   1.000  Cu
  Cu2      1.0000 0.50000  0.50000  0.50000  Biso   1.000  Cu
  O1       1.0000 0.81750  0.01880  0.06670  Biso   1.000  O
  O2       1.0000 0.68250  0.51880  0.43330  Biso   1.000  O
  O3       1.0000 0.18250  0.98120  0.93330  Biso   1.000  O
  O4       1.0000 0.31750  0.48120  0.56670  Biso   1.000  O
  C1       1.0000 0.66420  0.00620  0.03170  Biso   1.000  C
  C2       1.0000 0.83580  0.50620  0.46830  Biso   1.000  C
  C3       1.0000 0.33580  0.99380  0.96830  Biso   1.000  C
  C4       1.0000 0.16420  0.49380  0.53170  Biso   1.000  C
  C5       1.0000 0.94870  0.52970  0.87660  Biso   1.000  C
  C6       1.0000 0.55130  0.02970  0.62340  Biso   1.000  C
  C7       1.0000 0.05130  0.47030  0.12340  Biso   1.000  C
  C8       1.0000 0.44870  0.97030  0.37660  Biso   1.000  C
  H1       1.0000 0.06020  0.51420  0.86760  Biso   1.000  H
  H2       1.0000 0.43980  0.01420  0.63240  Biso   1.000  H
  H3       1.0000 0.93980  0.48580  0.13240  Biso   1.000  H
  H4       1.0000 0.56020  0.98580  0.36760  Biso   1.000  H
  N1       1.0000 0.88820  0.72360  0.92670  Biso   1.000  N
  N2       1.0000 0.61180  0.22360  0.57330  Biso   1.000  N
  N3       1.0000 0.11180  0.27640  0.07330  Biso   1.000  N
  N4       1.0000 0.38820  0.77640  0.42670  Biso   1.000  N
  N5       1.0000 0.72350  0.66620  0.91930  Biso   1.000  N
  N6       1.0000 0.77650  0.16620  0.58070  Biso   1.000  N
  N7       1.0000 0.27650  0.33380  0.08070  Biso   1.000  N
  N8       1.0000 0.22350  0.83380  0.41930  Biso   1.000  N
  C9       1.0000 0.61360  0.84060  0.96290  Biso   1.000  C
  C10      1.0000 0.88640  0.34060  0.53710  Biso   1.000  C
  C11      1.0000 0.38640  0.15940  0.03710  Biso   1.000  C
  C12      1.0000 0.11360  0.65940  0.46290  Biso   1.000  C
  C13      1.0000 0.54750  0.16340  0.07020  Biso   1.000  C
  C14      1.0000 0.95250  0.66340  0.42980  Biso   1.000  C
  C15      1.0000 0.45250  0.83660  0.92980  Biso   1.000  C
  C16      1.0000 0.04750  0.33660  0.57020  Biso   1.000  C
  H5       1.0000 0.57800  0.27360  0.11920  Biso   1.000  H
  H6       1.0000 0.92200  0.77360  0.38080  Biso   1.000  H
  H7       1.0000 0.42200  0.72640  0.88080  Biso   1.000  H
  H8       1.0000 0.07800  0.22640  0.61920  Biso   1.000  H
  C17      1.0000 0.69180  0.44870  0.86830  Biso   1.000  C
  C18      1.0000 0.80820  0.94870  0.63170  Biso   1.000  C
  C19      1.0000 0.30820  0.55130  0.13170  Biso   1.000  C
  C20      1.0000 0.19180  0.05130  0.36830  Biso   1.000  C
  H9       1.0000 0.58830  0.37130  0.85440  Biso   1.000  H
  H10      1.0000 0.91170  0.87130  0.64560  Biso   1.000  H
  H11      1.0000 0.41170  0.62870  0.14560  Biso   1.000  H
  H12      1.0000 0.08830  0.12870  0.35440  Biso   1.000  H
  C21      1.0000 0.83330  0.35650  0.83970  Biso   1.000  C
  C22      1.0000 0.66670  0.85650  0.66030  Biso   1.000  C
  C23      1.0000 0.16670  0.64350  0.16030  Biso   1.000  C
  C24      1.0000 0.33330  0.14350  0.33970  Biso   1.000  C
  H13      1.0000 0.84860  0.20520  0.80240  Biso   1.000  H
  H14      1.0000 0.65140  0.70520  0.69760  Biso   1.000  H
  H15      1.0000 0.15140  0.79480  0.19760  Biso   1.000  H
  H16      1.0000 0.34860  0.29480  0.30240  Biso   1.000  H
  O5       1.0000 0.83300  0.00010  0.24170  Biso   1.000  O
  O6       1.0000 0.66700  0.50010  0.25830  Biso   1.000  O
  O7       1.0000 0.16700  0.99990  0.75830  Biso   1.000  O
  O8       1.0000 0.33300  0.49990  0.74170  Biso   1.000  O
  H17      1.0000 0.83400  0.02400  0.18730  Biso   1.000  H
  H18      1.0000 0.66600  0.52400  0.31270  Biso   1.000  H
  H19      1.0000 0.16600  0.97600  0.81270  Biso   1.000  H
  H20      1.0000 0.33400  0.47600  0.68730  Biso   1.000  H
  H21      1.0000 0.79400  0.15700  0.25500  Biso   1.000  H
  H22      1.0000 0.70600  0.65700  0.24500  Biso   1.000  H
  H23      1.0000 0.20600  0.84300  0.74500  Biso   1.000  H
  H24      1.0000 0.29400  0.34300  0.75500  Biso   1.000  H
