data_image0
_cell_length_a       8.7642
_cell_length_b       19.75
_cell_length_c       11.4116
_cell_angle_alpha    90
_cell_angle_beta     100.492
_cell_angle_gamma    90

_symmetry_space_group_name_H-M    "P 1"
_symmetry_int_tables_number       1

loop_
  _symmetry_equiv_pos_as_xyz
  'x, y, z'

loop_
  _atom_site_label
  _atom_site_occupancy
  _atom_site_fract_x
  _atom_site_fract_y
  _atom_site_fract_z
  _atom_site_thermal_displace_type
  _atom_site_B_iso_or_equiv
  _atom_site_type_symbol
  Cu1      1.0000 0.29720  0.11301  0.79739  Biso   1.000  Cu
  Cu2      1.0000 0.20280  0.61301  0.70261  Biso   1.000  Cu
  Cu3      1.0000 0.70280  0.88699  0.20261  Biso   1.000  Cu
  Cu4      1.0000 0.79720  0.38699  0.29739  Biso   1.000  Cu
  N1       1.0000 0.43260  0.14405  0.98780  Biso   1.000  N
  N2       1.0000 0.06740  0.64405  0.51220  Biso   1.000  N
  N3       1.0000 0.56740  0.85595  0.01220  Biso   1.000  N
  N4       1.0000 0.93260  0.35595  0.48780  Biso   1.000  N
  O1       1.0000 0.60330  0.33641  0.09880  Biso   1.000  O
  O2       1.0000 0.89670  0.83641  0.40120  Biso   1.000  O
  O3       1.0000 0.39670  0.66359  0.90120  Biso   1.000  O
  O4       1.0000 0.10330  0.16359  0.59880  Biso   1.000  O
  O5       1.0000 0.72640  0.29319  0.26970  Biso   1.000  O
  O6       1.0000 0.77360  0.79319  0.23030  Biso   1.000  O
  O7       1.0000 0.27360  0.70681  0.73030  Biso   1.000  O
  O8       1.0000 0.22640  0.20681  0.76970  Biso   1.000  O
  O9       1.0000 0.62420  0.97944  0.17160  Biso   1.000  O
  O10      1.0000 0.87580  0.47944  0.32840  Biso   1.000  O
  O11      1.0000 0.37580  0.02056  0.82840  Biso   1.000  O
  O12      1.0000 0.12420  0.52056  0.67160  Biso   1.000  O
  O13      1.0000 0.74850  0.03991  0.32580  Biso   1.000  O
  O14      1.0000 0.75150  0.53991  0.17420  Biso   1.000  O
  O15      1.0000 0.25150  0.96009  0.67420  Biso   1.000  O
  O16      1.0000 0.24850  0.46009  0.82580  Biso   1.000  O
  O17      1.0000 0.75300  0.86550  0.74650  Biso   1.000  O
  O18      1.0000 0.74700  0.36550  0.75350  Biso   1.000  O
  O19      1.0000 0.24700  0.13450  0.25350  Biso   1.000  O
  O20      1.0000 0.25300  0.63450  0.24650  Biso   1.000  O
  H1       1.0000 0.84210  0.86520  0.73390  Biso   1.000  H
  H2       1.0000 0.65790  0.36520  0.76610  Biso   1.000  H
  H3       1.0000 0.15790  0.13480  0.26610  Biso   1.000  H
  H4       1.0000 0.34210  0.63480  0.23390  Biso   1.000  H
  O21      1.0000 0.99980  0.86670  0.64020  Biso   1.000  O
  O22      1.0000 0.50020  0.36670  0.85980  Biso   1.000  O
  O23      1.0000 0.00020  0.13330  0.35980  Biso   1.000  O
  O24      1.0000 0.49980  0.63330  0.14020  Biso   1.000  O
  C1       1.0000 0.48330  0.20598  0.02520  Biso   1.000  C
  C2       1.0000 0.01670  0.70598  0.47480  Biso   1.000  C
  C3       1.0000 0.51670  0.79402  0.97480  Biso   1.000  C
  C4       1.0000 0.98330  0.29402  0.52520  Biso   1.000  C
  H5       1.0000 0.44660  0.24310  0.97830  Biso   1.000  H
  H6       1.0000 0.05340  0.74310  0.52170  Biso   1.000  H
  H7       1.0000 0.55340  0.75690  0.02170  Biso   1.000  H
  H8       1.0000 0.94660  0.25690  0.47830  Biso   1.000  H
  C5       1.0000 0.58760  0.21717  0.13040  Biso   1.000  C
  C6       1.0000 0.91240  0.71717  0.36960  Biso   1.000  C
  C7       1.0000 0.41240  0.78283  0.86960  Biso   1.000  C
  C8       1.0000 0.08760  0.28283  0.63040  Biso   1.000  C
  C9       1.0000 0.64480  0.16180  0.19940  Biso   1.000  C
  C10      1.0000 0.85520  0.66180  0.30060  Biso   1.000  C
  C11      1.0000 0.35520  0.83820  0.80060  Biso   1.000  C
  C12      1.0000 0.14480  0.33820  0.69940  Biso   1.000  C
  H9       1.0000 0.71520  0.16790  0.27010  Biso   1.000  H
  H10      1.0000 0.78480  0.66790  0.22990  Biso   1.000  H
  H11      1.0000 0.28480  0.83210  0.72990  Biso   1.000  H
  H12      1.0000 0.21520  0.33210  0.77010  Biso   1.000  H
  C13      1.0000 0.59600  0.09739  0.16190  Biso   1.000  C
  C14      1.0000 0.90400  0.59739  0.33810  Biso   1.000  C
  C15      1.0000 0.40400  0.90261  0.83810  Biso   1.000  C
  C16      1.0000 0.09600  0.40261  0.66190  Biso   1.000  C
  C17      1.0000 0.48650  0.09124  0.05790  Biso   1.000  C
  C18      1.0000 0.01350  0.59124  0.44210  Biso   1.000  C
  C19      1.0000 0.51350  0.90876  0.94210  Biso   1.000  C
  C20      1.0000 0.98650  0.40876  0.55790  Biso   1.000  C
  H13      1.0000 0.44850  0.04830  0.03540  Biso   1.000  H
  H14      1.0000 0.05150  0.54830  0.46460  Biso   1.000  H
  H15      1.0000 0.55150  0.95170  0.96460  Biso   1.000  H
  H16      1.0000 0.94850  0.45170  0.53540  Biso   1.000  H
  C21      1.0000 0.64100  0.28810  0.16640  Biso   1.000  C
  C22      1.0000 0.85900  0.78810  0.33360  Biso   1.000  C
  C23      1.0000 0.35900  0.71190  0.83360  Biso   1.000  C
  C24      1.0000 0.14100  0.21190  0.66640  Biso   1.000  C
  C25      1.0000 0.66330  0.03443  0.22740  Biso   1.000  C
  C26      1.0000 0.83670  0.53443  0.27260  Biso   1.000  C
  C27      1.0000 0.33670  0.96557  0.77260  Biso   1.000  C
  C28      1.0000 0.16330  0.46557  0.72740  Biso   1.000  C
  N5       1.0000 0.09760  0.09032  0.85150  Biso   1.000  N
  N6       1.0000 0.40240  0.59032  0.64850  Biso   1.000  N
  N7       1.0000 0.90240  0.90968  0.14850  Biso   1.000  N
  N8       1.0000 0.59760  0.40968  0.35150  Biso   1.000  N
  C29      1.0000 0.99820  0.04221  0.78990  Biso   1.000  C
  C30      1.0000 0.50180  0.54221  0.71010  Biso   1.000  C
  C31      1.0000 0.00180  0.95779  0.21010  Biso   1.000  C
  C32      1.0000 0.49820  0.45779  0.28990  Biso   1.000  C
  H17      1.0000 0.02500  0.02000  0.72470  Biso   1.000  H
  H18      1.0000 0.47500  0.52000  0.77530  Biso   1.000  H
  H19      1.0000 0.97500  0.98000  0.27530  Biso   1.000  H
  H20      1.0000 0.52500  0.48000  0.22470  Biso   1.000  H
  C33      1.0000 0.85870  0.02725  0.82580  Biso   1.000  C
  C34      1.0000 0.64130  0.52725  0.67420  Biso   1.000  C
  C35      1.0000 0.14130  0.97275  0.17420  Biso   1.000  C
  C36      1.0000 0.35870  0.47275  0.32580  Biso   1.000  C
  H21      1.0000 0.79220  0.99510  0.78470  Biso   1.000  H
  H22      1.0000 0.70780  0.49510  0.71530  Biso   1.000  H
  H23      1.0000 0.20780  0.00490  0.21530  Biso   1.000  H
  H24      1.0000 0.29220  0.50490  0.28470  Biso   1.000  H
  C37      1.0000 0.81860  0.06040  0.92330  Biso   1.000  C
  C38      1.0000 0.68140  0.56040  0.57670  Biso   1.000  C
  C39      1.0000 0.18140  0.93960  0.07670  Biso   1.000  C
  C40      1.0000 0.31860  0.43960  0.42330  Biso   1.000  C
  H25      1.0000 0.72530  0.05040  0.94740  Biso   1.000  H
  H26      1.0000 0.77470  0.55040  0.55260  Biso   1.000  H
  H27      1.0000 0.27470  0.94960  0.05260  Biso   1.000  H
  H28      1.0000 0.22530  0.44960  0.44740  Biso   1.000  H
  C41      1.0000 0.91800  0.10850  0.98490  Biso   1.000  C
  C42      1.0000 0.58200  0.60850  0.51510  Biso   1.000  C
  C43      1.0000 0.08200  0.89150  0.01510  Biso   1.000  C
  C44      1.0000 0.41800  0.39150  0.48490  Biso   1.000  C
  H29      1.0000 0.89120  0.13070  0.05010  Biso   1.000  H
  H30      1.0000 0.60880  0.63070  0.44990  Biso   1.000  H
  H31      1.0000 0.10880  0.86930  0.94990  Biso   1.000  H
  H32      1.0000 0.39120  0.36930  0.55010  Biso   1.000  H
  C45      1.0000 0.05750  0.12346  0.94900  Biso   1.000  C
  C46      1.0000 0.44250  0.62346  0.55100  Biso   1.000  C
  C47      1.0000 0.94250  0.87654  0.05100  Biso   1.000  C
  C48      1.0000 0.55750  0.37654  0.44900  Biso   1.000  C
  H33      1.0000 0.12400  0.15570  0.99020  Biso   1.000  H
  H34      1.0000 0.37600  0.65570  0.50980  Biso   1.000  H
  H35      1.0000 0.87600  0.84430  0.00980  Biso   1.000  H
  H36      1.0000 0.62400  0.34430  0.49020  Biso   1.000  H
  N9       1.0000 0.46750  0.13174  0.70520  Biso   1.000  N
  N10      1.0000 0.03250  0.63174  0.79480  Biso   1.000  N
  N11      1.0000 0.53250  0.86826  0.29480  Biso   1.000  N
  N12      1.0000 0.96750  0.36826  0.20520  Biso   1.000  N
  C49      1.0000 0.49730  0.08444  0.62200  Biso   1.000  C
  C50      1.0000 0.00270  0.58444  0.87800  Biso   1.000  C
  C51      1.0000 0.50270  0.91556  0.37800  Biso   1.000  C
  C52      1.0000 0.99730  0.41556  0.12200  Biso   1.000  C
  H37      1.0000 0.43800  0.04520  0.60890  Biso   1.000  H
  H38      1.0000 0.06200  0.54520  0.89110  Biso   1.000  H
  H39      1.0000 0.56200  0.95480  0.39110  Biso   1.000  H
  H40      1.0000 0.93800  0.45480  0.10890  Biso   1.000  H
  C53      1.0000 0.61600  0.09580  0.55840  Biso   1.000  C
  C54      1.0000 0.88400  0.59580  0.94160  Biso   1.000  C
  C55      1.0000 0.38400  0.90420  0.44160  Biso   1.000  C
  C56      1.0000 0.11600  0.40420  0.05840  Biso   1.000  C
  H41      1.0000 0.63590  0.06410  0.50280  Biso   1.000  H
  H42      1.0000 0.86410  0.56410  0.99720  Biso   1.000  H
  H43      1.0000 0.36410  0.93590  0.49720  Biso   1.000  H
  H44      1.0000 0.13590  0.43590  0.00280  Biso   1.000  H
  C57      1.0000 0.70470  0.15440  0.57800  Biso   1.000  C
  C58      1.0000 0.79530  0.65440  0.92200  Biso   1.000  C
  C59      1.0000 0.29530  0.84560  0.42200  Biso   1.000  C
  C60      1.0000 0.20470  0.34560  0.07800  Biso   1.000  C
  H45      1.0000 0.78410  0.16200  0.53540  Biso   1.000  H
  H46      1.0000 0.71590  0.66200  0.96460  Biso   1.000  H
  H47      1.0000 0.21590  0.83800  0.46460  Biso   1.000  H
  H48      1.0000 0.28410  0.33800  0.03540  Biso   1.000  H
  C61      1.0000 0.67480  0.20170  0.66110  Biso   1.000  C
  C62      1.0000 0.82520  0.70170  0.83890  Biso   1.000  C
  C63      1.0000 0.32520  0.79830  0.33890  Biso   1.000  C
  C64      1.0000 0.17480  0.29830  0.16110  Biso   1.000  C
  H49      1.0000 0.73420  0.24090  0.67420  Biso   1.000  H
  H50      1.0000 0.76580  0.74090  0.82580  Biso   1.000  H
  H51      1.0000 0.26580  0.75910  0.32580  Biso   1.000  H
  H52      1.0000 0.23420  0.25910  0.17420  Biso   1.000  H
  C65      1.0000 0.55620  0.19037  0.72470  Biso   1.000  C
  C66      1.0000 0.94380  0.69037  0.77530  Biso   1.000  C
  C67      1.0000 0.44380  0.80963  0.27530  Biso   1.000  C
  C68      1.0000 0.05620  0.30963  0.22470  Biso   1.000  C
  H53      1.0000 0.53620  0.22200  0.78030  Biso   1.000  H
  H54      1.0000 0.96380  0.72200  0.71970  Biso   1.000  H
  H55      1.0000 0.46380  0.77800  0.21970  Biso   1.000  H
  H56      1.0000 0.03620  0.27800  0.28030  Biso   1.000  H
  C69      1.0000 0.62140  0.78980  0.59430  Biso   1.000  C
  C70      1.0000 0.87860  0.28980  0.90570  Biso   1.000  C
  C71      1.0000 0.37860  0.21020  0.40570  Biso   1.000  C
  C72      1.0000 0.12140  0.71020  0.09430  Biso   1.000  C
  H57      1.0000 0.54860  0.78720  0.52060  Biso   1.000  H
  H58      1.0000 0.95140  0.28720  0.97940  Biso   1.000  H
  H59      1.0000 0.45140  0.21280  0.47940  Biso   1.000  H
  H60      1.0000 0.04860  0.71280  0.02060  Biso   1.000  H
  H61      1.0000 0.58210  0.76480  0.65460  Biso   1.000  H
  H62      1.0000 0.91790  0.26480  0.84540  Biso   1.000  H
  H63      1.0000 0.41790  0.23520  0.34540  Biso   1.000  H
  H64      1.0000 0.08210  0.73520  0.15460  Biso   1.000  H
  H65      1.0000 0.71880  0.77080  0.58360  Biso   1.000  H
  H66      1.0000 0.78120  0.27080  0.91640  Biso   1.000  H
  H67      1.0000 0.28120  0.22920  0.41640  Biso   1.000  H
  H68      1.0000 0.21880  0.72920  0.08360  Biso   1.000  H
  C73      1.0000 0.64680  0.86980  0.63570  Biso   1.000  C
  C74      1.0000 0.85320  0.36980  0.86430  Biso   1.000  C
  C75      1.0000 0.35320  0.13020  0.36430  Biso   1.000  C
  C76      1.0000 0.14680  0.63020  0.13570  Biso   1.000  C
  H69      1.0000 0.69060  0.89580  0.57770  Biso   1.000  H
  H70      1.0000 0.80940  0.39580  0.92230  Biso   1.000  H
  H71      1.0000 0.30940  0.10420  0.42230  Biso   1.000  H
  H72      1.0000 0.19060  0.60420  0.07770  Biso   1.000  H
  H73      1.0000 0.54970  0.89040  0.64610  Biso   1.000  H
  H74      1.0000 0.95030  0.39040  0.85390  Biso   1.000  H
  H75      1.0000 0.45030  0.10960  0.35390  Biso   1.000  H
  H76      1.0000 0.04970  0.60960  0.14610  Biso   1.000  H
  H77      1.0000 0.92900  0.92000  0.59300  Biso   1.000  H
  H78      1.0000 0.57100  0.42000  0.90700  Biso   1.000  H
  H79      1.0000 0.07100  0.08000  0.40700  Biso   1.000  H
  H80      1.0000 0.42900  0.58000  0.09300  Biso   1.000  H
  H81      1.0000 0.03000  0.86600  0.55000  Biso   1.000  H
  H82      1.0000 0.47000  0.36600  0.95000  Biso   1.000  H
  H83      1.0000 0.97000  0.13400  0.45000  Biso   1.000  H
  H84      1.0000 0.53000  0.63400  0.05000  Biso   1.000  H
