data_image0
_cell_length_a       12.014
_cell_length_b       11.035
_cell_length_c       14.05
_cell_angle_alpha    90
_cell_angle_beta     90
_cell_angle_gamma    90

_symmetry_space_group_name_H-M    "P 1"
_symmetry_int_tables_number       1

loop_
  _symmetry_equiv_pos_as_xyz
  'x, y, z'

loop_
  _atom_site_label
  _atom_site_occupancy
  _atom_site_fract_x
  _atom_site_fract_y
  _atom_site_fract_z
  _atom_site_thermal_displace_type
  _atom_site_B_iso_or_equiv
  _atom_site_type_symbol
  C1       1.0000 0.40690  0.60230  0.43843  Biso   1.000  C
  C2       1.0000 0.59310  0.39770  0.93843  Biso   1.000  C
  C3       1.0000 0.59310  0.10230  0.06157  Biso   1.000  C
  C4       1.0000 0.40690  0.89770  0.56157  Biso   1.000  C
  C5       1.0000 0.59310  0.39770  0.56157  Biso   1.000  C
  C6       1.0000 0.40690  0.60230  0.06157  Biso   1.000  C
  C7       1.0000 0.40690  0.89770  0.93843  Biso   1.000  C
  C8       1.0000 0.59310  0.10230  0.43843  Biso   1.000  C
  H1       1.0000 0.47380  0.62030  0.46860  Biso   1.000  H
  H2       1.0000 0.52620  0.37970  0.96860  Biso   1.000  H
  H3       1.0000 0.52620  0.12030  0.03140  Biso   1.000  H
  H4       1.0000 0.47380  0.87970  0.53140  Biso   1.000  H
  H5       1.0000 0.52620  0.37970  0.53140  Biso   1.000  H
  H6       1.0000 0.47380  0.62030  0.03140  Biso   1.000  H
  H7       1.0000 0.47380  0.87970  0.96860  Biso   1.000  H
  H8       1.0000 0.52620  0.12030  0.46860  Biso   1.000  H
  C9       1.0000 0.31350  0.57900  0.49380  Biso   1.000  C
  C10      1.0000 0.68650  0.42100  0.99380  Biso   1.000  C
  C11      1.0000 0.68650  0.07900  0.00620  Biso   1.000  C
  C12      1.0000 0.31350  0.92100  0.50620  Biso   1.000  C
  C13      1.0000 0.68650  0.42100  0.50620  Biso   1.000  C
  C14      1.0000 0.31350  0.57900  0.00620  Biso   1.000  C
  C15      1.0000 0.31350  0.92100  0.99380  Biso   1.000  C
  C16      1.0000 0.68650  0.07900  0.49380  Biso   1.000  C
  H9       1.0000 0.31800  0.58280  0.55980  Biso   1.000  H
  H10      1.0000 0.68200  0.41720  0.05980  Biso   1.000  H
  H11      1.0000 0.68200  0.08280  0.94020  Biso   1.000  H
  H12      1.0000 0.31800  0.91720  0.44020  Biso   1.000  H
  H13      1.0000 0.68200  0.41720  0.44020  Biso   1.000  H
  H14      1.0000 0.31800  0.58280  0.94020  Biso   1.000  H
  H15      1.0000 0.31800  0.91720  0.05980  Biso   1.000  H
  H16      1.0000 0.68200  0.08280  0.55980  Biso   1.000  H
  C17      1.0000 0.21490  0.55040  0.45090  Biso   1.000  C
  C18      1.0000 0.78510  0.44960  0.95090  Biso   1.000  C
  C19      1.0000 0.78510  0.05040  0.04910  Biso   1.000  C
  C20      1.0000 0.21490  0.94960  0.54910  Biso   1.000  C
  C21      1.0000 0.78510  0.44960  0.54910  Biso   1.000  C
  C22      1.0000 0.21490  0.55040  0.04910  Biso   1.000  C
  C23      1.0000 0.21490  0.94960  0.95090  Biso   1.000  C
  C24      1.0000 0.78510  0.05040  0.45090  Biso   1.000  C
  H17      1.0000 0.15240  0.53310  0.48750  Biso   1.000  H
  H18      1.0000 0.84760  0.46690  0.98750  Biso   1.000  H
  H19      1.0000 0.84760  0.03310  0.01250  Biso   1.000  H
  H20      1.0000 0.15240  0.96690  0.51250  Biso   1.000  H
  H21      1.0000 0.84760  0.46690  0.51250  Biso   1.000  H
  H22      1.0000 0.15240  0.53310  0.01250  Biso   1.000  H
  H23      1.0000 0.15240  0.96690  0.98750  Biso   1.000  H
  H24      1.0000 0.84760  0.03310  0.48750  Biso   1.000  H
  C25      1.0000 0.20850  0.54730  0.35130  Biso   1.000  C
  C26      1.0000 0.79150  0.45270  0.85130  Biso   1.000  C
  C27      1.0000 0.79150  0.04730  0.14870  Biso   1.000  C
  C28      1.0000 0.20850  0.95270  0.64870  Biso   1.000  C
  C29      1.0000 0.79150  0.45270  0.64870  Biso   1.000  C
  C30      1.0000 0.20850  0.54730  0.14870  Biso   1.000  C
  C31      1.0000 0.20850  0.95270  0.85130  Biso   1.000  C
  C32      1.0000 0.79150  0.04730  0.35130  Biso   1.000  C
  C33      1.0000 0.30583  0.57330  0.30099  Biso   1.000  C
  C34      1.0000 0.69417  0.42670  0.80099  Biso   1.000  C
  C35      1.0000 0.69417  0.07330  0.19901  Biso   1.000  C
  C36      1.0000 0.30583  0.92670  0.69901  Biso   1.000  C
  C37      1.0000 0.69417  0.42670  0.69901  Biso   1.000  C
  C38      1.0000 0.30583  0.57330  0.19901  Biso   1.000  C
  C39      1.0000 0.30583  0.92670  0.80099  Biso   1.000  C
  C40      1.0000 0.69417  0.07330  0.30099  Biso   1.000  C
  C41      1.0000 0.10980  0.51970  0.29770  Biso   1.000  C
  C42      1.0000 0.89020  0.48030  0.79770  Biso   1.000  C
  C43      1.0000 0.89020  0.01970  0.20230  Biso   1.000  C
  C44      1.0000 0.10980  0.98030  0.70230  Biso   1.000  C
  C45      1.0000 0.89020  0.48030  0.70230  Biso   1.000  C
  C46      1.0000 0.10980  0.51970  0.20230  Biso   1.000  C
  C47      1.0000 0.10980  0.98030  0.79770  Biso   1.000  C
  C48      1.0000 0.89020  0.01970  0.29770  Biso   1.000  C
  H25      1.0000 0.04440  0.50150  0.33000  Biso   1.000  H
  H26      1.0000 0.95560  0.49850  0.83000  Biso   1.000  H
  H27      1.0000 0.95560  0.00150  0.17000  Biso   1.000  H
  H28      1.0000 0.04440  0.99850  0.67000  Biso   1.000  H
  H29      1.0000 0.95560  0.49850  0.67000  Biso   1.000  H
  H30      1.0000 0.04440  0.50150  0.17000  Biso   1.000  H
  H31      1.0000 0.04440  0.99850  0.83000  Biso   1.000  H
  H32      1.0000 0.95560  0.00150  0.33000  Biso   1.000  H
  C49      1.0000 0.65583  0.72800  0.39479  Biso   1.000  C
  C50      1.0000 0.34417  0.27200  0.89479  Biso   1.000  C
  C51      1.0000 0.34417  0.22800  0.10521  Biso   1.000  C
  C52      1.0000 0.65583  0.77200  0.60521  Biso   1.000  C
  C53      1.0000 0.34417  0.27200  0.60521  Biso   1.000  C
  C54      1.0000 0.65583  0.72800  0.10521  Biso   1.000  C
  C55      1.0000 0.65583  0.77200  0.89479  Biso   1.000  C
  C56      1.0000 0.34417  0.22800  0.39479  Biso   1.000  C
  C57      1.0000 0.76201  0.73630  0.45161  Biso   1.000  C
  C58      1.0000 0.23799  0.26370  0.95161  Biso   1.000  C
  C59      1.0000 0.23799  0.23630  0.04839  Biso   1.000  C
  C60      1.0000 0.76201  0.76370  0.54839  Biso   1.000  C
  C61      1.0000 0.23799  0.26370  0.54839  Biso   1.000  C
  C62      1.0000 0.76201  0.73630  0.04839  Biso   1.000  C
  C63      1.0000 0.76201  0.76370  0.95161  Biso   1.000  C
  C64      1.0000 0.23799  0.23630  0.45161  Biso   1.000  C
  C65      1.0000 0.86281  0.72300  0.40434  Biso   1.000  C
  C66      1.0000 0.13719  0.27700  0.90434  Biso   1.000  C
  C67      1.0000 0.13719  0.22300  0.09566  Biso   1.000  C
  C68      1.0000 0.86281  0.77700  0.59566  Biso   1.000  C
  C69      1.0000 0.13719  0.27700  0.59566  Biso   1.000  C
  C70      1.0000 0.86281  0.72300  0.09566  Biso   1.000  C
  C71      1.0000 0.86281  0.77700  0.90434  Biso   1.000  C
  C72      1.0000 0.13719  0.22300  0.40434  Biso   1.000  C
  H33      1.0000 0.86330  0.70430  0.33980  Biso   1.000  H
  H34      1.0000 0.13670  0.29570  0.83980  Biso   1.000  H
  H35      1.0000 0.13670  0.20430  0.16020  Biso   1.000  H
  H36      1.0000 0.86330  0.79570  0.66020  Biso   1.000  H
  H37      1.0000 0.13670  0.29570  0.66020  Biso   1.000  H
  H38      1.0000 0.86330  0.70430  0.16020  Biso   1.000  H
  H39      1.0000 0.86330  0.79570  0.83980  Biso   1.000  H
  H40      1.0000 0.13670  0.20430  0.33980  Biso   1.000  H
  C73      1.0000 0.96224  0.73730  0.45230  Biso   1.000  C
  C74      1.0000 0.03776  0.26270  0.95230  Biso   1.000  C
  C75      1.0000 0.03776  0.23730  0.04770  Biso   1.000  C
  C76      1.0000 0.96224  0.76270  0.54770  Biso   1.000  C
  C77      1.0000 0.03776  0.26270  0.54770  Biso   1.000  C
  C78      1.0000 0.96224  0.73730  0.04770  Biso   1.000  C
  C79      1.0000 0.96224  0.76270  0.95230  Biso   1.000  C
  C80      1.0000 0.03776  0.23730  0.45230  Biso   1.000  C
  H41      1.0000 0.02930  0.72950  0.41980  Biso   1.000  H
  H42      1.0000 0.97070  0.27050  0.91980  Biso   1.000  H
  H43      1.0000 0.97070  0.22950  0.08020  Biso   1.000  H
  H44      1.0000 0.02930  0.77050  0.58020  Biso   1.000  H
  H45      1.0000 0.97070  0.27050  0.58020  Biso   1.000  H
  H46      1.0000 0.02930  0.72950  0.08020  Biso   1.000  H
  H47      1.0000 0.02930  0.77050  0.91980  Biso   1.000  H
  H48      1.0000 0.97070  0.22950  0.41980  Biso   1.000  H
  Cu1      1.0000 0.52993  0.61266  0.25000  Biso   1.000  Cu
  Cu2      1.0000 0.47007  0.38734  0.75000  Biso   1.000  Cu
  Cu3      1.0000 0.47007  0.11266  0.25000  Biso   1.000  Cu
  Cu4      1.0000 0.52993  0.88734  0.75000  Biso   1.000  Cu
  N1       1.0000 0.40400  0.59969  0.34403  Biso   1.000  N
  N2       1.0000 0.59600  0.40031  0.84403  Biso   1.000  N
  N3       1.0000 0.59600  0.09969  0.15597  Biso   1.000  N
  N4       1.0000 0.40400  0.90031  0.65597  Biso   1.000  N
  N5       1.0000 0.59600  0.40031  0.65597  Biso   1.000  N
  N6       1.0000 0.40400  0.59969  0.15597  Biso   1.000  N
  N7       1.0000 0.40400  0.90031  0.84403  Biso   1.000  N
  N8       1.0000 0.59600  0.09969  0.34403  Biso   1.000  N
  O1       1.0000 0.58871  0.81259  0.39801  Biso   1.000  O
  O2       1.0000 0.41129  0.18741  0.89801  Biso   1.000  O
  O3       1.0000 0.41129  0.31259  0.10199  Biso   1.000  O
  O4       1.0000 0.58871  0.68741  0.60199  Biso   1.000  O
  O5       1.0000 0.41129  0.18741  0.60199  Biso   1.000  O
  O6       1.0000 0.58871  0.81259  0.10199  Biso   1.000  O
  O7       1.0000 0.58871  0.68741  0.89801  Biso   1.000  O
  O8       1.0000 0.41129  0.31259  0.39801  Biso   1.000  O
  O9       1.0000 0.64608  0.63252  0.34439  Biso   1.000  O
  O10      1.0000 0.35392  0.36748  0.84439  Biso   1.000  O
  O11      1.0000 0.35392  0.13252  0.15561  Biso   1.000  O
  O12      1.0000 0.64608  0.86748  0.65561  Biso   1.000  O
  O13      1.0000 0.35392  0.36748  0.65561  Biso   1.000  O
  O14      1.0000 0.64608  0.63252  0.15561  Biso   1.000  O
  O15      1.0000 0.64608  0.86748  0.84439  Biso   1.000  O
  O16      1.0000 0.35392  0.13252  0.34439  Biso   1.000  O
  O17      1.0000 0.54530  0.40020  0.25000  Biso   1.000  O
  O18      1.0000 0.45470  0.59980  0.75000  Biso   1.000  O
  O19      1.0000 0.45470  0.90020  0.25000  Biso   1.000  O
  O20      1.0000 0.54530  0.09980  0.75000  Biso   1.000  O
  H49      1.0000 0.51340  0.37260  0.20320  Biso   1.000  H
  H50      1.0000 0.48660  0.62740  0.70320  Biso   1.000  H
  H51      1.0000 0.48660  0.87260  0.29680  Biso   1.000  H
  H52      1.0000 0.51340  0.12740  0.79680  Biso   1.000  H
  H53      1.0000 0.48660  0.62740  0.79680  Biso   1.000  H
  H54      1.0000 0.51340  0.37260  0.29680  Biso   1.000  H
  H55      1.0000 0.51340  0.12740  0.70320  Biso   1.000  H
  H56      1.0000 0.48660  0.87260  0.20320  Biso   1.000  H
  C81      1.0000 0.82450  0.37410  0.25000  Biso   1.000  C
  C82      1.0000 0.17550  0.62590  0.75000  Biso   1.000  C
  C83      1.0000 0.17550  0.87410  0.25000  Biso   1.000  C
  C84      1.0000 0.82450  0.12590  0.75000  Biso   1.000  C
  H57      1.0000 0.88890  0.36220  0.21060  Biso   1.000  H
  H58      1.0000 0.11110  0.63780  0.71060  Biso   1.000  H
  H59      1.0000 0.11110  0.86220  0.28940  Biso   1.000  H
  H60      1.0000 0.88890  0.13780  0.78940  Biso   1.000  H
  H61      1.0000 0.11110  0.63780  0.78940  Biso   1.000  H
  H62      1.0000 0.88890  0.36220  0.28940  Biso   1.000  H
  H63      1.0000 0.88890  0.13780  0.71060  Biso   1.000  H
  H64      1.0000 0.11110  0.86220  0.21060  Biso   1.000  H
  H65      1.0000 0.75940  0.37940  0.21060  Biso   1.000  H
  H66      1.0000 0.24060  0.62060  0.71060  Biso   1.000  H
  H67      1.0000 0.24060  0.87940  0.28940  Biso   1.000  H
  H68      1.0000 0.75940  0.12060  0.78940  Biso   1.000  H
  H69      1.0000 0.24060  0.62060  0.78940  Biso   1.000  H
  H70      1.0000 0.75940  0.37940  0.28940  Biso   1.000  H
  H71      1.0000 0.75940  0.12060  0.71060  Biso   1.000  H
  H72      1.0000 0.24060  0.87940  0.21060  Biso   1.000  H
  H73      1.0000 0.81700  0.30700  0.29300  Biso   1.000  H
  H74      1.0000 0.18300  0.69300  0.79300  Biso   1.000  H
  H75      1.0000 0.18300  0.80700  0.20700  Biso   1.000  H
  H76      1.0000 0.81700  0.19300  0.70700  Biso   1.000  H
  H77      1.0000 0.18300  0.69300  0.70700  Biso   1.000  H
  H78      1.0000 0.81700  0.30700  0.20700  Biso   1.000  H
  H79      1.0000 0.81700  0.19300  0.79300  Biso   1.000  H
  H80      1.0000 0.18300  0.80700  0.29300  Biso   1.000  H
  O21      1.0000 0.83640  0.47040  0.29800  Biso   1.000  O
  O22      1.0000 0.16360  0.52960  0.79800  Biso   1.000  O
  O23      1.0000 0.16360  0.97040  0.20200  Biso   1.000  O
  O24      1.0000 0.83640  0.02960  0.70200  Biso   1.000  O
  O25      1.0000 0.16360  0.52960  0.70200  Biso   1.000  O
  O26      1.0000 0.83640  0.47040  0.20200  Biso   1.000  O
  O27      1.0000 0.83640  0.02960  0.79800  Biso   1.000  O
  O28      1.0000 0.16360  0.97040  0.29800  Biso   1.000  O
  H81      1.0000 0.77970  0.51090  0.30510  Biso   1.000  H
  H82      1.0000 0.22030  0.48910  0.80510  Biso   1.000  H
  H83      1.0000 0.22030  0.01090  0.19490  Biso   1.000  H
  H84      1.0000 0.77970  0.98910  0.69490  Biso   1.000  H
  H85      1.0000 0.22030  0.48910  0.69490  Biso   1.000  H
  H86      1.0000 0.77970  0.51090  0.19490  Biso   1.000  H
  H87      1.0000 0.77970  0.98910  0.80510  Biso   1.000  H
  H88      1.0000 0.22030  0.01090  0.30510  Biso   1.000  H
