data_image0
_cell_length_a       14.045
_cell_length_b       12.342
_cell_length_c       17.259
_cell_angle_alpha    90
_cell_angle_beta     90
_cell_angle_gamma    90

_symmetry_space_group_name_H-M    "P 1"
_symmetry_int_tables_number       1

loop_
  _symmetry_equiv_pos_as_xyz
  'x, y, z'

loop_
  _atom_site_label
  _atom_site_occupancy
  _atom_site_fract_x
  _atom_site_fract_y
  _atom_site_fract_z
  _atom_site_thermal_displace_type
  _atom_site_B_iso_or_equiv
  _atom_site_type_symbol
  Cu1      1.0000 0.98280  0.63129  0.67790  Biso   1.000  Cu
  Cu2      1.0000 0.01720  0.36871  0.17790  Biso   1.000  Cu
  Cu3      1.0000 0.51720  0.63129  0.17790  Biso   1.000  Cu
  Cu4      1.0000 0.48280  0.36871  0.67790  Biso   1.000  Cu
  O1       1.0000 0.89880  0.63310  0.76890  Biso   1.000  O
  O2       1.0000 0.10120  0.36690  0.26890  Biso   1.000  O
  O3       1.0000 0.60120  0.63310  0.26890  Biso   1.000  O
  O4       1.0000 0.39880  0.36690  0.76890  Biso   1.000  O
  C1       1.0000 0.81760  0.58500  0.77450  Biso   1.000  C
  C2       1.0000 0.18240  0.41500  0.27450  Biso   1.000  C
  C3       1.0000 0.68240  0.58500  0.27450  Biso   1.000  C
  C4       1.0000 0.31760  0.41500  0.77450  Biso   1.000  C
  C5       1.0000 0.75780  0.63030  0.84190  Biso   1.000  C
  C6       1.0000 0.24220  0.36970  0.34190  Biso   1.000  C
  C7       1.0000 0.74220  0.63030  0.34190  Biso   1.000  C
  C8       1.0000 0.25780  0.36970  0.84190  Biso   1.000  C
  F1       1.0000 0.80880  0.68400  0.89050  Biso   1.000  F
  F2       1.0000 0.19120  0.31600  0.39050  Biso   1.000  F
  F3       1.0000 0.69120  0.68400  0.39050  Biso   1.000  F
  F4       1.0000 0.30880  0.31600  0.89050  Biso   1.000  F
  F5       1.0000 0.71200  0.55940  0.87960  Biso   1.000  F
  F6       1.0000 0.28800  0.44060  0.37960  Biso   1.000  F
  F7       1.0000 0.78800  0.55940  0.37960  Biso   1.000  F
  F8       1.0000 0.21200  0.44060  0.87960  Biso   1.000  F
  F9       1.0000 0.69430  0.69740  0.81480  Biso   1.000  F
  F10      1.0000 0.30570  0.30260  0.31480  Biso   1.000  F
  F11      1.0000 0.80570  0.69740  0.31480  Biso   1.000  F
  F12      1.0000 0.19430  0.30260  0.81480  Biso   1.000  F
  C9       1.0000 0.78640  0.50000  0.73040  Biso   1.000  C
  C10      1.0000 0.21360  0.50000  0.23040  Biso   1.000  C
  C11      1.0000 0.71360  0.50000  0.23040  Biso   1.000  C
  C12      1.0000 0.28640  0.50000  0.73040  Biso   1.000  C
  C13      1.0000 0.69010  0.46130  0.73780  Biso   1.000  C
  C14      1.0000 0.30990  0.53870  0.23780  Biso   1.000  C
  C15      1.0000 0.80990  0.46130  0.23780  Biso   1.000  C
  C16      1.0000 0.19010  0.53870  0.73780  Biso   1.000  C
  N1       1.0000 0.61120  0.44000  0.74290  Biso   1.000  N
  N2       1.0000 0.38880  0.56000  0.24290  Biso   1.000  N
  N3       1.0000 0.88880  0.44000  0.24290  Biso   1.000  N
  N4       1.0000 0.11120  0.56000  0.74290  Biso   1.000  N
  C17      1.0000 0.84960  0.44940  0.67580  Biso   1.000  C
  C18      1.0000 0.15040  0.55060  0.17580  Biso   1.000  C
  C19      1.0000 0.65040  0.44940  0.17580  Biso   1.000  C
  C20      1.0000 0.34960  0.55060  0.67580  Biso   1.000  C
  N5       1.0000 0.82760  0.34780  0.64480  Biso   1.000  N
  N6       1.0000 0.17240  0.65220  0.14480  Biso   1.000  N
  N7       1.0000 0.67240  0.34780  0.14480  Biso   1.000  N
  N8       1.0000 0.32760  0.65220  0.64480  Biso   1.000  N
  O5       1.0000 0.75160  0.29610  0.65790  Biso   1.000  O
  O6       1.0000 0.24840  0.70390  0.15790  Biso   1.000  O
  O7       1.0000 0.74840  0.29610  0.15790  Biso   1.000  O
  O8       1.0000 0.25160  0.70390  0.65790  Biso   1.000  O
  C21      1.0000 0.90940  0.30320  0.60400  Biso   1.000  C
  C22      1.0000 0.09060  0.69680  0.10400  Biso   1.000  C
  C23      1.0000 0.59060  0.30320  0.10400  Biso   1.000  C
  C24      1.0000 0.40940  0.69680  0.60400  Biso   1.000  C
  C25      1.0000 0.98800  0.26400  0.68650  Biso   1.000  C
  C26      1.0000 0.01200  0.73600  0.18650  Biso   1.000  C
  C27      1.0000 0.51200  0.26400  0.18650  Biso   1.000  C
  C28      1.0000 0.48800  0.73600  0.68650  Biso   1.000  C
  H1       1.0000 0.04150  0.22440  0.66730  Biso   1.000  H
  H2       1.0000 0.95850  0.77560  0.16730  Biso   1.000  H
  H3       1.0000 0.45850  0.22440  0.16730  Biso   1.000  H
  H4       1.0000 0.54150  0.77560  0.66730  Biso   1.000  H
  H5       1.0000 0.95250  0.21930  0.72190  Biso   1.000  H
  H6       1.0000 0.04750  0.78070  0.22190  Biso   1.000  H
  H7       1.0000 0.54750  0.21930  0.22190  Biso   1.000  H
  H8       1.0000 0.45250  0.78070  0.72190  Biso   1.000  H
  H9       1.0000 0.00920  0.32800  0.71280  Biso   1.000  H
  H10      1.0000 0.99080  0.67200  0.21280  Biso   1.000  H
  H11      1.0000 0.49080  0.32800  0.21280  Biso   1.000  H
  H12      1.0000 0.50920  0.67200  0.71280  Biso   1.000  H
  C29      1.0000 0.89700  0.21070  0.55910  Biso   1.000  C
  C30      1.0000 0.10300  0.78930  0.05910  Biso   1.000  C
  C31      1.0000 0.60300  0.21070  0.05910  Biso   1.000  C
  C32      1.0000 0.39700  0.78930  0.55910  Biso   1.000  C
  H13      1.0000 0.83080  0.20240  0.54670  Biso   1.000  H
  H14      1.0000 0.16920  0.79760  0.04670  Biso   1.000  H
  H15      1.0000 0.66920  0.20240  0.04670  Biso   1.000  H
  H16      1.0000 0.33080  0.79760  0.54670  Biso   1.000  H
  H17      1.0000 0.91860  0.14850  0.58740  Biso   1.000  H
  H18      1.0000 0.08140  0.85150  0.08740  Biso   1.000  H
  H19      1.0000 0.58140  0.14850  0.08740  Biso   1.000  H
  H20      1.0000 0.41860  0.85150  0.58740  Biso   1.000  H
  H21      1.0000 0.93320  0.21740  0.51210  Biso   1.000  H
  H22      1.0000 0.06680  0.78260  0.01210  Biso   1.000  H
  H23      1.0000 0.56680  0.21740  0.01210  Biso   1.000  H
  H24      1.0000 0.43320  0.78260  0.51210  Biso   1.000  H
  C33      1.0000 0.96850  0.39670  0.59740  Biso   1.000  C
  C34      1.0000 0.03150  0.60330  0.09740  Biso   1.000  C
  C35      1.0000 0.53150  0.39670  0.09740  Biso   1.000  C
  C36      1.0000 0.46850  0.60330  0.59740  Biso   1.000  C
  C37      1.0000 0.07120  0.40070  0.58130  Biso   1.000  C
  C38      1.0000 0.92880  0.59930  0.08130  Biso   1.000  C
  C39      1.0000 0.42880  0.40070  0.08130  Biso   1.000  C
  C40      1.0000 0.57120  0.59930  0.58130  Biso   1.000  C
  H25      1.0000 0.10550  0.37130  0.62450  Biso   1.000  H
  H26      1.0000 0.89450  0.62870  0.12450  Biso   1.000  H
  H27      1.0000 0.39450  0.37130  0.12450  Biso   1.000  H
  H28      1.0000 0.60550  0.62870  0.62450  Biso   1.000  H
  H29      1.0000 0.09030  0.47450  0.57300  Biso   1.000  H
  H30      1.0000 0.90970  0.52550  0.07300  Biso   1.000  H
  H31      1.0000 0.40970  0.47450  0.07300  Biso   1.000  H
  H32      1.0000 0.59030  0.52550  0.57300  Biso   1.000  H
  H33      1.0000 0.08490  0.35880  0.53570  Biso   1.000  H
  H34      1.0000 0.91510  0.64120  0.03570  Biso   1.000  H
  H35      1.0000 0.41510  0.35880  0.03570  Biso   1.000  H
  H36      1.0000 0.58490  0.64120  0.53570  Biso   1.000  H
  C41      1.0000 0.91180  0.43400  0.50910  Biso   1.000  C
  C42      1.0000 0.08820  0.56600  0.00910  Biso   1.000  C
  C43      1.0000 0.58820  0.43400  0.00910  Biso   1.000  C
  C44      1.0000 0.41180  0.56600  0.50910  Biso   1.000  C
  H37      1.0000 0.94680  0.40490  0.46620  Biso   1.000  H
  H38      1.0000 0.05320  0.59510  0.96620  Biso   1.000  H
  H39      1.0000 0.55320  0.40490  0.96620  Biso   1.000  H
  H40      1.0000 0.44680  0.59510  0.46620  Biso   1.000  H
  H41      1.0000 0.91020  0.51190  0.50510  Biso   1.000  H
  H42      1.0000 0.08980  0.48810  0.00510  Biso   1.000  H
  H43      1.0000 0.58980  0.51190  0.00510  Biso   1.000  H
  H44      1.0000 0.41020  0.48810  0.50510  Biso   1.000  H
  H45      1.0000 0.84800  0.40650  0.50850  Biso   1.000  H
  H46      1.0000 0.15200  0.59350  0.00850  Biso   1.000  H
  H47      1.0000 0.65200  0.40650  0.00850  Biso   1.000  H
  H48      1.0000 0.34800  0.59350  0.50850  Biso   1.000  H
  N9       1.0000 0.92990  0.48300  0.65250  Biso   1.000  N
  N10      1.0000 0.07010  0.51700  0.15250  Biso   1.000  N
  N11      1.0000 0.57010  0.48300  0.15250  Biso   1.000  N
  N12      1.0000 0.42990  0.51700  0.65250  Biso   1.000  N
  O9       1.0000 0.03900  0.64190  0.57470  Biso   1.000  O
  O10      1.0000 0.96100  0.35810  0.07470  Biso   1.000  O
  O11      1.0000 0.46100  0.64190  0.07470  Biso   1.000  O
  O12      1.0000 0.53900  0.35810  0.57470  Biso   1.000  O
  C45      1.0000 0.06030  0.72570  0.53640  Biso   1.000  C
  C46      1.0000 0.93970  0.27430  0.03640  Biso   1.000  C
  C47      1.0000 0.43970  0.72570  0.03640  Biso   1.000  C
  C48      1.0000 0.56030  0.27430  0.53640  Biso   1.000  C
  C49      1.0000 0.07360  0.70180  0.44930  Biso   1.000  C
  C50      1.0000 0.92640  0.29820  0.94930  Biso   1.000  C
  C51      1.0000 0.42640  0.70180  0.94930  Biso   1.000  C
  C52      1.0000 0.57360  0.29820  0.44930  Biso   1.000  C
  F13      1.0000 0.00680  0.74480  0.40830  Biso   1.000  F
  F14      1.0000 0.99320  0.25520  0.90830  Biso   1.000  F
  F15      1.0000 0.49320  0.74480  0.90830  Biso   1.000  F
  F16      1.0000 0.50680  0.25520  0.40830  Biso   1.000  F
  F17      1.0000 0.08580  0.60600  0.43530  Biso   1.000  F
  F18      1.0000 0.91420  0.39400  0.93530  Biso   1.000  F
  F19      1.0000 0.41420  0.60600  0.93530  Biso   1.000  F
  F20      1.0000 0.58580  0.39400  0.43530  Biso   1.000  F
  F21      1.0000 0.15020  0.75020  0.42100  Biso   1.000  F
  F22      1.0000 0.84980  0.24980  0.92100  Biso   1.000  F
  F23      1.0000 0.34980  0.75020  0.92100  Biso   1.000  F
  F24      1.0000 0.65020  0.24980  0.42100  Biso   1.000  F
  C53      1.0000 0.06880  0.82970  0.56600  Biso   1.000  C
  C54      1.0000 0.93120  0.17030  0.06600  Biso   1.000  C
  C55      1.0000 0.43120  0.82970  0.06600  Biso   1.000  C
  C56      1.0000 0.56880  0.17030  0.56600  Biso   1.000  C
  C57      1.0000 0.08020  0.91780  0.51260  Biso   1.000  C
  C58      1.0000 0.91980  0.08220  0.01260  Biso   1.000  C
  C59      1.0000 0.41980  0.91780  0.01260  Biso   1.000  C
  C60      1.0000 0.58020  0.08220  0.51260  Biso   1.000  C
  N13      1.0000 0.08260  0.99100  0.47160  Biso   1.000  N
  N14      1.0000 0.91740  0.00900  0.97160  Biso   1.000  N
  N15      1.0000 0.41740  0.99100  0.97160  Biso   1.000  N
  N16      1.0000 0.58260  0.00900  0.47160  Biso   1.000  N
  C61      1.0000 0.06240  0.84820  0.64640  Biso   1.000  C
  C62      1.0000 0.93760  0.15180  0.14640  Biso   1.000  C
  C63      1.0000 0.43760  0.84820  0.14640  Biso   1.000  C
  C64      1.0000 0.56240  0.15180  0.64640  Biso   1.000  C
  N17      1.0000 0.09520  0.94420  0.68000  Biso   1.000  N
  N18      1.0000 0.90480  0.05580  0.18000  Biso   1.000  N
  N19      1.0000 0.40480  0.94420  0.18000  Biso   1.000  N
  N20      1.0000 0.59520  0.05580  0.68000  Biso   1.000  N
  O13      1.0000 0.13430  0.01970  0.64150  Biso   1.000  O
  O14      1.0000 0.86570  0.98030  0.14150  Biso   1.000  O
  O15      1.0000 0.36570  0.01970  0.14150  Biso   1.000  O
  O16      1.0000 0.63430  0.98030  0.64150  Biso   1.000  O
  C65      1.0000 0.09960  0.93690  0.76570  Biso   1.000  C
  C66      1.0000 0.90040  0.06310  0.26570  Biso   1.000  C
  C67      1.0000 0.40040  0.93690  0.26570  Biso   1.000  C
  C68      1.0000 0.59960  0.06310  0.76570  Biso   1.000  C
  C69      1.0000 0.19890  0.89830  0.78620  Biso   1.000  C
  C70      1.0000 0.80110  0.10170  0.28620  Biso   1.000  C
  C71      1.0000 0.30110  0.89830  0.28620  Biso   1.000  C
  C72      1.0000 0.69890  0.10170  0.78620  Biso   1.000  C
  H49      1.0000 0.24480  0.93660  0.75530  Biso   1.000  H
  H50      1.0000 0.75520  0.06340  0.25530  Biso   1.000  H
  H51      1.0000 0.25520  0.93660  0.25530  Biso   1.000  H
  H52      1.0000 0.74480  0.06340  0.75530  Biso   1.000  H
  H53      1.0000 0.20390  0.82210  0.77610  Biso   1.000  H
  H54      1.0000 0.79610  0.17790  0.27610  Biso   1.000  H
  H55      1.0000 0.29610  0.82210  0.27610  Biso   1.000  H
  H56      1.0000 0.70390  0.17790  0.77610  Biso   1.000  H
  H57      1.0000 0.21100  0.91190  0.84000  Biso   1.000  H
  H58      1.0000 0.78900  0.08810  0.34000  Biso   1.000  H
  H59      1.0000 0.28900  0.91190  0.34000  Biso   1.000  H
  H60      1.0000 0.71100  0.08810  0.84000  Biso   1.000  H
  C73      1.0000 0.07530  0.04390  0.80280  Biso   1.000  C
  C74      1.0000 0.92470  0.95610  0.30280  Biso   1.000  C
  C75      1.0000 0.42470  0.04390  0.30280  Biso   1.000  C
  C76      1.0000 0.57530  0.95610  0.80280  Biso   1.000  C
  H61      1.0000 0.12480  0.09540  0.79210  Biso   1.000  H
  H62      1.0000 0.87520  0.90460  0.29210  Biso   1.000  H
  H63      1.0000 0.37520  0.09540  0.29210  Biso   1.000  H
  H64      1.0000 0.62480  0.90460  0.79210  Biso   1.000  H
  H65      1.0000 0.06950  0.03450  0.85780  Biso   1.000  H
  H66      1.0000 0.93050  0.96550  0.35780  Biso   1.000  H
  H67      1.0000 0.43050  0.03450  0.35780  Biso   1.000  H
  H68      1.0000 0.56950  0.96550  0.85780  Biso   1.000  H
  H69      1.0000 0.01610  0.07010  0.78220  Biso   1.000  H
  H70      1.0000 0.98390  0.92990  0.28220  Biso   1.000  H
  H71      1.0000 0.48390  0.07010  0.28220  Biso   1.000  H
  H72      1.0000 0.51610  0.92990  0.78220  Biso   1.000  H
  C77      1.0000 0.02200  0.84540  0.77540  Biso   1.000  C
  C78      1.0000 0.97800  0.15460  0.27540  Biso   1.000  C
  C79      1.0000 0.47800  0.84540  0.27540  Biso   1.000  C
  C80      1.0000 0.52200  0.15460  0.77540  Biso   1.000  C
  C81      1.0000 0.04180  0.77870  0.84570  Biso   1.000  C
  C82      1.0000 0.95820  0.22130  0.34570  Biso   1.000  C
  C83      1.0000 0.45820  0.77870  0.34570  Biso   1.000  C
  C84      1.0000 0.54180  0.22130  0.84570  Biso   1.000  C
  H73      1.0000 0.98610  0.73760  0.85890  Biso   1.000  H
  H74      1.0000 0.01390  0.26240  0.35890  Biso   1.000  H
  H75      1.0000 0.51390  0.73760  0.35890  Biso   1.000  H
  H76      1.0000 0.48610  0.26240  0.85890  Biso   1.000  H
  H77      1.0000 0.05820  0.82540  0.88810  Biso   1.000  H
  H78      1.0000 0.94180  0.17460  0.38810  Biso   1.000  H
  H79      1.0000 0.44180  0.82540  0.38810  Biso   1.000  H
  H80      1.0000 0.55820  0.17460  0.88810  Biso   1.000  H
  H81      1.0000 0.09370  0.73030  0.83530  Biso   1.000  H
  H82      1.0000 0.90630  0.26970  0.33530  Biso   1.000  H
  H83      1.0000 0.40630  0.73030  0.33530  Biso   1.000  H
  H84      1.0000 0.59370  0.26970  0.83530  Biso   1.000  H
  C85      1.0000 0.92160  0.89340  0.77730  Biso   1.000  C
  C86      1.0000 0.07840  0.10660  0.27730  Biso   1.000  C
  C87      1.0000 0.57840  0.89340  0.27730  Biso   1.000  C
  C88      1.0000 0.42160  0.10660  0.77730  Biso   1.000  C
  H85      1.0000 0.87570  0.83640  0.77110  Biso   1.000  H
  H86      1.0000 0.12430  0.16360  0.27110  Biso   1.000  H
  H87      1.0000 0.62430  0.83640  0.27110  Biso   1.000  H
  H88      1.0000 0.37570  0.16360  0.77110  Biso   1.000  H
  H89      1.0000 0.91470  0.94490  0.73600  Biso   1.000  H
  H90      1.0000 0.08530  0.05510  0.23600  Biso   1.000  H
  H91      1.0000 0.58530  0.94490  0.23600  Biso   1.000  H
  H92      1.0000 0.41470  0.05510  0.73600  Biso   1.000  H
  H93      1.0000 0.91140  0.92900  0.82610  Biso   1.000  H
  H94      1.0000 0.08860  0.07100  0.32610  Biso   1.000  H
  H95      1.0000 0.58860  0.92900  0.32610  Biso   1.000  H
  H96      1.0000 0.41140  0.07100  0.82610  Biso   1.000  H
  N21      1.0000 0.03010  0.78400  0.69960  Biso   1.000  N
  N22      1.0000 0.96990  0.21600  0.19960  Biso   1.000  N
  N23      1.0000 0.46990  0.78400  0.19960  Biso   1.000  N
  N24      1.0000 0.53010  0.21600  0.69960  Biso   1.000  N
  N25      1.0000 0.82640  0.72160  0.60400  Biso   1.000  N
  N26      1.0000 0.17360  0.27840  0.10400  Biso   1.000  N
  N27      1.0000 0.67360  0.72160  0.10400  Biso   1.000  N
  N28      1.0000 0.32640  0.27840  0.60400  Biso   1.000  N
  C89      1.0000 0.80930  0.78800  0.56660  Biso   1.000  C
  C90      1.0000 0.19070  0.21200  0.06660  Biso   1.000  C
  C91      1.0000 0.69070  0.78800  0.06660  Biso   1.000  C
  C92      1.0000 0.30930  0.21200  0.56660  Biso   1.000  C
  C93      1.0000 0.78960  0.87820  0.51760  Biso   1.000  C
  C94      1.0000 0.21040  0.12180  0.01760  Biso   1.000  C
  C95      1.0000 0.71040  0.87820  0.01760  Biso   1.000  C
  C96      1.0000 0.28960  0.12180  0.51760  Biso   1.000  C
  H97      1.0000 0.80320  0.94420  0.54490  Biso   1.000  H
  H98      1.0000 0.19680  0.05580  0.04490  Biso   1.000  H
  H99      1.0000 0.69680  0.94420  0.04490  Biso   1.000  H
  H100     1.0000 0.30320  0.05580  0.54490  Biso   1.000  H
  H101     1.0000 0.72370  0.87720  0.50280  Biso   1.000  H
  H102     1.0000 0.27630  0.12280  0.00280  Biso   1.000  H
  H103     1.0000 0.77630  0.87720  0.00280  Biso   1.000  H
  H104     1.0000 0.22370  0.12280  0.50280  Biso   1.000  H
  H105     1.0000 0.82880  0.87410  0.47210  Biso   1.000  H
  H106     1.0000 0.17120  0.12590  0.97210  Biso   1.000  H
  H107     1.0000 0.67120  0.87410  0.97210  Biso   1.000  H
  H108     1.0000 0.32880  0.12590  0.47210  Biso   1.000  H
