data_image0
_cell_length_a       22.8992
_cell_length_b       24.819
_cell_length_c       9.0518
_cell_angle_alpha    90
_cell_angle_beta     94.305
_cell_angle_gamma    90

_symmetry_space_group_name_H-M    "P 1"
_symmetry_int_tables_number       1

loop_
  _symmetry_equiv_pos_as_xyz
  'x, y, z'

loop_
  _atom_site_label
  _atom_site_occupancy
  _atom_site_fract_x
  _atom_site_fract_y
  _atom_site_fract_z
  _atom_site_thermal_displace_type
  _atom_site_B_iso_or_equiv
  _atom_site_type_symbol
  Cu1      1.0000 0.23987  0.07253  0.87316  Biso   1.000  Cu
  Cu2      1.0000 0.73987  0.57253  0.87316  Biso   1.000  Cu
  Cu3      1.0000 0.76013  0.07253  0.62684  Biso   1.000  Cu
  Cu4      1.0000 0.26013  0.57253  0.62684  Biso   1.000  Cu
  Cu5      1.0000 0.76013  0.92747  0.12684  Biso   1.000  Cu
  Cu6      1.0000 0.26013  0.42747  0.12684  Biso   1.000  Cu
  Cu7      1.0000 0.23987  0.92747  0.37316  Biso   1.000  Cu
  Cu8      1.0000 0.73987  0.42747  0.37316  Biso   1.000  Cu
  O1       1.0000 0.23618  0.01627  0.02310  Biso   1.000  O
  O2       1.0000 0.73618  0.51627  0.02310  Biso   1.000  O
  O3       1.0000 0.76382  0.01627  0.47690  Biso   1.000  O
  O4       1.0000 0.26382  0.51627  0.47690  Biso   1.000  O
  O5       1.0000 0.76382  0.98373  0.97690  Biso   1.000  O
  O6       1.0000 0.26382  0.48373  0.97690  Biso   1.000  O
  O7       1.0000 0.23618  0.98373  0.52310  Biso   1.000  O
  O8       1.0000 0.73618  0.48373  0.52310  Biso   1.000  O
  O9       1.0000 0.28469  0.98024  0.21970  Biso   1.000  O
  O10      1.0000 0.78469  0.48024  0.21970  Biso   1.000  O
  O11      1.0000 0.71531  0.98024  0.28030  Biso   1.000  O
  O12      1.0000 0.21531  0.48024  0.28030  Biso   1.000  O
  O13      1.0000 0.71531  0.01976  0.78030  Biso   1.000  O
  O14      1.0000 0.21531  0.51976  0.78030  Biso   1.000  O
  O15      1.0000 0.28469  0.01976  0.71970  Biso   1.000  O
  O16      1.0000 0.78469  0.51976  0.71970  Biso   1.000  O
  O17      1.0000 0.00000  0.07680  0.25000  Biso   1.000  O
  O18      1.0000 0.50000  0.57680  0.25000  Biso   1.000  O
  O19      1.0000 0.00000  0.92320  0.75000  Biso   1.000  O
  O20      1.0000 0.50000  0.42320  0.75000  Biso   1.000  O
  O21      1.0000 0.98940  0.14930  0.13630  Biso   1.000  O
  O22      1.0000 0.48940  0.64930  0.13630  Biso   1.000  O
  O23      1.0000 0.01060  0.14930  0.36370  Biso   1.000  O
  O24      1.0000 0.51060  0.64930  0.36370  Biso   1.000  O
  O25      1.0000 0.01060  0.85070  0.86370  Biso   1.000  O
  O26      1.0000 0.51060  0.35070  0.86370  Biso   1.000  O
  O27      1.0000 0.98940  0.85070  0.63630  Biso   1.000  O
  O28      1.0000 0.48940  0.35070  0.63630  Biso   1.000  O
  O29      1.0000 0.42970  0.03120  0.85800  Biso   1.000  O
  O30      1.0000 0.92970  0.53120  0.85800  Biso   1.000  O
  O31      1.0000 0.57030  0.03120  0.64200  Biso   1.000  O
  O32      1.0000 0.07030  0.53120  0.64200  Biso   1.000  O
  O33      1.0000 0.57030  0.96880  0.14200  Biso   1.000  O
  O34      1.0000 0.07030  0.46880  0.14200  Biso   1.000  O
  O35      1.0000 0.42970  0.96880  0.35800  Biso   1.000  O
  O36      1.0000 0.92970  0.46880  0.35800  Biso   1.000  O
  O37      1.0000 0.39400  0.18830  0.98400  Biso   1.000  O
  O38      1.0000 0.89400  0.68830  0.98400  Biso   1.000  O
  O39      1.0000 0.60600  0.18830  0.51600  Biso   1.000  O
  O40      1.0000 0.10600  0.68830  0.51600  Biso   1.000  O
  O41      1.0000 0.60600  0.81170  0.01600  Biso   1.000  O
  O42      1.0000 0.10600  0.31170  0.01600  Biso   1.000  O
  O43      1.0000 0.39400  0.81170  0.48400  Biso   1.000  O
  O44      1.0000 0.89400  0.31170  0.48400  Biso   1.000  O
  N1       1.0000 0.32064  0.08388  0.97010  Biso   1.000  N
  N2       1.0000 0.82064  0.58388  0.97010  Biso   1.000  N
  N3       1.0000 0.67936  0.08388  0.52990  Biso   1.000  N
  N4       1.0000 0.17936  0.58388  0.52990  Biso   1.000  N
  N5       1.0000 0.67936  0.91612  0.02990  Biso   1.000  N
  N6       1.0000 0.17936  0.41612  0.02990  Biso   1.000  N
  N7       1.0000 0.32064  0.91612  0.47010  Biso   1.000  N
  N8       1.0000 0.82064  0.41612  0.47010  Biso   1.000  N
  H1       1.0000 0.34790  0.06920  0.91230  Biso   1.000  H
  H2       1.0000 0.84790  0.56920  0.91230  Biso   1.000  H
  H3       1.0000 0.65210  0.06920  0.58770  Biso   1.000  H
  H4       1.0000 0.15210  0.56920  0.58770  Biso   1.000  H
  H5       1.0000 0.65210  0.93080  0.08770  Biso   1.000  H
  H6       1.0000 0.15210  0.43080  0.08770  Biso   1.000  H
  H7       1.0000 0.34790  0.93080  0.41230  Biso   1.000  H
  H8       1.0000 0.84790  0.43080  0.41230  Biso   1.000  H
  H9       1.0000 0.32810  0.12020  0.97970  Biso   1.000  H
  H10      1.0000 0.82810  0.62020  0.97970  Biso   1.000  H
  H11      1.0000 0.67190  0.12020  0.52030  Biso   1.000  H
  H12      1.0000 0.17190  0.62020  0.52030  Biso   1.000  H
  H13      1.0000 0.67190  0.87980  0.02030  Biso   1.000  H
  H14      1.0000 0.17190  0.37980  0.02030  Biso   1.000  H
  H15      1.0000 0.32810  0.87980  0.47970  Biso   1.000  H
  H16      1.0000 0.82810  0.37980  0.47970  Biso   1.000  H
  N9       1.0000 0.24238  0.13765  0.74010  Biso   1.000  N
  N10      1.0000 0.74238  0.63765  0.74010  Biso   1.000  N
  N11      1.0000 0.75762  0.13765  0.75990  Biso   1.000  N
  N12      1.0000 0.25762  0.63765  0.75990  Biso   1.000  N
  N13      1.0000 0.75762  0.86235  0.25990  Biso   1.000  N
  N14      1.0000 0.25762  0.36235  0.25990  Biso   1.000  N
  N15      1.0000 0.24238  0.86235  0.24010  Biso   1.000  N
  N16      1.0000 0.74238  0.36235  0.24010  Biso   1.000  N
  N17      1.0000 0.15371  0.06195  0.82360  Biso   1.000  N
  N18      1.0000 0.65371  0.56195  0.82360  Biso   1.000  N
  N19      1.0000 0.84629  0.06195  0.67640  Biso   1.000  N
  N20      1.0000 0.34629  0.56195  0.67640  Biso   1.000  N
  N21      1.0000 0.84629  0.93805  0.17640  Biso   1.000  N
  N22      1.0000 0.34629  0.43805  0.17640  Biso   1.000  N
  N23      1.0000 0.15371  0.93805  0.32360  Biso   1.000  N
  N24      1.0000 0.65371  0.43805  0.32360  Biso   1.000  N
  N25      1.0000 0.00000  0.12380  0.25000  Biso   1.000  N
  N26      1.0000 0.50000  0.62380  0.25000  Biso   1.000  N
  N27      1.0000 0.00000  0.87620  0.75000  Biso   1.000  N
  N28      1.0000 0.50000  0.37620  0.75000  Biso   1.000  N
  C1       1.0000 0.27900  0.01426  0.12080  Biso   1.000  C
  C2       1.0000 0.77900  0.51426  0.12080  Biso   1.000  C
  C3       1.0000 0.72100  0.01426  0.37920  Biso   1.000  C
  C4       1.0000 0.22100  0.51426  0.37920  Biso   1.000  C
  C5       1.0000 0.72100  0.98574  0.87920  Biso   1.000  C
  C6       1.0000 0.22100  0.48574  0.87920  Biso   1.000  C
  C7       1.0000 0.27900  0.98574  0.62080  Biso   1.000  C
  C8       1.0000 0.77900  0.48574  0.62080  Biso   1.000  C
  C9       1.0000 0.32510  0.05804  0.11800  Biso   1.000  C
  C10      1.0000 0.82510  0.55804  0.11800  Biso   1.000  C
  C11      1.0000 0.67490  0.05804  0.38200  Biso   1.000  C
  C12      1.0000 0.17490  0.55804  0.38200  Biso   1.000  C
  C13      1.0000 0.67490  0.94196  0.88200  Biso   1.000  C
  C14      1.0000 0.17490  0.44196  0.88200  Biso   1.000  C
  C15      1.0000 0.32510  0.94196  0.61800  Biso   1.000  C
  C16      1.0000 0.82510  0.44196  0.61800  Biso   1.000  C
  H17      1.0000 0.36480  0.04150  0.13620  Biso   1.000  H
  H18      1.0000 0.86480  0.54150  0.13620  Biso   1.000  H
  H19      1.0000 0.63520  0.04150  0.36380  Biso   1.000  H
  H20      1.0000 0.13520  0.54150  0.36380  Biso   1.000  H
  H21      1.0000 0.63520  0.95850  0.86380  Biso   1.000  H
  H22      1.0000 0.13520  0.45850  0.86380  Biso   1.000  H
  H23      1.0000 0.36480  0.95850  0.63620  Biso   1.000  H
  H24      1.0000 0.86480  0.45850  0.63620  Biso   1.000  H
  C17      1.0000 0.31560  0.09910  0.24230  Biso   1.000  C
  C18      1.0000 0.81560  0.59910  0.24230  Biso   1.000  C
  C19      1.0000 0.68440  0.09910  0.25770  Biso   1.000  C
  C20      1.0000 0.18440  0.59910  0.25770  Biso   1.000  C
  C21      1.0000 0.68440  0.90090  0.75770  Biso   1.000  C
  C22      1.0000 0.18440  0.40090  0.75770  Biso   1.000  C
  C23      1.0000 0.31560  0.90090  0.74230  Biso   1.000  C
  C24      1.0000 0.81560  0.40090  0.74230  Biso   1.000  C
  H25      1.0000 0.32130  0.08040  0.33900  Biso   1.000  H
  H26      1.0000 0.82130  0.58040  0.33900  Biso   1.000  H
  H27      1.0000 0.67870  0.08040  0.16100  Biso   1.000  H
  H28      1.0000 0.17870  0.58040  0.16100  Biso   1.000  H
  H29      1.0000 0.67870  0.91960  0.66100  Biso   1.000  H
  H30      1.0000 0.17870  0.41960  0.66100  Biso   1.000  H
  H31      1.0000 0.32130  0.91960  0.83900  Biso   1.000  H
  H32      1.0000 0.82130  0.41960  0.83900  Biso   1.000  H
  H33      1.0000 0.34580  0.12750  0.24030  Biso   1.000  H
  H34      1.0000 0.84580  0.62750  0.24030  Biso   1.000  H
  H35      1.0000 0.65420  0.12750  0.25970  Biso   1.000  H
  H36      1.0000 0.15420  0.62750  0.25970  Biso   1.000  H
  H37      1.0000 0.65420  0.87250  0.75970  Biso   1.000  H
  H38      1.0000 0.15420  0.37250  0.75970  Biso   1.000  H
  H39      1.0000 0.34580  0.87250  0.74030  Biso   1.000  H
  H40      1.0000 0.84580  0.37250  0.74030  Biso   1.000  H
  C25      1.0000 0.25620  0.12540  0.23170  Biso   1.000  C
  C26      1.0000 0.75620  0.62540  0.23170  Biso   1.000  C
  C27      1.0000 0.74380  0.12540  0.26830  Biso   1.000  C
  C28      1.0000 0.24380  0.62540  0.26830  Biso   1.000  C
  C29      1.0000 0.74380  0.87460  0.76830  Biso   1.000  C
  C30      1.0000 0.24380  0.37460  0.76830  Biso   1.000  C
  C31      1.0000 0.25620  0.87460  0.73170  Biso   1.000  C
  C32      1.0000 0.75620  0.37460  0.73170  Biso   1.000  C
  C33      1.0000 0.24560  0.17170  0.14790  Biso   1.000  C
  C34      1.0000 0.74560  0.67170  0.14790  Biso   1.000  C
  C35      1.0000 0.75440  0.17170  0.35210  Biso   1.000  C
  C36      1.0000 0.25440  0.67170  0.35210  Biso   1.000  C
  C37      1.0000 0.75440  0.82830  0.85210  Biso   1.000  C
  C38      1.0000 0.25440  0.32830  0.85210  Biso   1.000  C
  C39      1.0000 0.24560  0.82830  0.64790  Biso   1.000  C
  C40      1.0000 0.74560  0.32830  0.64790  Biso   1.000  C
  H41      1.0000 0.27560  0.18670  0.09370  Biso   1.000  H
  H42      1.0000 0.77560  0.68670  0.09370  Biso   1.000  H
  H43      1.0000 0.72440  0.18670  0.40630  Biso   1.000  H
  H44      1.0000 0.22440  0.68670  0.40630  Biso   1.000  H
  H45      1.0000 0.72440  0.81330  0.90630  Biso   1.000  H
  H46      1.0000 0.22440  0.31330  0.90630  Biso   1.000  H
  H47      1.0000 0.27560  0.81330  0.59370  Biso   1.000  H
  H48      1.0000 0.77560  0.31330  0.59370  Biso   1.000  H
  C41      1.0000 0.19070  0.19610  0.14350  Biso   1.000  C
  C42      1.0000 0.69070  0.69610  0.14350  Biso   1.000  C
  C43      1.0000 0.80930  0.19610  0.35650  Biso   1.000  C
  C44      1.0000 0.30930  0.69610  0.35650  Biso   1.000  C
  C45      1.0000 0.80930  0.80390  0.85650  Biso   1.000  C
  C46      1.0000 0.30930  0.30390  0.85650  Biso   1.000  C
  C47      1.0000 0.19070  0.80390  0.64350  Biso   1.000  C
  C48      1.0000 0.69070  0.30390  0.64350  Biso   1.000  C
  H49      1.0000 0.18320  0.22760  0.08560  Biso   1.000  H
  H50      1.0000 0.68320  0.72760  0.08560  Biso   1.000  H
  H51      1.0000 0.81680  0.22760  0.41440  Biso   1.000  H
  H52      1.0000 0.31680  0.72760  0.41440  Biso   1.000  H
  H53      1.0000 0.81680  0.77240  0.91440  Biso   1.000  H
  H54      1.0000 0.31680  0.27240  0.91440  Biso   1.000  H
  H55      1.0000 0.18320  0.77240  0.58560  Biso   1.000  H
  H56      1.0000 0.68320  0.27240  0.58560  Biso   1.000  H
  C49      1.0000 0.14810  0.17510  0.22090  Biso   1.000  C
  C50      1.0000 0.64810  0.67510  0.22090  Biso   1.000  C
  C51      1.0000 0.85190  0.17510  0.27910  Biso   1.000  C
  C52      1.0000 0.35190  0.67510  0.27910  Biso   1.000  C
  C53      1.0000 0.85190  0.82490  0.77910  Biso   1.000  C
  C54      1.0000 0.35190  0.32490  0.77910  Biso   1.000  C
  C55      1.0000 0.14810  0.82490  0.72090  Biso   1.000  C
  C56      1.0000 0.64810  0.32490  0.72090  Biso   1.000  C
  H57      1.0000 0.11100  0.19230  0.21850  Biso   1.000  H
  H58      1.0000 0.61100  0.69230  0.21850  Biso   1.000  H
  H59      1.0000 0.88900  0.19230  0.28150  Biso   1.000  H
  H60      1.0000 0.38900  0.69230  0.28150  Biso   1.000  H
  H61      1.0000 0.88900  0.80770  0.78150  Biso   1.000  H
  H62      1.0000 0.38900  0.30770  0.78150  Biso   1.000  H
  H63      1.0000 0.11100  0.80770  0.71850  Biso   1.000  H
  H64      1.0000 0.61100  0.30770  0.71850  Biso   1.000  H
  C57      1.0000 0.15780  0.12960  0.30260  Biso   1.000  C
  C58      1.0000 0.65780  0.62960  0.30260  Biso   1.000  C
  C59      1.0000 0.84220  0.12960  0.19740  Biso   1.000  C
  C60      1.0000 0.34220  0.62960  0.19740  Biso   1.000  C
  C61      1.0000 0.84220  0.87040  0.69740  Biso   1.000  C
  C62      1.0000 0.34220  0.37040  0.69740  Biso   1.000  C
  C63      1.0000 0.15780  0.87040  0.80260  Biso   1.000  C
  C64      1.0000 0.65780  0.37040  0.80260  Biso   1.000  C
  H65      1.0000 0.12730  0.11530  0.35660  Biso   1.000  H
  H66      1.0000 0.62730  0.61530  0.35660  Biso   1.000  H
  H67      1.0000 0.87270  0.11530  0.14340  Biso   1.000  H
  H68      1.0000 0.37270  0.61530  0.14340  Biso   1.000  H
  H69      1.0000 0.87270  0.88470  0.64340  Biso   1.000  H
  H70      1.0000 0.37270  0.38470  0.64340  Biso   1.000  H
  H71      1.0000 0.12730  0.88470  0.85660  Biso   1.000  H
  H72      1.0000 0.62730  0.38470  0.85660  Biso   1.000  H
  C65      1.0000 0.21080  0.10440  0.30750  Biso   1.000  C
  C66      1.0000 0.71080  0.60440  0.30750  Biso   1.000  C
  C67      1.0000 0.78920  0.10440  0.19250  Biso   1.000  C
  C68      1.0000 0.28920  0.60440  0.19250  Biso   1.000  C
  C69      1.0000 0.78920  0.89560  0.69250  Biso   1.000  C
  C70      1.0000 0.28920  0.39560  0.69250  Biso   1.000  C
  C71      1.0000 0.21080  0.89560  0.80750  Biso   1.000  C
  C72      1.0000 0.71080  0.39560  0.80750  Biso   1.000  C
  H73      1.0000 0.21670  0.07210  0.36310  Biso   1.000  H
  H74      1.0000 0.71670  0.57210  0.36310  Biso   1.000  H
  H75      1.0000 0.78330  0.07210  0.13690  Biso   1.000  H
  H76      1.0000 0.28330  0.57210  0.13690  Biso   1.000  H
  H77      1.0000 0.78330  0.92790  0.63690  Biso   1.000  H
  H78      1.0000 0.28330  0.42790  0.63690  Biso   1.000  H
  H79      1.0000 0.21670  0.92790  0.86310  Biso   1.000  H
  H80      1.0000 0.71670  0.42790  0.86310  Biso   1.000  H
  C73      1.0000 0.19910  0.17404  0.72440  Biso   1.000  C
  C74      1.0000 0.69910  0.67404  0.72440  Biso   1.000  C
  C75      1.0000 0.80090  0.17404  0.77560  Biso   1.000  C
  C76      1.0000 0.30090  0.67404  0.77560  Biso   1.000  C
  C77      1.0000 0.80090  0.82596  0.27560  Biso   1.000  C
  C78      1.0000 0.30090  0.32596  0.27560  Biso   1.000  C
  C79      1.0000 0.19910  0.82596  0.22440  Biso   1.000  C
  C80      1.0000 0.69910  0.32596  0.22440  Biso   1.000  C
  H81      1.0000 0.16590  0.16940  0.78000  Biso   1.000  H
  H82      1.0000 0.66590  0.66940  0.78000  Biso   1.000  H
  H83      1.0000 0.83410  0.16940  0.72000  Biso   1.000  H
  H84      1.0000 0.33410  0.66940  0.72000  Biso   1.000  H
  H85      1.0000 0.83410  0.83060  0.22000  Biso   1.000  H
  H86      1.0000 0.33410  0.33060  0.22000  Biso   1.000  H
  H87      1.0000 0.16590  0.83060  0.28000  Biso   1.000  H
  H88      1.0000 0.66590  0.33060  0.28000  Biso   1.000  H
  C81      1.0000 0.20050  0.21797  0.63130  Biso   1.000  C
  C82      1.0000 0.70050  0.71797  0.63130  Biso   1.000  C
  C83      1.0000 0.79950  0.21797  0.86870  Biso   1.000  C
  C84      1.0000 0.29950  0.71797  0.86870  Biso   1.000  C
  C85      1.0000 0.79950  0.78203  0.36870  Biso   1.000  C
  C86      1.0000 0.29950  0.28203  0.36870  Biso   1.000  C
  C87      1.0000 0.20050  0.78203  0.13130  Biso   1.000  C
  C88      1.0000 0.70050  0.28203  0.13130  Biso   1.000  C
  H89      1.0000 0.16850  0.24240  0.62290  Biso   1.000  H
  H90      1.0000 0.66850  0.74240  0.62290  Biso   1.000  H
  H91      1.0000 0.83150  0.24240  0.87710  Biso   1.000  H
  H92      1.0000 0.33150  0.74240  0.87710  Biso   1.000  H
  H93      1.0000 0.83150  0.75760  0.37710  Biso   1.000  H
  H94      1.0000 0.33150  0.25760  0.37710  Biso   1.000  H
  H95      1.0000 0.16850  0.75760  0.12290  Biso   1.000  H
  H96      1.0000 0.66850  0.25760  0.12290  Biso   1.000  H
  C89      1.0000 0.28860  0.14583  0.66120  Biso   1.000  C
  C90      1.0000 0.78860  0.64583  0.66120  Biso   1.000  C
  C91      1.0000 0.71140  0.14583  0.83880  Biso   1.000  C
  C92      1.0000 0.21140  0.64583  0.83880  Biso   1.000  C
  C93      1.0000 0.71140  0.85417  0.33880  Biso   1.000  C
  C94      1.0000 0.21140  0.35417  0.33880  Biso   1.000  C
  C95      1.0000 0.28860  0.85417  0.16120  Biso   1.000  C
  C96      1.0000 0.78860  0.35417  0.16120  Biso   1.000  C
  H97      1.0000 0.32000  0.12070  0.67080  Biso   1.000  H
  H98      1.0000 0.82000  0.62070  0.67080  Biso   1.000  H
  H99      1.0000 0.68000  0.12070  0.82920  Biso   1.000  H
  H100     1.0000 0.18000  0.62070  0.82920  Biso   1.000  H
  H101     1.0000 0.68000  0.87930  0.32920  Biso   1.000  H
  H102     1.0000 0.18000  0.37930  0.32920  Biso   1.000  H
  H103     1.0000 0.32000  0.87930  0.17080  Biso   1.000  H
  H104     1.0000 0.82000  0.37930  0.17080  Biso   1.000  H
  C97      1.0000 0.29290  0.18883  0.56690  Biso   1.000  C
  C98      1.0000 0.79290  0.68883  0.56690  Biso   1.000  C
  C99      1.0000 0.70710  0.18883  0.93310  Biso   1.000  C
  C100     1.0000 0.20710  0.68883  0.93310  Biso   1.000  C
  C101     1.0000 0.70710  0.81117  0.43310  Biso   1.000  C
  C102     1.0000 0.20710  0.31117  0.43310  Biso   1.000  C
  C103     1.0000 0.29290  0.81117  0.06690  Biso   1.000  C
  C104     1.0000 0.79290  0.31117  0.06690  Biso   1.000  C
  H105     1.0000 0.32660  0.19280  0.51270  Biso   1.000  H
  H106     1.0000 0.82660  0.69280  0.51270  Biso   1.000  H
  H107     1.0000 0.67340  0.19280  0.98730  Biso   1.000  H
  H108     1.0000 0.17340  0.69280  0.98730  Biso   1.000  H
  H109     1.0000 0.67340  0.80720  0.48730  Biso   1.000  H
  H110     1.0000 0.17340  0.30720  0.48730  Biso   1.000  H
  H111     1.0000 0.32660  0.80720  0.01270  Biso   1.000  H
  H112     1.0000 0.82660  0.30720  0.01270  Biso   1.000  H
  C105     1.0000 0.24808  0.22643  0.55100  Biso   1.000  C
  C106     1.0000 0.74808  0.72643  0.55100  Biso   1.000  C
  C107     1.0000 0.75192  0.22643  0.94900  Biso   1.000  C
  C108     1.0000 0.25192  0.72643  0.94900  Biso   1.000  C
  C109     1.0000 0.75192  0.77357  0.44900  Biso   1.000  C
  C110     1.0000 0.25192  0.27357  0.44900  Biso   1.000  C
  C111     1.0000 0.24808  0.77357  0.05100  Biso   1.000  C
  C112     1.0000 0.74808  0.27357  0.05100  Biso   1.000  C
  C113     1.0000 0.11730  0.06800  0.93160  Biso   1.000  C
  C114     1.0000 0.61730  0.56800  0.93160  Biso   1.000  C
  C115     1.0000 0.88270  0.06800  0.56840  Biso   1.000  C
  C116     1.0000 0.38270  0.56800  0.56840  Biso   1.000  C
  C117     1.0000 0.88270  0.93200  0.06840  Biso   1.000  C
  C118     1.0000 0.38270  0.43200  0.06840  Biso   1.000  C
  C119     1.0000 0.11730  0.93200  0.43160  Biso   1.000  C
  C120     1.0000 0.61730  0.43200  0.43160  Biso   1.000  C
  H113     1.0000 0.13370  0.07430  0.02960  Biso   1.000  H
  H114     1.0000 0.63370  0.57430  0.02960  Biso   1.000  H
  H115     1.0000 0.86630  0.07430  0.47040  Biso   1.000  H
  H116     1.0000 0.36630  0.57430  0.47040  Biso   1.000  H
  H117     1.0000 0.86630  0.92570  0.97040  Biso   1.000  H
  H118     1.0000 0.36630  0.42570  0.97040  Biso   1.000  H
  H119     1.0000 0.13370  0.92570  0.52960  Biso   1.000  H
  H120     1.0000 0.63370  0.42570  0.52960  Biso   1.000  H
  C121     1.0000 0.05840  0.06560  0.90740  Biso   1.000  C
  C122     1.0000 0.55840  0.56560  0.90740  Biso   1.000  C
  C123     1.0000 0.94160  0.06560  0.59260  Biso   1.000  C
  C124     1.0000 0.44160  0.56560  0.59260  Biso   1.000  C
  C125     1.0000 0.94160  0.93440  0.09260  Biso   1.000  C
  C126     1.0000 0.44160  0.43440  0.09260  Biso   1.000  C
  C127     1.0000 0.05840  0.93440  0.40740  Biso   1.000  C
  C128     1.0000 0.55840  0.43440  0.40740  Biso   1.000  C
  H121     1.0000 0.03470  0.06930  0.98860  Biso   1.000  H
  H122     1.0000 0.53470  0.56930  0.98860  Biso   1.000  H
  H123     1.0000 0.96530  0.06930  0.51140  Biso   1.000  H
  H124     1.0000 0.46530  0.56930  0.51140  Biso   1.000  H
  H125     1.0000 0.96530  0.93070  0.01140  Biso   1.000  H
  H126     1.0000 0.46530  0.43070  0.01140  Biso   1.000  H
  H127     1.0000 0.03470  0.93070  0.48860  Biso   1.000  H
  H128     1.0000 0.53470  0.43070  0.48860  Biso   1.000  H
  C129     1.0000 0.13020  0.05270  0.68590  Biso   1.000  C
  C130     1.0000 0.63020  0.55270  0.68590  Biso   1.000  C
  C131     1.0000 0.86980  0.05270  0.81410  Biso   1.000  C
  C132     1.0000 0.36980  0.55270  0.81410  Biso   1.000  C
  C133     1.0000 0.86980  0.94730  0.31410  Biso   1.000  C
  C134     1.0000 0.36980  0.44730  0.31410  Biso   1.000  C
  C135     1.0000 0.13020  0.94730  0.18590  Biso   1.000  C
  C136     1.0000 0.63020  0.44730  0.18590  Biso   1.000  C
  H129     1.0000 0.15530  0.04740  0.60820  Biso   1.000  H
  H130     1.0000 0.65530  0.54740  0.60820  Biso   1.000  H
  H131     1.0000 0.84470  0.04740  0.89180  Biso   1.000  H
  H132     1.0000 0.34470  0.54740  0.89180  Biso   1.000  H
  H133     1.0000 0.84470  0.95260  0.39180  Biso   1.000  H
  H134     1.0000 0.34470  0.45260  0.39180  Biso   1.000  H
  H135     1.0000 0.15530  0.95260  0.10820  Biso   1.000  H
  H136     1.0000 0.65530  0.45260  0.10820  Biso   1.000  H
  C137     1.0000 0.07000  0.05090  0.65410  Biso   1.000  C
  C138     1.0000 0.57000  0.55090  0.65410  Biso   1.000  C
  C139     1.0000 0.93000  0.05090  0.84590  Biso   1.000  C
  C140     1.0000 0.43000  0.55090  0.84590  Biso   1.000  C
  C141     1.0000 0.93000  0.94910  0.34590  Biso   1.000  C
  C142     1.0000 0.43000  0.44910  0.34590  Biso   1.000  C
  C143     1.0000 0.07000  0.94910  0.15410  Biso   1.000  C
  C144     1.0000 0.57000  0.44910  0.15410  Biso   1.000  C
  H137     1.0000 0.05470  0.04470  0.55510  Biso   1.000  H
  H138     1.0000 0.55470  0.54470  0.55510  Biso   1.000  H
  H139     1.0000 0.94530  0.04470  0.94490  Biso   1.000  H
  H140     1.0000 0.44530  0.54470  0.94490  Biso   1.000  H
  H141     1.0000 0.94530  0.95530  0.44490  Biso   1.000  H
  H142     1.0000 0.44530  0.45530  0.44490  Biso   1.000  H
  H143     1.0000 0.05470  0.95530  0.05510  Biso   1.000  H
  H144     1.0000 0.55470  0.45530  0.05510  Biso   1.000  H
  C145     1.0000 0.03163  0.05786  0.76480  Biso   1.000  C
  C146     1.0000 0.53163  0.55786  0.76480  Biso   1.000  C
  C147     1.0000 0.96837  0.05786  0.73520  Biso   1.000  C
  C148     1.0000 0.46837  0.55786  0.73520  Biso   1.000  C
  C149     1.0000 0.96837  0.94214  0.23520  Biso   1.000  C
  C150     1.0000 0.46837  0.44214  0.23520  Biso   1.000  C
  C151     1.0000 0.03163  0.94214  0.26480  Biso   1.000  C
  C152     1.0000 0.53163  0.44214  0.26480  Biso   1.000  C
  O45      1.0000 0.42771  0.19974  0.41170  Biso   1.000  O
  O46      1.0000 0.92771  0.69974  0.41170  Biso   1.000  O
  O47      1.0000 0.57229  0.19974  0.08830  Biso   1.000  O
  O48      1.0000 0.07229  0.69974  0.08830  Biso   1.000  O
  O49      1.0000 0.57229  0.80026  0.58830  Biso   1.000  O
  O50      1.0000 0.07229  0.30026  0.58830  Biso   1.000  O
  O51      1.0000 0.42771  0.80026  0.91170  Biso   1.000  O
  O52      1.0000 0.92771  0.30026  0.91170  Biso   1.000  O
  O53      1.0000 0.07089  0.20664  0.88430  Biso   1.000  O
  O54      1.0000 0.57089  0.70664  0.88430  Biso   1.000  O
  O55      1.0000 0.92911  0.20664  0.61570  Biso   1.000  O
  O56      1.0000 0.42911  0.70664  0.61570  Biso   1.000  O
  O57      1.0000 0.92911  0.79336  0.11570  Biso   1.000  O
  O58      1.0000 0.42911  0.29336  0.11570  Biso   1.000  O
  O59      1.0000 0.07089  0.79336  0.38430  Biso   1.000  O
  O60      1.0000 0.57089  0.29336  0.38430  Biso   1.000  O
  O61      1.0000 0.03803  0.19329  0.63870  Biso   1.000  O
  O62      1.0000 0.53803  0.69329  0.63870  Biso   1.000  O
  O63      1.0000 0.96197  0.19329  0.86130  Biso   1.000  O
  O64      1.0000 0.46197  0.69329  0.86130  Biso   1.000  O
  O65      1.0000 0.96197  0.80671  0.36130  Biso   1.000  O
  O66      1.0000 0.46197  0.30671  0.36130  Biso   1.000  O
  O67      1.0000 0.03803  0.80671  0.13870  Biso   1.000  O
  O68      1.0000 0.53803  0.30671  0.13870  Biso   1.000  O
