data_image0
_cell_length_a       9.95
_cell_length_b       9.161
_cell_length_c       15.974
_cell_angle_alpha    90
_cell_angle_beta     96.848
_cell_angle_gamma    90

_symmetry_space_group_name_H-M    "P 1"
_symmetry_int_tables_number       1

loop_
  _symmetry_equiv_pos_as_xyz
  'x, y, z'

loop_
  _atom_site_label
  _atom_site_occupancy
  _atom_site_fract_x
  _atom_site_fract_y
  _atom_site_fract_z
  _atom_site_thermal_displace_type
  _atom_site_B_iso_or_equiv
  _atom_site_type_symbol
  Cu1      1.0000 0.96861  0.32126  0.24233  Biso   1.000  Cu
  Cu2      1.0000 0.53139  0.82126  0.25767  Biso   1.000  Cu
  Cu3      1.0000 0.03139  0.67874  0.75767  Biso   1.000  Cu
  Cu4      1.0000 0.46861  0.17874  0.74233  Biso   1.000  Cu
  O1       1.0000 0.53910  0.53860  0.12050  Biso   1.000  O
  O2       1.0000 0.96090  0.03860  0.37950  Biso   1.000  O
  O3       1.0000 0.46090  0.46140  0.87950  Biso   1.000  O
  O4       1.0000 0.03910  0.96140  0.62050  Biso   1.000  O
  O5       1.0000 0.42380  0.63770  0.21712  Biso   1.000  O
  O6       1.0000 0.07620  0.13770  0.28288  Biso   1.000  O
  O7       1.0000 0.57620  0.36230  0.78288  Biso   1.000  O
  O8       1.0000 0.92380  0.86230  0.71712  Biso   1.000  O
  O9       1.0000 0.48640  0.24200  0.25350  Biso   1.000  O
  O10      1.0000 0.01360  0.74200  0.24650  Biso   1.000  O
  O11      1.0000 0.51360  0.75800  0.74650  Biso   1.000  O
  O12      1.0000 0.98640  0.25800  0.75350  Biso   1.000  O
  O13      1.0000 0.60540  0.40330  0.33630  Biso   1.000  O
  O14      1.0000 0.89460  0.90330  0.16370  Biso   1.000  O
  O15      1.0000 0.39460  0.59670  0.66370  Biso   1.000  O
  O16      1.0000 0.10540  0.09670  0.83630  Biso   1.000  O
  O17      1.0000 0.84390  0.19170  0.16320  Biso   1.000  O
  O18      1.0000 0.65610  0.69170  0.33680  Biso   1.000  O
  O19      1.0000 0.15610  0.80830  0.83680  Biso   1.000  O
  O20      1.0000 0.34390  0.30830  0.66320  Biso   1.000  O
  H1       1.0000 0.76100  0.21190  0.14890  Biso   1.000  H
  H2       1.0000 0.73900  0.71190  0.35110  Biso   1.000  H
  H3       1.0000 0.23900  0.78810  0.85110  Biso   1.000  H
  H4       1.0000 0.26100  0.28810  0.64890  Biso   1.000  H
  H5       1.0000 0.87330  0.10450  0.16420  Biso   1.000  H
  H6       1.0000 0.62670  0.60450  0.33580  Biso   1.000  H
  H7       1.0000 0.12670  0.89550  0.83580  Biso   1.000  H
  H8       1.0000 0.37330  0.39550  0.66420  Biso   1.000  H
  O21      1.0000 0.85740  0.50590  0.19990  Biso   1.000  O
  O22      1.0000 0.64260  0.00590  0.30010  Biso   1.000  O
  O23      1.0000 0.14260  0.49410  0.80010  Biso   1.000  O
  O24      1.0000 0.35740  0.99410  0.69990  Biso   1.000  O
  H9       1.0000 0.89740  0.58630  0.21260  Biso   1.000  H
  H10      1.0000 0.60260  0.08630  0.28740  Biso   1.000  H
  H11      1.0000 0.10260  0.41370  0.78740  Biso   1.000  H
  H12      1.0000 0.39740  0.91370  0.71260  Biso   1.000  H
  H13      1.0000 0.77480  0.51420  0.17950  Biso   1.000  H
  H14      1.0000 0.72520  0.01420  0.32050  Biso   1.000  H
  H15      1.0000 0.22520  0.48580  0.82050  Biso   1.000  H
  H16      1.0000 0.27480  0.98580  0.67950  Biso   1.000  H
  O25      1.0000 0.85680  0.30740  0.34210  Biso   1.000  O
  O26      1.0000 0.64320  0.80740  0.15790  Biso   1.000  O
  O27      1.0000 0.14320  0.69260  0.65790  Biso   1.000  O
  O28      1.0000 0.35680  0.19260  0.84210  Biso   1.000  O
  H17      1.0000 0.77310  0.32780  0.33980  Biso   1.000  H
  H18      1.0000 0.72690  0.82780  0.16020  Biso   1.000  H
  H19      1.0000 0.22690  0.67220  0.66020  Biso   1.000  H
  H20      1.0000 0.27310  0.17220  0.83980  Biso   1.000  H
  H21      1.0000 0.87060  0.22760  0.36890  Biso   1.000  H
  H22      1.0000 0.62940  0.72760  0.13110  Biso   1.000  H
  H23      1.0000 0.12940  0.77240  0.63110  Biso   1.000  H
  H24      1.0000 0.37060  0.27240  0.86890  Biso   1.000  H
  N1       1.0000 0.12560  0.43310  0.31322  Biso   1.000  N
  N2       1.0000 0.37440  0.93310  0.18678  Biso   1.000  N
  N3       1.0000 0.87440  0.56690  0.68678  Biso   1.000  N
  N4       1.0000 0.62560  0.06690  0.81322  Biso   1.000  N
  N5       1.0000 0.10290  0.35010  0.15470  Biso   1.000  N
  N6       1.0000 0.39710  0.85010  0.34530  Biso   1.000  N
  N7       1.0000 0.89710  0.64990  0.84530  Biso   1.000  N
  N8       1.0000 0.60290  0.14990  0.65470  Biso   1.000  N
  C1       1.0000 0.07300  0.33340  0.07180  Biso   1.000  C
  C2       1.0000 0.42700  0.83340  0.42820  Biso   1.000  C
  C3       1.0000 0.92700  0.66660  0.92820  Biso   1.000  C
  C4       1.0000 0.57300  0.16660  0.57180  Biso   1.000  C
  H25      1.0000 0.98910  0.29450  0.05140  Biso   1.000  H
  H26      1.0000 0.51090  0.79450  0.44860  Biso   1.000  H
  H27      1.0000 0.01090  0.70550  0.94860  Biso   1.000  H
  H28      1.0000 0.48910  0.20550  0.55140  Biso   1.000  H
  C5       1.0000 0.15970  0.37060  0.01520  Biso   1.000  C
  C6       1.0000 0.34030  0.87060  0.48480  Biso   1.000  C
  C7       1.0000 0.84030  0.62940  0.98480  Biso   1.000  C
  C8       1.0000 0.65970  0.12940  0.51520  Biso   1.000  C
  H29      1.0000 0.13730  0.35410  0.95780  Biso   1.000  H
  H30      1.0000 0.36270  0.85410  0.54220  Biso   1.000  H
  H31      1.0000 0.86270  0.64590  0.04220  Biso   1.000  H
  H32      1.0000 0.63730  0.14590  0.45780  Biso   1.000  H
  C9       1.0000 0.28210  0.43350  0.04600  Biso   1.000  C
  C10      1.0000 0.21790  0.93350  0.45400  Biso   1.000  C
  C11      1.0000 0.71790  0.56650  0.95400  Biso   1.000  C
  C12      1.0000 0.78210  0.06650  0.54600  Biso   1.000  C
  H33      1.0000 0.34300  0.45990  0.00880  Biso   1.000  H
  H34      1.0000 0.15700  0.95990  0.49120  Biso   1.000  H
  H35      1.0000 0.65700  0.54010  0.99120  Biso   1.000  H
  H36      1.0000 0.84300  0.04010  0.50880  Biso   1.000  H
  C13      1.0000 0.31490  0.45750  0.13130  Biso   1.000  C
  C14      1.0000 0.18510  0.95750  0.36870  Biso   1.000  C
  C15      1.0000 0.68510  0.54250  0.86870  Biso   1.000  C
  C16      1.0000 0.81490  0.04250  0.63130  Biso   1.000  C
  C17      1.0000 0.22310  0.40740  0.18540  Biso   1.000  C
  C18      1.0000 0.27690  0.90740  0.31460  Biso   1.000  C
  C19      1.0000 0.77690  0.59260  0.81460  Biso   1.000  C
  C20      1.0000 0.72310  0.09260  0.68540  Biso   1.000  C
  C21      1.0000 0.24370  0.41590  0.27950  Biso   1.000  C
  C22      1.0000 0.25630  0.91590  0.22050  Biso   1.000  C
  C23      1.0000 0.75630  0.58410  0.72050  Biso   1.000  C
  C24      1.0000 0.74370  0.08410  0.77950  Biso   1.000  C
  C25      1.0000 0.36620  0.40590  0.33080  Biso   1.000  C
  C26      1.0000 0.13380  0.90590  0.16920  Biso   1.000  C
  C27      1.0000 0.63380  0.59410  0.66920  Biso   1.000  C
  C28      1.0000 0.86620  0.09410  0.83080  Biso   1.000  C
  C29      1.0000 0.36640  0.43250  0.41640  Biso   1.000  C
  C30      1.0000 0.13360  0.93250  0.08360  Biso   1.000  C
  C31      1.0000 0.63360  0.56750  0.58360  Biso   1.000  C
  C32      1.0000 0.86640  0.06750  0.91640  Biso   1.000  C
  H37      1.0000 0.44770  0.42970  0.45170  Biso   1.000  H
  H38      1.0000 0.05230  0.92970  0.04830  Biso   1.000  H
  H39      1.0000 0.55230  0.57030  0.54830  Biso   1.000  H
  H40      1.0000 0.94770  0.07030  0.95170  Biso   1.000  H
  C33      1.0000 0.24790  0.46290  0.44970  Biso   1.000  C
  C34      1.0000 0.25210  0.96290  0.05030  Biso   1.000  C
  C35      1.0000 0.75210  0.53710  0.55030  Biso   1.000  C
  C36      1.0000 0.74790  0.03710  0.94970  Biso   1.000  C
  H41      1.0000 0.24830  0.48650  0.50630  Biso   1.000  H
  H42      1.0000 0.25170  0.98650  0.99370  Biso   1.000  H
  H43      1.0000 0.75170  0.51350  0.49370  Biso   1.000  H
  H44      1.0000 0.74830  0.01350  0.00630  Biso   1.000  H
  C37      1.0000 0.12920  0.45720  0.39620  Biso   1.000  C
  C38      1.0000 0.37080  0.95720  0.10380  Biso   1.000  C
  C39      1.0000 0.87080  0.54280  0.60380  Biso   1.000  C
  C40      1.0000 0.62920  0.04280  0.89620  Biso   1.000  C
  H45      1.0000 0.04790  0.47070  0.41860  Biso   1.000  H
  H46      1.0000 0.45210  0.97070  0.08140  Biso   1.000  H
  H47      1.0000 0.95210  0.52930  0.58140  Biso   1.000  H
  H48      1.0000 0.54790  0.02930  0.91860  Biso   1.000  H
  C41      1.0000 0.43670  0.55070  0.15930  Biso   1.000  C
  C42      1.0000 0.06330  0.05070  0.34070  Biso   1.000  C
  C43      1.0000 0.56330  0.44930  0.84070  Biso   1.000  C
  C44      1.0000 0.93670  0.94930  0.65930  Biso   1.000  C
  C45      1.0000 0.49630  0.34690  0.30290  Biso   1.000  C
  C46      1.0000 0.00370  0.84690  0.19710  Biso   1.000  C
  C47      1.0000 0.50370  0.65310  0.69710  Biso   1.000  C
  C48      1.0000 0.99630  0.15310  0.80290  Biso   1.000  C
  O29      1.0000 0.58950  0.23680  0.09430  Biso   1.000  O
  O30      1.0000 0.91050  0.73680  0.40570  Biso   1.000  O
  O31      1.0000 0.41050  0.76320  0.90570  Biso   1.000  O
  O32      1.0000 0.08950  0.26320  0.59430  Biso   1.000  O
  H49      1.0000 0.58350  0.32650  0.08080  Biso   1.000  H
  H50      1.0000 0.91650  0.82650  0.41920  Biso   1.000  H
  H51      1.0000 0.41650  0.67350  0.91920  Biso   1.000  H
  H52      1.0000 0.08350  0.17350  0.58080  Biso   1.000  H
  H53      1.0000 0.54920  0.23920  0.13830  Biso   1.000  H
  H54      1.0000 0.95080  0.73920  0.36170  Biso   1.000  H
  H55      1.0000 0.45080  0.76080  0.86170  Biso   1.000  H
  H56      1.0000 0.04920  0.26080  0.63830  Biso   1.000  H
