data_image0
_cell_length_a       11.8212
_cell_length_b       11.8212
_cell_length_c       15.1369
_cell_angle_alpha    90
_cell_angle_beta     90
_cell_angle_gamma    90

_symmetry_space_group_name_H-M    "P 1"
_symmetry_int_tables_number       1

loop_
  _symmetry_equiv_pos_as_xyz
  'x, y, z'

loop_
  _atom_site_label
  _atom_site_occupancy
  _atom_site_fract_x
  _atom_site_fract_y
  _atom_site_fract_z
  _atom_site_thermal_displace_type
  _atom_site_B_iso_or_equiv
  _atom_site_type_symbol
  Cu1      1.0000 0.82172  0.56113  0.12572  Biso   1.000  Cu
  Cu2      1.0000 0.17828  0.43887  0.62572  Biso   1.000  Cu
  Cu3      1.0000 0.43887  0.82172  0.37572  Biso   1.000  Cu
  Cu4      1.0000 0.56113  0.17828  0.87572  Biso   1.000  Cu
  Cl1      1.0000 0.74691  0.72166  0.06615  Biso   1.000  Cl
  Cl2      1.0000 0.25309  0.27834  0.56615  Biso   1.000  Cl
  Cl3      1.0000 0.27834  0.74691  0.31615  Biso   1.000  Cl
  Cl4      1.0000 0.72166  0.25309  0.81615  Biso   1.000  Cl
  Cl5      1.0000 0.89336  0.46165  0.24193  Biso   1.000  Cl
  Cl6      1.0000 0.10664  0.53835  0.74193  Biso   1.000  Cl
  Cl7      1.0000 0.53835  0.89336  0.49193  Biso   1.000  Cl
  Cl8      1.0000 0.46165  0.10664  0.99193  Biso   1.000  Cl
  Si1      1.0000 0.31088  0.33711  0.21603  Biso   1.000  Si
  Si2      1.0000 0.68912  0.66289  0.71603  Biso   1.000  Si
  Si3      1.0000 0.66289  0.31088  0.46603  Biso   1.000  Si
  Si4      1.0000 0.33711  0.68912  0.96603  Biso   1.000  Si
  O1       1.0000 0.82970  0.43400  0.00550  Biso   1.000  O
  O2       1.0000 0.17030  0.56600  0.50550  Biso   1.000  O
  O3       1.0000 0.56600  0.82970  0.25550  Biso   1.000  O
  O4       1.0000 0.43400  0.17030  0.75550  Biso   1.000  O
  N1       1.0000 0.66720  0.49720  0.15260  Biso   1.000  N
  N2       1.0000 0.33280  0.50280  0.65260  Biso   1.000  N
  N3       1.0000 0.50280  0.66720  0.40260  Biso   1.000  N
  N4       1.0000 0.49720  0.33280  0.90260  Biso   1.000  N
  N5       1.0000 0.38950  0.97780  0.33560  Biso   1.000  N
  N6       1.0000 0.61050  0.02220  0.83560  Biso   1.000  N
  N7       1.0000 0.02220  0.38950  0.58560  Biso   1.000  N
  N8       1.0000 0.97780  0.61050  0.08560  Biso   1.000  N
  N9       1.0000 0.95520  0.30000  0.96720  Biso   1.000  N
  N10      1.0000 0.04480  0.70000  0.46720  Biso   1.000  N
  N11      1.0000 0.70000  0.95520  0.21720  Biso   1.000  N
  N12      1.0000 0.30000  0.04480  0.71720  Biso   1.000  N
  C1       1.0000 0.58200  0.56130  0.18550  Biso   1.000  C
  C2       1.0000 0.41800  0.43870  0.68550  Biso   1.000  C
  C3       1.0000 0.43870  0.58200  0.43550  Biso   1.000  C
  C4       1.0000 0.56130  0.41800  0.93550  Biso   1.000  C
  H1       1.0000 0.59430  0.63820  0.19420  Biso   1.000  H
  H2       1.0000 0.40570  0.36180  0.69420  Biso   1.000  H
  H3       1.0000 0.36180  0.59430  0.44420  Biso   1.000  H
  H4       1.0000 0.63820  0.40570  0.94420  Biso   1.000  H
  C5       1.0000 0.47740  0.51660  0.20650  Biso   1.000  C
  C6       1.0000 0.52260  0.48340  0.70650  Biso   1.000  C
  C7       1.0000 0.48340  0.47740  0.45650  Biso   1.000  C
  C8       1.0000 0.51660  0.52260  0.95650  Biso   1.000  C
  H5       1.0000 0.42190  0.56380  0.22960  Biso   1.000  H
  H6       1.0000 0.57810  0.43620  0.72960  Biso   1.000  H
  H7       1.0000 0.43620  0.42190  0.47960  Biso   1.000  H
  H8       1.0000 0.56380  0.57810  0.97960  Biso   1.000  H
  C9       1.0000 0.45300  0.40230  0.19380  Biso   1.000  C
  C10      1.0000 0.54700  0.59770  0.69380  Biso   1.000  C
  C11      1.0000 0.59770  0.45300  0.44380  Biso   1.000  C
  C12      1.0000 0.40230  0.54700  0.94380  Biso   1.000  C
  C13      1.0000 0.54290  0.33840  0.15910  Biso   1.000  C
  C14      1.0000 0.45710  0.66160  0.65910  Biso   1.000  C
  C15      1.0000 0.66160  0.54290  0.40910  Biso   1.000  C
  C16      1.0000 0.33840  0.45710  0.90910  Biso   1.000  C
  H9       1.0000 0.53220  0.26170  0.14820  Biso   1.000  H
  H10      1.0000 0.46780  0.73830  0.64820  Biso   1.000  H
  H11      1.0000 0.73830  0.53220  0.39820  Biso   1.000  H
  H12      1.0000 0.26170  0.46780  0.89820  Biso   1.000  H
  C17      1.0000 0.64730  0.38690  0.14050  Biso   1.000  C
  C18      1.0000 0.35270  0.61310  0.64050  Biso   1.000  C
  C19      1.0000 0.61310  0.64730  0.39050  Biso   1.000  C
  C20      1.0000 0.38690  0.35270  0.89050  Biso   1.000  C
  H13      1.0000 0.70520  0.34130  0.11910  Biso   1.000  H
  H14      1.0000 0.29480  0.65870  0.61910  Biso   1.000  H
  H15      1.0000 0.65870  0.70520  0.36910  Biso   1.000  H
  H16      1.0000 0.34130  0.29480  0.86910  Biso   1.000  H
  C21      1.0000 0.23640  0.31940  0.10960  Biso   1.000  C
  C22      1.0000 0.76360  0.68060  0.60960  Biso   1.000  C
  C23      1.0000 0.68060  0.23640  0.35960  Biso   1.000  C
  C24      1.0000 0.31940  0.76360  0.85960  Biso   1.000  C
  H17      1.0000 0.28430  0.27950  0.06900  Biso   1.000  H
  H18      1.0000 0.71570  0.72050  0.56900  Biso   1.000  H
  H19      1.0000 0.72050  0.28430  0.31900  Biso   1.000  H
  H20      1.0000 0.27950  0.71570  0.81900  Biso   1.000  H
  H21      1.0000 0.21810  0.39240  0.08580  Biso   1.000  H
  H22      1.0000 0.78190  0.60760  0.58580  Biso   1.000  H
  H23      1.0000 0.60760  0.21810  0.33580  Biso   1.000  H
  H24      1.0000 0.39240  0.78190  0.83580  Biso   1.000  H
  H25      1.0000 0.16810  0.27710  0.11890  Biso   1.000  H
  H26      1.0000 0.83190  0.72290  0.61890  Biso   1.000  H
  H27      1.0000 0.72290  0.16810  0.36890  Biso   1.000  H
  H28      1.0000 0.27710  0.83190  0.86890  Biso   1.000  H
  C25      1.0000 0.22980  0.42260  0.29580  Biso   1.000  C
  C26      1.0000 0.77020  0.57740  0.79580  Biso   1.000  C
  C27      1.0000 0.57740  0.22980  0.54580  Biso   1.000  C
  C28      1.0000 0.42260  0.77020  0.04580  Biso   1.000  C
  H29      1.0000 0.27210  0.42980  0.34960  Biso   1.000  H
  H30      1.0000 0.72790  0.57020  0.84960  Biso   1.000  H
  H31      1.0000 0.57020  0.27210  0.59960  Biso   1.000  H
  H32      1.0000 0.42980  0.72790  0.09960  Biso   1.000  H
  H33      1.0000 0.15880  0.38620  0.30790  Biso   1.000  H
  H34      1.0000 0.84120  0.61380  0.80790  Biso   1.000  H
  H35      1.0000 0.61380  0.15880  0.55790  Biso   1.000  H
  H36      1.0000 0.38620  0.84120  0.05790  Biso   1.000  H
  H37      1.0000 0.21620  0.49630  0.27140  Biso   1.000  H
  H38      1.0000 0.78380  0.50370  0.77140  Biso   1.000  H
  H39      1.0000 0.50370  0.21620  0.52140  Biso   1.000  H
  H40      1.0000 0.49630  0.78380  0.02140  Biso   1.000  H
  C29      1.0000 0.33880  0.19290  0.26420  Biso   1.000  C
  C30      1.0000 0.66120  0.80710  0.76420  Biso   1.000  C
  C31      1.0000 0.80710  0.33880  0.51420  Biso   1.000  C
  C32      1.0000 0.19290  0.66120  0.01420  Biso   1.000  C
  C33      1.0000 0.35580  0.17620  0.35380  Biso   1.000  C
  C34      1.0000 0.64420  0.82380  0.85380  Biso   1.000  C
  C35      1.0000 0.82380  0.35580  0.60380  Biso   1.000  C
  C36      1.0000 0.17620  0.64420  0.10380  Biso   1.000  C
  H41      1.0000 0.34940  0.23690  0.39250  Biso   1.000  H
  H42      1.0000 0.65060  0.76310  0.89250  Biso   1.000  H
  H43      1.0000 0.76310  0.34940  0.64250  Biso   1.000  H
  H44      1.0000 0.23690  0.65060  0.14250  Biso   1.000  H
  C37      1.0000 0.38220  0.07000  0.38640  Biso   1.000  C
  C38      1.0000 0.61780  0.93000  0.88640  Biso   1.000  C
  C39      1.0000 0.93000  0.38220  0.63640  Biso   1.000  C
  C40      1.0000 0.07000  0.61780  0.13640  Biso   1.000  C
  H45      1.0000 0.39550  0.06250  0.44670  Biso   1.000  H
  H46      1.0000 0.60450  0.93750  0.94670  Biso   1.000  H
  H47      1.0000 0.93750  0.39550  0.69670  Biso   1.000  H
  H48      1.0000 0.06250  0.60450  0.19670  Biso   1.000  H
  C41      1.0000 0.36680  0.99200  0.24870  Biso   1.000  C
  C42      1.0000 0.63320  0.00800  0.74870  Biso   1.000  C
  C43      1.0000 0.00800  0.36680  0.49870  Biso   1.000  C
  C44      1.0000 0.99200  0.63320  0.99870  Biso   1.000  C
  H49      1.0000 0.36540  0.92860  0.21230  Biso   1.000  H
  H50      1.0000 0.63460  0.07140  0.71230  Biso   1.000  H
  H51      1.0000 0.07140  0.36540  0.46230  Biso   1.000  H
  H52      1.0000 0.92860  0.63460  0.96230  Biso   1.000  H
  C45      1.0000 0.34600  0.09520  0.21230  Biso   1.000  C
  C46      1.0000 0.65400  0.90480  0.71230  Biso   1.000  C
  C47      1.0000 0.90480  0.34600  0.46230  Biso   1.000  C
  C48      1.0000 0.09520  0.65400  0.96230  Biso   1.000  C
  H53      1.0000 0.33630  0.10090  0.15150  Biso   1.000  H
  H54      1.0000 0.66370  0.89910  0.65150  Biso   1.000  H
  H55      1.0000 0.89910  0.33630  0.40150  Biso   1.000  H
  H56      1.0000 0.10090  0.66370  0.90150  Biso   1.000  H
  C49      1.0000 0.90150  0.39660  0.95620  Biso   1.000  C
  C50      1.0000 0.09850  0.60340  0.45620  Biso   1.000  C
  C51      1.0000 0.60340  0.90150  0.20620  Biso   1.000  C
  C52      1.0000 0.39660  0.09850  0.70620  Biso   1.000  C
  H57      1.0000 0.92000  0.43960  0.90680  Biso   1.000  H
  H58      1.0000 0.08000  0.56040  0.40680  Biso   1.000  H
  H59      1.0000 0.56040  0.92000  0.15680  Biso   1.000  H
  H60      1.0000 0.43960  0.08000  0.65680  Biso   1.000  H
  C53      1.0000 0.92540  0.23050  0.04020  Biso   1.000  C
  C54      1.0000 0.07460  0.76950  0.54020  Biso   1.000  C
  C55      1.0000 0.76950  0.92540  0.29020  Biso   1.000  C
  C56      1.0000 0.23050  0.07460  0.79020  Biso   1.000  C
  H61      1.0000 0.97060  0.16300  0.03940  Biso   1.000  H
  H62      1.0000 0.02940  0.83700  0.53940  Biso   1.000  H
  H63      1.0000 0.83700  0.97060  0.28940  Biso   1.000  H
  H64      1.0000 0.16300  0.02940  0.78940  Biso   1.000  H
  H65      1.0000 0.84680  0.21060  0.03620  Biso   1.000  H
  H66      1.0000 0.15320  0.78940  0.53620  Biso   1.000  H
  H67      1.0000 0.78940  0.84680  0.28620  Biso   1.000  H
  H68      1.0000 0.21060  0.15320  0.78620  Biso   1.000  H
  H69      1.0000 0.93870  0.27100  0.09410  Biso   1.000  H
  H70      1.0000 0.06130  0.72900  0.59410  Biso   1.000  H
  H71      1.0000 0.72900  0.93870  0.34410  Biso   1.000  H
  H72      1.0000 0.27100  0.06130  0.84410  Biso   1.000  H
  C57      1.0000 0.03200  0.25710  0.89920  Biso   1.000  C
  C58      1.0000 0.96800  0.74290  0.39920  Biso   1.000  C
  C59      1.0000 0.74290  0.03200  0.14920  Biso   1.000  C
  C60      1.0000 0.25710  0.96800  0.64920  Biso   1.000  C
  H73      1.0000 0.06250  0.18570  0.91760  Biso   1.000  H
  H74      1.0000 0.93750  0.81430  0.41760  Biso   1.000  H
  H75      1.0000 0.81430  0.06250  0.16760  Biso   1.000  H
  H76      1.0000 0.18570  0.93750  0.66760  Biso   1.000  H
  H77      1.0000 0.09250  0.31010  0.89050  Biso   1.000  H
  H78      1.0000 0.90750  0.68990  0.39050  Biso   1.000  H
  H79      1.0000 0.68990  0.09250  0.14050  Biso   1.000  H
  H80      1.0000 0.31010  0.90750  0.64050  Biso   1.000  H
  H81      1.0000 0.99130  0.24750  0.84480  Biso   1.000  H
  H82      1.0000 0.00870  0.75250  0.34480  Biso   1.000  H
  H83      1.0000 0.75250  0.99130  0.09480  Biso   1.000  H
  H84      1.0000 0.24750  0.00870  0.59480  Biso   1.000  H
  O5       1.0000 0.09220  0.97440  0.13210  Biso   1.000  O
  O6       1.0000 0.90780  0.02560  0.63210  Biso   1.000  O
  O7       1.0000 0.02560  0.09220  0.38210  Biso   1.000  O
  O8       1.0000 0.97440  0.90780  0.88210  Biso   1.000  O
  C61      1.0000 0.07250  0.02430  0.20520  Biso   1.000  C
  C62      1.0000 0.92750  0.97570  0.70520  Biso   1.000  C
  C63      1.0000 0.97570  0.07250  0.45520  Biso   1.000  C
  C64      1.0000 0.02430  0.92750  0.95520  Biso   1.000  C
  H85      1.0000 0.14600  0.00850  0.23080  Biso   1.000  H
  H86      1.0000 0.85400  0.99150  0.73080  Biso   1.000  H
  H87      1.0000 0.99150  0.14600  0.48080  Biso   1.000  H
  H88      1.0000 0.00850  0.85400  0.98080  Biso   1.000  H
  H89      1.0000 0.02500  0.96470  0.22910  Biso   1.000  H
  H90      1.0000 0.97500  0.03530  0.72910  Biso   1.000  H
  H91      1.0000 0.03530  0.02500  0.47910  Biso   1.000  H
  H92      1.0000 0.96470  0.97500  0.97910  Biso   1.000  H
  C65      1.0000 0.13420  0.96930  0.04010  Biso   1.000  C
  C66      1.0000 0.86580  0.03070  0.54010  Biso   1.000  C
  C67      1.0000 0.03070  0.13420  0.29010  Biso   1.000  C
  C68      1.0000 0.96930  0.86580  0.79010  Biso   1.000  C
  H93      1.0000 0.19610  0.91540  0.03750  Biso   1.000  H
  H94      1.0000 0.80390  0.08460  0.53750  Biso   1.000  H
  H95      1.0000 0.08460  0.19610  0.28750  Biso   1.000  H
  H96      1.0000 0.91540  0.80390  0.78750  Biso   1.000  H
  H97      1.0000 0.16440  0.04290  0.02440  Biso   1.000  H
  H98      1.0000 0.83560  0.95710  0.52440  Biso   1.000  H
  H99      1.0000 0.95710  0.16440  0.27440  Biso   1.000  H
  H100     1.0000 0.04290  0.83560  0.77440  Biso   1.000  H
