data_image0
_cell_length_a       11.8227
_cell_length_b       11.8227
_cell_length_c       15.1476
_cell_angle_alpha    90
_cell_angle_beta     90
_cell_angle_gamma    90

_symmetry_space_group_name_H-M    "P 1"
_symmetry_int_tables_number       1

loop_
  _symmetry_equiv_pos_as_xyz
  'x, y, z'

loop_
  _atom_site_label
  _atom_site_occupancy
  _atom_site_fract_x
  _atom_site_fract_y
  _atom_site_fract_z
  _atom_site_thermal_displace_type
  _atom_site_B_iso_or_equiv
  _atom_site_type_symbol
  Cu1      1.0000 0.93962  0.32186  0.45255  Biso   1.000  Cu
  Cu2      1.0000 0.06038  0.67814  0.95255  Biso   1.000  Cu
  Cu3      1.0000 0.67814  0.93962  0.20255  Biso   1.000  Cu
  Cu4      1.0000 0.32186  0.06038  0.70255  Biso   1.000  Cu
  Si1      1.0000 0.16279  0.81113  0.36193  Biso   1.000  Si
  Si2      1.0000 0.83721  0.18887  0.86193  Biso   1.000  Si
  Si3      1.0000 0.18887  0.16279  0.11193  Biso   1.000  Si
  Si4      1.0000 0.81113  0.83721  0.61193  Biso   1.000  Si
  Cl1      1.0000 0.03973  0.39360  0.33674  Biso   1.000  Cl
  Cl2      1.0000 0.96027  0.60640  0.83674  Biso   1.000  Cl
  Cl3      1.0000 0.60640  0.03973  0.08674  Biso   1.000  Cl
  Cl4      1.0000 0.39360  0.96027  0.58674  Biso   1.000  Cl
  Cl5      1.0000 0.77928  0.24667  0.51223  Biso   1.000  Cl
  Cl6      1.0000 0.22072  0.75333  0.01223  Biso   1.000  Cl
  Cl7      1.0000 0.75333  0.77928  0.26223  Biso   1.000  Cl
  Cl8      1.0000 0.24667  0.22072  0.76223  Biso   1.000  Cl
  O1       1.0000 0.06770  0.32970  0.57230  Biso   1.000  O
  O2       1.0000 0.93230  0.67030  0.07230  Biso   1.000  O
  O3       1.0000 0.67030  0.06770  0.32230  Biso   1.000  O
  O4       1.0000 0.32970  0.93230  0.82230  Biso   1.000  O
  N1       1.0000 0.00240  0.16650  0.42570  Biso   1.000  N
  N2       1.0000 0.99760  0.83350  0.92570  Biso   1.000  N
  N3       1.0000 0.83350  0.00240  0.17570  Biso   1.000  N
  N4       1.0000 0.16650  0.99760  0.67570  Biso   1.000  N
  N5       1.0000 0.52270  0.88980  0.24300  Biso   1.000  N
  N6       1.0000 0.47730  0.11020  0.74300  Biso   1.000  N
  N7       1.0000 0.11020  0.52270  0.99300  Biso   1.000  N
  N8       1.0000 0.88980  0.47730  0.49300  Biso   1.000  N
  N9       1.0000 0.20060  0.45520  0.61220  Biso   1.000  N
  N10      1.0000 0.79940  0.54480  0.11220  Biso   1.000  N
  N11      1.0000 0.54480  0.20060  0.36220  Biso   1.000  N
  N12      1.0000 0.45520  0.79940  0.86220  Biso   1.000  N
  C1       1.0000 0.11420  0.14650  0.43750  Biso   1.000  C
  C2       1.0000 0.88580  0.85350  0.93750  Biso   1.000  C
  C3       1.0000 0.85350  0.11420  0.18750  Biso   1.000  C
  C4       1.0000 0.14650  0.88580  0.68750  Biso   1.000  C
  H1       1.0000 0.16100  0.20570  0.45910  Biso   1.000  H
  H2       1.0000 0.83900  0.79430  0.95910  Biso   1.000  H
  H3       1.0000 0.79430  0.16100  0.20910  Biso   1.000  H
  H4       1.0000 0.20570  0.83900  0.70910  Biso   1.000  H
  C5       1.0000 0.16200  0.04260  0.41900  Biso   1.000  C
  C6       1.0000 0.83800  0.95740  0.91900  Biso   1.000  C
  C7       1.0000 0.95740  0.16200  0.16900  Biso   1.000  C
  C8       1.0000 0.04260  0.83800  0.66900  Biso   1.000  C
  H5       1.0000 0.24030  0.03090  0.42990  Biso   1.000  H
  H6       1.0000 0.75970  0.96910  0.92990  Biso   1.000  H
  H7       1.0000 0.96910  0.24030  0.17990  Biso   1.000  H
  H8       1.0000 0.03090  0.75970  0.67990  Biso   1.000  H
  C9       1.0000 0.09700  0.95440  0.38460  Biso   1.000  C
  C10      1.0000 0.90300  0.04560  0.88460  Biso   1.000  C
  C11      1.0000 0.04560  0.09700  0.13460  Biso   1.000  C
  C12      1.0000 0.95440  0.90300  0.63460  Biso   1.000  C
  C13      1.0000 0.98280  0.97780  0.37110  Biso   1.000  C
  C14      1.0000 0.01720  0.02220  0.87110  Biso   1.000  C
  C15      1.0000 0.02220  0.98280  0.12110  Biso   1.000  C
  C16      1.0000 0.97780  0.01720  0.62110  Biso   1.000  C
  H9       1.0000 0.93490  0.92130  0.34700  Biso   1.000  H
  H10      1.0000 0.06510  0.07870  0.84700  Biso   1.000  H
  H11      1.0000 0.07870  0.93490  0.09700  Biso   1.000  H
  H12      1.0000 0.92130  0.06510  0.59700  Biso   1.000  H
  C17      1.0000 0.93890  0.08240  0.39270  Biso   1.000  C
  C18      1.0000 0.06110  0.91760  0.89270  Biso   1.000  C
  C19      1.0000 0.91760  0.93890  0.14270  Biso   1.000  C
  C20      1.0000 0.08240  0.06110  0.64270  Biso   1.000  C
  H13      1.0000 0.86040  0.09540  0.38370  Biso   1.000  H
  H14      1.0000 0.13960  0.90460  0.88370  Biso   1.000  H
  H15      1.0000 0.90460  0.86040  0.13370  Biso   1.000  H
  H16      1.0000 0.09540  0.13960  0.63370  Biso   1.000  H
  C21      1.0000 0.17990  0.73480  0.46850  Biso   1.000  C
  C22      1.0000 0.82010  0.26520  0.96850  Biso   1.000  C
  C23      1.0000 0.26520  0.17990  0.21850  Biso   1.000  C
  C24      1.0000 0.73480  0.82010  0.71850  Biso   1.000  C
  H17      1.0000 0.21400  0.66050  0.45760  Biso   1.000  H
  H18      1.0000 0.78600  0.33950  0.95760  Biso   1.000  H
  H19      1.0000 0.33950  0.21400  0.20760  Biso   1.000  H
  H20      1.0000 0.66050  0.78600  0.70760  Biso   1.000  H
  H21      1.0000 0.10570  0.72490  0.49630  Biso   1.000  H
  H22      1.0000 0.89430  0.27510  0.99630  Biso   1.000  H
  H23      1.0000 0.27510  0.10570  0.24630  Biso   1.000  H
  H24      1.0000 0.72490  0.89430  0.74630  Biso   1.000  H
  H25      1.0000 0.22910  0.77870  0.50770  Biso   1.000  H
  H26      1.0000 0.77090  0.22130  0.00770  Biso   1.000  H
  H27      1.0000 0.22130  0.22910  0.25770  Biso   1.000  H
  H28      1.0000 0.77870  0.77090  0.75770  Biso   1.000  H
  C25      1.0000 0.07670  0.72960  0.28180  Biso   1.000  C
  C26      1.0000 0.92330  0.27040  0.78180  Biso   1.000  C
  C27      1.0000 0.27040  0.07670  0.03180  Biso   1.000  C
  C28      1.0000 0.72960  0.92330  0.53180  Biso   1.000  C
  H29      1.0000 0.11260  0.65610  0.27100  Biso   1.000  H
  H30      1.0000 0.88740  0.34390  0.77100  Biso   1.000  H
  H31      1.0000 0.34390  0.11260  0.02100  Biso   1.000  H
  H32      1.0000 0.65610  0.88740  0.52100  Biso   1.000  H
  H33      1.0000 0.07150  0.77170  0.22620  Biso   1.000  H
  H34      1.0000 0.92850  0.22830  0.72620  Biso   1.000  H
  H35      1.0000 0.22830  0.07150  0.97620  Biso   1.000  H
  H36      1.0000 0.77170  0.92850  0.47620  Biso   1.000  H
  H37      1.0000 0.00070  0.71790  0.30590  Biso   1.000  H
  H38      1.0000 0.99930  0.28210  0.80590  Biso   1.000  H
  H39      1.0000 0.28210  0.00070  0.05590  Biso   1.000  H
  H40      1.0000 0.71790  0.99930  0.55590  Biso   1.000  H
  C29      1.0000 0.30760  0.83920  0.31340  Biso   1.000  C
  C30      1.0000 0.69240  0.16080  0.81340  Biso   1.000  C
  C31      1.0000 0.16080  0.30760  0.06340  Biso   1.000  C
  C32      1.0000 0.83920  0.69240  0.56340  Biso   1.000  C
  C33      1.0000 0.40360  0.84490  0.36590  Biso   1.000  C
  C34      1.0000 0.59640  0.15510  0.86590  Biso   1.000  C
  C35      1.0000 0.15510  0.40360  0.11590  Biso   1.000  C
  C36      1.0000 0.84490  0.59640  0.61590  Biso   1.000  C
  H41      1.0000 0.39720  0.83290  0.42780  Biso   1.000  H
  H42      1.0000 0.60280  0.16710  0.92780  Biso   1.000  H
  H43      1.0000 0.16710  0.39720  0.17780  Biso   1.000  H
  H44      1.0000 0.83290  0.60280  0.67780  Biso   1.000  H
  C37      1.0000 0.50870  0.86790  0.32940  Biso   1.000  C
  C38      1.0000 0.49130  0.13210  0.82940  Biso   1.000  C
  C39      1.0000 0.13210  0.50870  0.07940  Biso   1.000  C
  C40      1.0000 0.86790  0.49130  0.57940  Biso   1.000  C
  H45      1.0000 0.57310  0.86800  0.36680  Biso   1.000  H
  H46      1.0000 0.42690  0.13200  0.86680  Biso   1.000  H
  H47      1.0000 0.13200  0.57310  0.11680  Biso   1.000  H
  H48      1.0000 0.86800  0.42690  0.61680  Biso   1.000  H
  C41      1.0000 0.43060  0.88190  0.19130  Biso   1.000  C
  C42      1.0000 0.56940  0.11810  0.69130  Biso   1.000  C
  C43      1.0000 0.11810  0.43060  0.94130  Biso   1.000  C
  C44      1.0000 0.88190  0.56940  0.44130  Biso   1.000  C
  H49      1.0000 0.43880  0.89420  0.12960  Biso   1.000  H
  H50      1.0000 0.56120  0.10580  0.62960  Biso   1.000  H
  H51      1.0000 0.10580  0.43880  0.87960  Biso   1.000  H
  H52      1.0000 0.89420  0.56120  0.37960  Biso   1.000  H
  C45      1.0000 0.32430  0.85660  0.22390  Biso   1.000  C
  C46      1.0000 0.67570  0.14340  0.72390  Biso   1.000  C
  C47      1.0000 0.14340  0.32430  0.97390  Biso   1.000  C
  C48      1.0000 0.85660  0.67570  0.47390  Biso   1.000  C
  H53      1.0000 0.26210  0.85110  0.18450  Biso   1.000  H
  H54      1.0000 0.73790  0.14890  0.68450  Biso   1.000  H
  H55      1.0000 0.14890  0.26210  0.93450  Biso   1.000  H
  H56      1.0000 0.85110  0.73790  0.43450  Biso   1.000  H
  C49      1.0000 0.10460  0.40270  0.62220  Biso   1.000  C
  C50      1.0000 0.89540  0.59730  0.12220  Biso   1.000  C
  C51      1.0000 0.59730  0.10460  0.37220  Biso   1.000  C
  C52      1.0000 0.40270  0.89540  0.87220  Biso   1.000  C
  H57      1.0000 0.05980  0.42230  0.67200  Biso   1.000  H
  H58      1.0000 0.94020  0.57770  0.17200  Biso   1.000  H
  H59      1.0000 0.57770  0.05980  0.42200  Biso   1.000  H
  H60      1.0000 0.42230  0.94020  0.92200  Biso   1.000  H
  C53      1.0000 0.27160  0.42410  0.53790  Biso   1.000  C
  C54      1.0000 0.72840  0.57590  0.03790  Biso   1.000  C
  C55      1.0000 0.57590  0.27160  0.28790  Biso   1.000  C
  C56      1.0000 0.42410  0.72840  0.78790  Biso   1.000  C
  H61      1.0000 0.23150  0.36950  0.50070  Biso   1.000  H
  H62      1.0000 0.76850  0.63050  0.00070  Biso   1.000  H
  H63      1.0000 0.63050  0.23150  0.25070  Biso   1.000  H
  H64      1.0000 0.36950  0.76850  0.75070  Biso   1.000  H
  H65      1.0000 0.34180  0.39000  0.55970  Biso   1.000  H
  H66      1.0000 0.65820  0.61000  0.05970  Biso   1.000  H
  H67      1.0000 0.61000  0.34180  0.30970  Biso   1.000  H
  H68      1.0000 0.39000  0.65820  0.80970  Biso   1.000  H
  H69      1.0000 0.28950  0.49180  0.50330  Biso   1.000  H
  H70      1.0000 0.71050  0.50820  0.00330  Biso   1.000  H
  H71      1.0000 0.50820  0.28950  0.25330  Biso   1.000  H
  H72      1.0000 0.49180  0.71050  0.75330  Biso   1.000  H
  C57      1.0000 0.24400  0.53210  0.67830  Biso   1.000  C
  C58      1.0000 0.75600  0.46790  0.17830  Biso   1.000  C
  C59      1.0000 0.46790  0.24400  0.42830  Biso   1.000  C
  C60      1.0000 0.53210  0.75600  0.92830  Biso   1.000  C
  H73      1.0000 0.18590  0.54510  0.72340  Biso   1.000  H
  H74      1.0000 0.81410  0.45490  0.22340  Biso   1.000  H
  H75      1.0000 0.45490  0.18590  0.47340  Biso   1.000  H
  H76      1.0000 0.54510  0.81410  0.97340  Biso   1.000  H
  H77      1.0000 0.26400  0.60420  0.65040  Biso   1.000  H
  H78      1.0000 0.73600  0.39580  0.15040  Biso   1.000  H
  H79      1.0000 0.39580  0.26400  0.40040  Biso   1.000  H
  H80      1.0000 0.60420  0.73600  0.90040  Biso   1.000  H
  H81      1.0000 0.31130  0.49920  0.70600  Biso   1.000  H
  H82      1.0000 0.68870  0.50080  0.20600  Biso   1.000  H
  H83      1.0000 0.50080  0.31130  0.45600  Biso   1.000  H
  H84      1.0000 0.49920  0.68870  0.95600  Biso   1.000  H
  O5       1.0000 0.53000  0.63560  0.53930  Biso   1.000  O
  O6       1.0000 0.47000  0.36440  0.03930  Biso   1.000  O
  O7       1.0000 0.36440  0.53000  0.28930  Biso   1.000  O
  O8       1.0000 0.63560  0.47000  0.78930  Biso   1.000  O
  C61      1.0000 0.46310  0.58010  0.41320  Biso   1.000  C
  C62      1.0000 0.53690  0.41990  0.91320  Biso   1.000  C
  C63      1.0000 0.41990  0.46310  0.16320  Biso   1.000  C
  C64      1.0000 0.58010  0.53690  0.66320  Biso   1.000  C
  H85      1.0000 0.39830  0.63050  0.42600  Biso   1.000  H
  H86      1.0000 0.60170  0.36950  0.92600  Biso   1.000  H
  H87      1.0000 0.36950  0.39830  0.17600  Biso   1.000  H
  H88      1.0000 0.63050  0.60170  0.67600  Biso   1.000  H
  H89      1.0000 0.44490  0.50430  0.43720  Biso   1.000  H
  H90      1.0000 0.55510  0.49570  0.93720  Biso   1.000  H
  H91      1.0000 0.49570  0.44490  0.18720  Biso   1.000  H
  H92      1.0000 0.50430  0.55510  0.68720  Biso   1.000  H
  C65      1.0000 0.55660  0.62060  0.45480  Biso   1.000  C
  C66      1.0000 0.44340  0.37940  0.95480  Biso   1.000  C
  C67      1.0000 0.37940  0.55660  0.20480  Biso   1.000  C
  C68      1.0000 0.62060  0.44340  0.70480  Biso   1.000  C
  H93      1.0000 0.61980  0.56610  0.44930  Biso   1.000  H
  H94      1.0000 0.38020  0.43390  0.94930  Biso   1.000  H
  H95      1.0000 0.43390  0.61980  0.19930  Biso   1.000  H
  H96      1.0000 0.56610  0.38020  0.69930  Biso   1.000  H
  H97      1.0000 0.58020  0.69330  0.42800  Biso   1.000  H
  H98      1.0000 0.41980  0.30670  0.92800  Biso   1.000  H
  H99      1.0000 0.30670  0.58020  0.17800  Biso   1.000  H
  H100     1.0000 0.69330  0.41980  0.67800  Biso   1.000  H
  C69      1.0000 0.57170  0.52300  0.56990  Biso   1.000  C
  C70      1.0000 0.42830  0.47700  0.06990  Biso   1.000  C
  C71      1.0000 0.47700  0.57170  0.31990  Biso   1.000  C
  C72      1.0000 0.52300  0.42830  0.81990  Biso   1.000  C
  H101     1.0000 0.51750  0.46220  0.55460  Biso   1.000  H
  H102     1.0000 0.48250  0.53780  0.05460  Biso   1.000  H
  H103     1.0000 0.53780  0.51750  0.30460  Biso   1.000  H
  H104     1.0000 0.46220  0.48250  0.80460  Biso   1.000  H
  H105     1.0000 0.64630  0.50510  0.54370  Biso   1.000  H
  H106     1.0000 0.35370  0.49490  0.04370  Biso   1.000  H
  H107     1.0000 0.49490  0.64630  0.29370  Biso   1.000  H
  H108     1.0000 0.50510  0.35370  0.79370  Biso   1.000  H
