data_image0
_cell_length_a       11.835
_cell_length_b       11.835
_cell_length_c       15.5684
_cell_angle_alpha    90
_cell_angle_beta     90
_cell_angle_gamma    90

_symmetry_space_group_name_H-M    "P 1"
_symmetry_int_tables_number       1

loop_
  _symmetry_equiv_pos_as_xyz
  'x, y, z'

loop_
  _atom_site_label
  _atom_site_occupancy
  _atom_site_fract_x
  _atom_site_fract_y
  _atom_site_fract_z
  _atom_site_thermal_displace_type
  _atom_site_B_iso_or_equiv
  _atom_site_type_symbol
  Cu1      1.0000 0.95601  0.67207  0.79464  Biso   1.000  Cu
  Cu2      1.0000 0.04399  0.32793  0.29464  Biso   1.000  Cu
  Cu3      1.0000 0.32793  0.95601  0.54464  Biso   1.000  Cu
  Cu4      1.0000 0.67207  0.04399  0.04464  Biso   1.000  Cu
  Si1      1.0000 0.15706  0.18648  0.89591  Biso   1.000  Si
  Si2      1.0000 0.84294  0.81352  0.39591  Biso   1.000  Si
  Si3      1.0000 0.81352  0.15706  0.64591  Biso   1.000  Si
  Si4      1.0000 0.18648  0.84294  0.14591  Biso   1.000  Si
  Cl1      1.0000 0.04300  0.60130  0.91396  Biso   1.000  Cl
  Cl2      1.0000 0.95700  0.39870  0.41396  Biso   1.000  Cl
  Cl3      1.0000 0.39870  0.04300  0.66396  Biso   1.000  Cl
  Cl4      1.0000 0.60130  0.95700  0.16396  Biso   1.000  Cl
  Cl5      1.0000 0.80387  0.74704  0.72370  Biso   1.000  Cl
  Cl6      1.0000 0.19613  0.25296  0.22370  Biso   1.000  Cl
  Cl7      1.0000 0.25296  0.80387  0.47370  Biso   1.000  Cl
  Cl8      1.0000 0.74704  0.19613  0.97370  Biso   1.000  Cl
  S1       1.0000 0.17650  0.57330  0.68607  Biso   1.000  S
  S2       1.0000 0.82350  0.42670  0.18607  Biso   1.000  S
  S3       1.0000 0.42670  0.17650  0.43607  Biso   1.000  S
  S4       1.0000 0.57330  0.82350  0.93607  Biso   1.000  S
  O1       1.0000 0.08770  0.66500  0.69040  Biso   1.000  O
  O2       1.0000 0.91230  0.33500  0.19040  Biso   1.000  O
  O3       1.0000 0.33500  0.08770  0.44040  Biso   1.000  O
  O4       1.0000 0.66500  0.91230  0.94040  Biso   1.000  O
  N1       1.0000 0.01090  0.82900  0.82770  Biso   1.000  N
  N2       1.0000 0.98910  0.17100  0.32770  Biso   1.000  N
  N3       1.0000 0.17100  0.01090  0.57770  Biso   1.000  N
  N4       1.0000 0.82900  0.98910  0.07770  Biso   1.000  N
  N5       1.0000 0.51600  0.09340  0.00760  Biso   1.000  N
  N6       1.0000 0.48400  0.90660  0.50760  Biso   1.000  N
  N7       1.0000 0.90660  0.51600  0.75760  Biso   1.000  N
  N8       1.0000 0.09340  0.48400  0.25760  Biso   1.000  N
  C1       1.0000 0.94240  0.90980  0.85970  Biso   1.000  C
  C2       1.0000 0.05760  0.09020  0.35970  Biso   1.000  C
  C3       1.0000 0.09020  0.94240  0.60970  Biso   1.000  C
  C4       1.0000 0.90980  0.05760  0.10970  Biso   1.000  C
  H1       1.0000 0.86410  0.89420  0.86610  Biso   1.000  H
  H2       1.0000 0.13590  0.10580  0.36610  Biso   1.000  H
  H3       1.0000 0.10580  0.86410  0.61610  Biso   1.000  H
  H4       1.0000 0.89420  0.13590  0.11610  Biso   1.000  H
  C5       1.0000 0.98280  0.01440  0.88330  Biso   1.000  C
  C6       1.0000 0.01720  0.98560  0.38330  Biso   1.000  C
  C7       1.0000 0.98560  0.98280  0.63330  Biso   1.000  C
  C8       1.0000 0.01440  0.01720  0.13330  Biso   1.000  C
  H5       1.0000 0.93250  0.06820  0.90750  Biso   1.000  H
  H6       1.0000 0.06750  0.93180  0.40750  Biso   1.000  H
  H7       1.0000 0.93180  0.93250  0.65750  Biso   1.000  H
  H8       1.0000 0.06820  0.06750  0.15750  Biso   1.000  H
  C9       1.0000 0.09620  0.04290  0.87230  Biso   1.000  C
  C10      1.0000 0.90380  0.95710  0.37230  Biso   1.000  C
  C11      1.0000 0.95710  0.09620  0.62230  Biso   1.000  C
  C12      1.0000 0.04290  0.90380  0.12230  Biso   1.000  C
  C13      1.0000 0.16420  0.95810  0.83840  Biso   1.000  C
  C14      1.0000 0.83580  0.04190  0.33840  Biso   1.000  C
  C15      1.0000 0.04190  0.16420  0.58840  Biso   1.000  C
  C16      1.0000 0.95810  0.83580  0.08840  Biso   1.000  C
  H9       1.0000 0.24220  0.97200  0.82910  Biso   1.000  H
  H10      1.0000 0.75780  0.02800  0.32910  Biso   1.000  H
  H11      1.0000 0.02800  0.24220  0.57910  Biso   1.000  H
  H12      1.0000 0.97200  0.75780  0.07910  Biso   1.000  H
  C17      1.0000 0.11920  0.85370  0.81820  Biso   1.000  C
  C18      1.0000 0.88080  0.14630  0.31820  Biso   1.000  C
  C19      1.0000 0.14630  0.11920  0.56820  Biso   1.000  C
  C20      1.0000 0.85370  0.88080  0.06820  Biso   1.000  C
  H13      1.0000 0.16830  0.79700  0.79650  Biso   1.000  H
  H14      1.0000 0.83170  0.20300  0.29650  Biso   1.000  H
  H15      1.0000 0.20300  0.16830  0.54650  Biso   1.000  H
  H16      1.0000 0.79700  0.83170  0.04650  Biso   1.000  H
  C21      1.0000 0.07020  0.26630  0.97480  Biso   1.000  C
  C22      1.0000 0.92980  0.73370  0.47480  Biso   1.000  C
  C23      1.0000 0.73370  0.07020  0.72480  Biso   1.000  C
  C24      1.0000 0.26630  0.92980  0.22480  Biso   1.000  C
  H17      1.0000 0.99500  0.28010  0.95070  Biso   1.000  H
  H18      1.0000 0.00500  0.71990  0.45070  Biso   1.000  H
  H19      1.0000 0.71990  0.99500  0.70070  Biso   1.000  H
  H20      1.0000 0.28010  0.00500  0.20070  Biso   1.000  H
  H21      1.0000 0.10680  0.33860  0.98760  Biso   1.000  H
  H22      1.0000 0.89320  0.66140  0.48760  Biso   1.000  H
  H23      1.0000 0.66140  0.10680  0.73760  Biso   1.000  H
  H24      1.0000 0.33860  0.89320  0.23760  Biso   1.000  H
  H25      1.0000 0.06300  0.22220  0.02780  Biso   1.000  H
  H26      1.0000 0.93700  0.77780  0.52780  Biso   1.000  H
  H27      1.0000 0.77780  0.06300  0.77780  Biso   1.000  H
  H28      1.0000 0.22220  0.93700  0.27780  Biso   1.000  H
  C25      1.0000 0.17260  0.26210  0.79280  Biso   1.000  C
  C26      1.0000 0.82740  0.73790  0.29280  Biso   1.000  C
  C27      1.0000 0.73790  0.17260  0.54280  Biso   1.000  C
  C28      1.0000 0.26210  0.82740  0.04280  Biso   1.000  C
  H29      1.0000 0.09770  0.27680  0.76830  Biso   1.000  H
  H30      1.0000 0.90230  0.72320  0.26830  Biso   1.000  H
  H31      1.0000 0.72320  0.09770  0.51830  Biso   1.000  H
  H32      1.0000 0.27680  0.90230  0.01830  Biso   1.000  H
  H33      1.0000 0.21660  0.21570  0.75280  Biso   1.000  H
  H34      1.0000 0.78340  0.78430  0.25280  Biso   1.000  H
  H35      1.0000 0.78430  0.21660  0.50280  Biso   1.000  H
  H36      1.0000 0.21570  0.78340  0.00280  Biso   1.000  H
  H37      1.0000 0.21170  0.33400  0.80250  Biso   1.000  H
  H38      1.0000 0.78830  0.66600  0.30250  Biso   1.000  H
  H39      1.0000 0.66600  0.21170  0.55250  Biso   1.000  H
  H40      1.0000 0.33400  0.78830  0.05250  Biso   1.000  H
  C29      1.0000 0.30280  0.15940  0.94170  Biso   1.000  C
  C30      1.0000 0.69720  0.84060  0.44170  Biso   1.000  C
  C31      1.0000 0.84060  0.30280  0.69170  Biso   1.000  C
  C32      1.0000 0.15940  0.69720  0.19170  Biso   1.000  C
  C33      1.0000 0.39430  0.13350  0.88710  Biso   1.000  C
  C34      1.0000 0.60570  0.86650  0.38710  Biso   1.000  C
  C35      1.0000 0.86650  0.39430  0.63710  Biso   1.000  C
  C36      1.0000 0.13350  0.60570  0.13710  Biso   1.000  C
  H41      1.0000 0.38520  0.13580  0.82650  Biso   1.000  H
  H42      1.0000 0.61480  0.86420  0.32650  Biso   1.000  H
  H43      1.0000 0.86420  0.38520  0.57650  Biso   1.000  H
  H44      1.0000 0.13580  0.61480  0.07650  Biso   1.000  H
  C37      1.0000 0.49740  0.10470  0.92260  Biso   1.000  C
  C38      1.0000 0.50260  0.89530  0.42260  Biso   1.000  C
  C39      1.0000 0.89530  0.49740  0.67260  Biso   1.000  C
  C40      1.0000 0.10470  0.50260  0.17260  Biso   1.000  C
  H45      1.0000 0.55910  0.09220  0.88480  Biso   1.000  H
  H46      1.0000 0.44090  0.90780  0.38480  Biso   1.000  H
  H47      1.0000 0.90780  0.55910  0.63480  Biso   1.000  H
  H48      1.0000 0.09220  0.44090  0.13480  Biso   1.000  H
  C41      1.0000 0.43110  0.11920  0.05920  Biso   1.000  C
  C42      1.0000 0.56890  0.88080  0.55920  Biso   1.000  C
  C43      1.0000 0.88080  0.43110  0.80920  Biso   1.000  C
  C44      1.0000 0.11920  0.56890  0.30920  Biso   1.000  C
  H49      1.0000 0.44350  0.11640  0.11950  Biso   1.000  H
  H50      1.0000 0.55650  0.88360  0.61950  Biso   1.000  H
  H51      1.0000 0.88360  0.44350  0.86950  Biso   1.000  H
  H52      1.0000 0.11640  0.55650  0.36950  Biso   1.000  H
  C45      1.0000 0.32450  0.15020  0.02980  Biso   1.000  C
  C46      1.0000 0.67550  0.84980  0.52980  Biso   1.000  C
  C47      1.0000 0.84980  0.32450  0.77980  Biso   1.000  C
  C48      1.0000 0.15020  0.67550  0.27980  Biso   1.000  C
  H53      1.0000 0.26580  0.16530  0.06990  Biso   1.000  H
  H54      1.0000 0.73420  0.83470  0.56990  Biso   1.000  H
  H55      1.0000 0.83470  0.26580  0.81990  Biso   1.000  H
  H56      1.0000 0.16530  0.73420  0.31990  Biso   1.000  H
  C49      1.0000 0.30930  0.64510  0.68380  Biso   1.000  C
  C50      1.0000 0.69070  0.35490  0.18380  Biso   1.000  C
  C51      1.0000 0.35490  0.30930  0.43380  Biso   1.000  C
  C52      1.0000 0.64510  0.69070  0.93380  Biso   1.000  C
  H57      1.0000 0.32520  0.67700  0.74070  Biso   1.000  H
  H58      1.0000 0.67480  0.32300  0.24070  Biso   1.000  H
  H59      1.0000 0.32300  0.32520  0.49070  Biso   1.000  H
  H60      1.0000 0.67700  0.67480  0.99070  Biso   1.000  H
  H61      1.0000 0.30650  0.70610  0.64130  Biso   1.000  H
  H62      1.0000 0.69350  0.29390  0.14130  Biso   1.000  H
  H63      1.0000 0.29390  0.30650  0.39130  Biso   1.000  H
  H64      1.0000 0.70610  0.69350  0.89130  Biso   1.000  H
  H65      1.0000 0.36920  0.59170  0.66830  Biso   1.000  H
  H66      1.0000 0.63080  0.40830  0.16830  Biso   1.000  H
  H67      1.0000 0.40830  0.36920  0.41830  Biso   1.000  H
  H68      1.0000 0.59170  0.63080  0.91830  Biso   1.000  H
  C53      1.0000 0.17600  0.52610  0.57640  Biso   1.000  C
  C54      1.0000 0.82400  0.47390  0.07640  Biso   1.000  C
  C55      1.0000 0.47390  0.17600  0.32640  Biso   1.000  C
  C56      1.0000 0.52610  0.82400  0.82640  Biso   1.000  C
  H69      1.0000 0.10630  0.48390  0.56500  Biso   1.000  H
  H70      1.0000 0.89370  0.51610  0.06500  Biso   1.000  H
  H71      1.0000 0.51610  0.10630  0.31500  Biso   1.000  H
  H72      1.0000 0.48390  0.89370  0.81500  Biso   1.000  H
  H73      1.0000 0.24140  0.47710  0.56640  Biso   1.000  H
  H74      1.0000 0.75860  0.52290  0.06640  Biso   1.000  H
  H75      1.0000 0.52290  0.24140  0.31640  Biso   1.000  H
  H76      1.0000 0.47710  0.75860  0.81640  Biso   1.000  H
  H77      1.0000 0.18000  0.59160  0.53800  Biso   1.000  H
  H78      1.0000 0.82000  0.40840  0.03800  Biso   1.000  H
  H79      1.0000 0.40840  0.18000  0.28800  Biso   1.000  H
  H80      1.0000 0.59160  0.82000  0.78800  Biso   1.000  H
  S5       1.0000 0.40370  0.44680  0.90160  Biso   1.000  S
  S6       1.0000 0.59630  0.55320  0.40160  Biso   1.000  S
  S7       1.0000 0.55320  0.40370  0.65160  Biso   1.000  S
  S8       1.0000 0.44680  0.59630  0.15160  Biso   1.000  S
  O5       1.0000 0.53130  0.39990  0.95980  Biso   1.000  O
  O6       1.0000 0.46870  0.60010  0.45980  Biso   1.000  O
  O7       1.0000 0.60010  0.53130  0.70980  Biso   1.000  O
  O8       1.0000 0.39990  0.46870  0.20980  Biso   1.000  O
  C57      1.0000 0.30500  0.49100  0.98600  Biso   1.000  C
  C58      1.0000 0.69500  0.50900  0.48600  Biso   1.000  C
  C59      1.0000 0.50900  0.30500  0.73600  Biso   1.000  C
  C60      1.0000 0.49100  0.69500  0.23600  Biso   1.000  C
  H81      1.0000 0.30800  0.57320  0.99250  Biso   1.000  H
  H82      1.0000 0.69200  0.42680  0.49250  Biso   1.000  H
  H83      1.0000 0.42680  0.30800  0.74250  Biso   1.000  H
  H84      1.0000 0.57320  0.69200  0.24250  Biso   1.000  H
  H85      1.0000 0.32670  0.45520  0.04060  Biso   1.000  H
  H86      1.0000 0.67330  0.54480  0.54060  Biso   1.000  H
  H87      1.0000 0.54480  0.32670  0.79060  Biso   1.000  H
  H88      1.0000 0.45520  0.67330  0.29060  Biso   1.000  H
  H89      1.0000 0.22840  0.46780  0.97070  Biso   1.000  H
  H90      1.0000 0.77160  0.53220  0.47070  Biso   1.000  H
  H91      1.0000 0.53220  0.22840  0.72070  Biso   1.000  H
  H92      1.0000 0.46780  0.77160  0.22070  Biso   1.000  H
  C61      1.0000 0.42100  0.55410  0.86250  Biso   1.000  C
  C62      1.0000 0.57900  0.44590  0.36250  Biso   1.000  C
  C63      1.0000 0.44590  0.42100  0.61250  Biso   1.000  C
  C64      1.0000 0.55410  0.57900  0.11250  Biso   1.000  C
  H93      1.0000 0.35090  0.57760  0.83350  Biso   1.000  H
  H94      1.0000 0.64910  0.42240  0.33350  Biso   1.000  H
  H95      1.0000 0.42240  0.35090  0.58350  Biso   1.000  H
  H96      1.0000 0.57760  0.64910  0.08350  Biso   1.000  H
  H97      1.0000 0.48190  0.54890  0.82050  Biso   1.000  H
  H98      1.0000 0.51810  0.45110  0.32050  Biso   1.000  H
  H99      1.0000 0.45110  0.48190  0.57050  Biso   1.000  H
  H100     1.0000 0.54890  0.51810  0.07050  Biso   1.000  H
  H101     1.0000 0.44030  0.60970  0.90660  Biso   1.000  H
  H102     1.0000 0.55970  0.39030  0.40660  Biso   1.000  H
  H103     1.0000 0.39030  0.44030  0.65660  Biso   1.000  H
  H104     1.0000 0.60970  0.55970  0.15660  Biso   1.000  H
