data_image0
_cell_length_a       11.8358
_cell_length_b       11.8358
_cell_length_c       15.558
_cell_angle_alpha    90
_cell_angle_beta     90
_cell_angle_gamma    90

_symmetry_space_group_name_H-M    "P 1"
_symmetry_int_tables_number       1

loop_
  _symmetry_equiv_pos_as_xyz
  'x, y, z'

loop_
  _atom_site_label
  _atom_site_occupancy
  _atom_site_fract_x
  _atom_site_fract_y
  _atom_site_fract_z
  _atom_site_thermal_displace_type
  _atom_site_B_iso_or_equiv
  _atom_site_type_symbol
  Cu1      1.0000 0.95644  0.32739  0.45579  Biso   1.000  Cu
  Cu2      1.0000 0.04356  0.67261  0.95579  Biso   1.000  Cu
  Cu3      1.0000 0.67261  0.95644  0.70579  Biso   1.000  Cu
  Cu4      1.0000 0.32739  0.04356  0.20579  Biso   1.000  Cu
  Si1      1.0000 0.81291  0.84206  0.30718  Biso   1.000  Si
  Si2      1.0000 0.18709  0.15794  0.80718  Biso   1.000  Si
  Si3      1.0000 0.15794  0.81291  0.55718  Biso   1.000  Si
  Si4      1.0000 0.84206  0.18709  0.05718  Biso   1.000  Si
  Cl1      1.0000 0.04460  0.39837  0.57491  Biso   1.000  Cl
  Cl2      1.0000 0.95540  0.60163  0.07491  Biso   1.000  Cl
  Cl3      1.0000 0.60163  0.04460  0.82491  Biso   1.000  Cl
  Cl4      1.0000 0.39837  0.95540  0.32491  Biso   1.000  Cl
  Cl5      1.0000 0.80385  0.25200  0.38527  Biso   1.000  Cl
  Cl6      1.0000 0.19615  0.74800  0.88527  Biso   1.000  Cl
  Cl7      1.0000 0.74800  0.80385  0.63527  Biso   1.000  Cl
  Cl8      1.0000 0.25200  0.19615  0.13527  Biso   1.000  Cl
  S1       1.0000 0.17580  0.42690  0.34716  Biso   1.000  S
  S2       1.0000 0.82420  0.57310  0.84716  Biso   1.000  S
  S3       1.0000 0.57310  0.17580  0.59716  Biso   1.000  S
  S4       1.0000 0.42690  0.82420  0.09716  Biso   1.000  S
  O1       1.0000 0.08700  0.33460  0.35140  Biso   1.000  O
  O2       1.0000 0.91300  0.66540  0.85140  Biso   1.000  O
  O3       1.0000 0.66540  0.08700  0.60140  Biso   1.000  O
  O4       1.0000 0.33460  0.91300  0.10140  Biso   1.000  O
  N1       1.0000 0.90630  0.48320  0.41770  Biso   1.000  N
  N2       1.0000 0.09370  0.51680  0.91770  Biso   1.000  N
  N3       1.0000 0.51680  0.90630  0.66770  Biso   1.000  N
  N4       1.0000 0.48320  0.09370  0.16770  Biso   1.000  N
  N5       1.0000 0.17270  0.98770  0.23910  Biso   1.000  N
  N6       1.0000 0.82730  0.01230  0.73910  Biso   1.000  N
  N7       1.0000 0.01230  0.17270  0.48910  Biso   1.000  N
  N8       1.0000 0.98770  0.82730  0.98910  Biso   1.000  N
  C1       1.0000 0.89460  0.50260  0.33370  Biso   1.000  C
  C2       1.0000 0.10540  0.49740  0.83370  Biso   1.000  C
  C3       1.0000 0.49740  0.89460  0.58370  Biso   1.000  C
  C4       1.0000 0.50260  0.10540  0.08370  Biso   1.000  C
  H1       1.0000 0.90660  0.44120  0.29550  Biso   1.000  H
  H2       1.0000 0.09340  0.55880  0.79550  Biso   1.000  H
  H3       1.0000 0.55880  0.90660  0.54550  Biso   1.000  H
  H4       1.0000 0.44120  0.09340  0.04550  Biso   1.000  H
  C5       1.0000 0.86610  0.60660  0.29830  Biso   1.000  C
  C6       1.0000 0.13390  0.39340  0.79830  Biso   1.000  C
  C7       1.0000 0.39340  0.86610  0.54830  Biso   1.000  C
  C8       1.0000 0.60660  0.13390  0.04830  Biso   1.000  C
  H5       1.0000 0.86330  0.61570  0.23770  Biso   1.000  H
  H6       1.0000 0.13670  0.38430  0.73770  Biso   1.000  H
  H7       1.0000 0.38430  0.86330  0.48770  Biso   1.000  H
  H8       1.0000 0.61570  0.13670  0.98770  Biso   1.000  H
  C9       1.0000 0.84120  0.69830  0.35270  Biso   1.000  C
  C10      1.0000 0.15880  0.30170  0.85270  Biso   1.000  C
  C11      1.0000 0.30170  0.84120  0.60270  Biso   1.000  C
  C12      1.0000 0.69830  0.15880  0.10270  Biso   1.000  C
  C13      1.0000 0.84950  0.67490  0.44100  Biso   1.000  C
  C14      1.0000 0.15050  0.32510  0.94100  Biso   1.000  C
  C15      1.0000 0.32510  0.84950  0.69100  Biso   1.000  C
  C16      1.0000 0.67490  0.15050  0.19100  Biso   1.000  C
  H9       1.0000 0.83310  0.73280  0.48140  Biso   1.000  H
  H10      1.0000 0.16690  0.26720  0.98140  Biso   1.000  H
  H11      1.0000 0.26720  0.83310  0.73140  Biso   1.000  H
  H12      1.0000 0.73280  0.16690  0.23140  Biso   1.000  H
  C17      1.0000 0.88090  0.56930  0.47010  Biso   1.000  C
  C18      1.0000 0.11910  0.43070  0.97010  Biso   1.000  C
  C19      1.0000 0.43070  0.88090  0.72010  Biso   1.000  C
  C20      1.0000 0.56930  0.11910  0.22010  Biso   1.000  C
  H13      1.0000 0.88470  0.55710  0.53030  Biso   1.000  H
  H14      1.0000 0.11530  0.44290  0.03030  Biso   1.000  H
  H15      1.0000 0.44290  0.88470  0.78030  Biso   1.000  H
  H16      1.0000 0.55710  0.11530  0.28030  Biso   1.000  H
  C21      1.0000 0.73340  0.93070  0.38530  Biso   1.000  C
  C22      1.0000 0.26660  0.06930  0.88530  Biso   1.000  C
  C23      1.0000 0.06930  0.73340  0.63530  Biso   1.000  C
  C24      1.0000 0.93070  0.26660  0.13530  Biso   1.000  C
  H17      1.0000 0.65920  0.89670  0.39610  Biso   1.000  H
  H18      1.0000 0.34080  0.10330  0.89610  Biso   1.000  H
  H19      1.0000 0.10330  0.65920  0.64610  Biso   1.000  H
  H20      1.0000 0.89670  0.34080  0.14610  Biso   1.000  H
  H21      1.0000 0.72330  0.00670  0.36160  Biso   1.000  H
  H22      1.0000 0.27670  0.99330  0.86160  Biso   1.000  H
  H23      1.0000 0.99330  0.72330  0.61160  Biso   1.000  H
  H24      1.0000 0.00670  0.27670  0.11160  Biso   1.000  H
  H25      1.0000 0.77570  0.93540  0.43930  Biso   1.000  H
  H26      1.0000 0.22430  0.06460  0.93930  Biso   1.000  H
  H27      1.0000 0.06460  0.77570  0.68930  Biso   1.000  H
  H28      1.0000 0.93540  0.22430  0.18930  Biso   1.000  H
  C25      1.0000 0.73760  0.82830  0.20400  Biso   1.000  C
  C26      1.0000 0.26240  0.17170  0.70400  Biso   1.000  C
  C27      1.0000 0.17170  0.73760  0.45400  Biso   1.000  C
  C28      1.0000 0.82830  0.26240  0.95400  Biso   1.000  C
  H29      1.0000 0.66210  0.79730  0.21420  Biso   1.000  H
  H30      1.0000 0.33790  0.20270  0.71420  Biso   1.000  H
  H31      1.0000 0.20270  0.66210  0.46420  Biso   1.000  H
  H32      1.0000 0.79730  0.33790  0.96420  Biso   1.000  H
  H33      1.0000 0.77990  0.77760  0.16600  Biso   1.000  H
  H34      1.0000 0.22010  0.22240  0.66600  Biso   1.000  H
  H35      1.0000 0.22240  0.77990  0.41600  Biso   1.000  H
  H36      1.0000 0.77760  0.22010  0.91600  Biso   1.000  H
  H37      1.0000 0.73090  0.90280  0.17700  Biso   1.000  H
  H38      1.0000 0.26910  0.09720  0.67700  Biso   1.000  H
  H39      1.0000 0.09720  0.73090  0.42700  Biso   1.000  H
  H40      1.0000 0.90280  0.26910  0.92700  Biso   1.000  H
  C29      1.0000 0.95650  0.90270  0.28330  Biso   1.000  C
  C30      1.0000 0.04350  0.09730  0.78330  Biso   1.000  C
  C31      1.0000 0.09730  0.95650  0.53330  Biso   1.000  C
  C32      1.0000 0.90270  0.04350  0.03330  Biso   1.000  C
  C33      1.0000 0.04140  0.83540  0.24850  Biso   1.000  C
  C34      1.0000 0.95860  0.16460  0.74850  Biso   1.000  C
  C35      1.0000 0.16460  0.04140  0.49850  Biso   1.000  C
  C36      1.0000 0.83540  0.95860  0.99850  Biso   1.000  C
  H41      1.0000 0.02750  0.75760  0.23790  Biso   1.000  H
  H42      1.0000 0.97250  0.24240  0.73790  Biso   1.000  H
  H43      1.0000 0.24240  0.02750  0.48790  Biso   1.000  H
  H44      1.0000 0.75760  0.97250  0.98790  Biso   1.000  H
  C37      1.0000 0.14550  0.88100  0.22920  Biso   1.000  C
  C38      1.0000 0.85450  0.11900  0.72920  Biso   1.000  C
  C39      1.0000 0.11900  0.14550  0.47920  Biso   1.000  C
  C40      1.0000 0.88100  0.85450  0.97920  Biso   1.000  C
  H45      1.0000 0.20170  0.83160  0.20710  Biso   1.000  H
  H46      1.0000 0.79830  0.16840  0.70710  Biso   1.000  H
  H47      1.0000 0.16840  0.20170  0.45710  Biso   1.000  H
  H48      1.0000 0.83160  0.79830  0.95710  Biso   1.000  H
  C41      1.0000 0.09110  0.05770  0.26990  Biso   1.000  C
  C42      1.0000 0.90890  0.94230  0.76990  Biso   1.000  C
  C43      1.0000 0.94230  0.09110  0.51990  Biso   1.000  C
  C44      1.0000 0.05770  0.90890  0.01990  Biso   1.000  C
  H49      1.0000 0.10640  0.13620  0.27510  Biso   1.000  H
  H50      1.0000 0.89360  0.86380  0.77510  Biso   1.000  H
  H51      1.0000 0.86380  0.10640  0.52510  Biso   1.000  H
  H52      1.0000 0.13620  0.89360  0.02510  Biso   1.000  H
  C45      1.0000 0.98440  0.01610  0.29420  Biso   1.000  C
  C46      1.0000 0.01560  0.98390  0.79420  Biso   1.000  C
  C47      1.0000 0.98390  0.98440  0.54420  Biso   1.000  C
  C48      1.0000 0.01610  0.01560  0.04420  Biso   1.000  C
  H53      1.0000 0.93050  0.06620  0.31850  Biso   1.000  H
  H54      1.0000 0.06950  0.93380  0.81850  Biso   1.000  H
  H55      1.0000 0.93380  0.93050  0.56850  Biso   1.000  H
  H56      1.0000 0.06620  0.06950  0.06850  Biso   1.000  H
  C49      1.0000 0.30810  0.35410  0.34370  Biso   1.000  C
  C50      1.0000 0.69190  0.64590  0.84370  Biso   1.000  C
  C51      1.0000 0.64590  0.30810  0.59370  Biso   1.000  C
  C52      1.0000 0.35410  0.69190  0.09370  Biso   1.000  C
  H57      1.0000 0.32460  0.32220  0.40050  Biso   1.000  H
  H58      1.0000 0.67540  0.67780  0.90050  Biso   1.000  H
  H59      1.0000 0.67780  0.32460  0.65050  Biso   1.000  H
  H60      1.0000 0.32220  0.67540  0.15050  Biso   1.000  H
  H61      1.0000 0.36800  0.40720  0.32750  Biso   1.000  H
  H62      1.0000 0.63200  0.59280  0.82750  Biso   1.000  H
  H63      1.0000 0.59280  0.36800  0.57750  Biso   1.000  H
  H64      1.0000 0.40720  0.63200  0.07750  Biso   1.000  H
  H65      1.0000 0.30410  0.29310  0.30120  Biso   1.000  H
  H66      1.0000 0.69590  0.70690  0.80120  Biso   1.000  H
  H67      1.0000 0.70690  0.30410  0.55120  Biso   1.000  H
  H68      1.0000 0.29310  0.69590  0.05120  Biso   1.000  H
  C53      1.0000 0.17400  0.47450  0.23820  Biso   1.000  C
  C54      1.0000 0.82600  0.52550  0.73820  Biso   1.000  C
  C55      1.0000 0.52550  0.17400  0.48820  Biso   1.000  C
  C56      1.0000 0.47450  0.82600  0.98820  Biso   1.000  C
  H69      1.0000 0.10430  0.51690  0.22740  Biso   1.000  H
  H70      1.0000 0.89570  0.48310  0.72740  Biso   1.000  H
  H71      1.0000 0.48310  0.10430  0.47740  Biso   1.000  H
  H72      1.0000 0.51690  0.89570  0.97740  Biso   1.000  H
  H73      1.0000 0.17750  0.40930  0.19950  Biso   1.000  H
  H74      1.0000 0.82250  0.59070  0.69950  Biso   1.000  H
  H75      1.0000 0.59070  0.17750  0.44950  Biso   1.000  H
  H76      1.0000 0.40930  0.82250  0.94950  Biso   1.000  H
  H77      1.0000 0.23940  0.52360  0.22790  Biso   1.000  H
  H78      1.0000 0.76060  0.47640  0.72790  Biso   1.000  H
  H79      1.0000 0.47640  0.23940  0.47790  Biso   1.000  H
  H80      1.0000 0.52360  0.76060  0.97790  Biso   1.000  H
  S5       1.0000 0.55330  0.59360  0.31230  Biso   1.000  S
  S6       1.0000 0.44670  0.40640  0.81230  Biso   1.000  S
  S7       1.0000 0.40640  0.55330  0.56230  Biso   1.000  S
  S8       1.0000 0.59360  0.44670  0.06230  Biso   1.000  S
  O5       1.0000 0.59820  0.46510  0.37050  Biso   1.000  O
  O6       1.0000 0.40180  0.53490  0.87050  Biso   1.000  O
  O7       1.0000 0.53490  0.59820  0.62050  Biso   1.000  O
  O8       1.0000 0.46510  0.40180  0.12050  Biso   1.000  O
  C57      1.0000 0.51000  0.69600  0.40100  Biso   1.000  C
  C58      1.0000 0.49000  0.30400  0.90100  Biso   1.000  C
  C59      1.0000 0.30400  0.51000  0.65100  Biso   1.000  C
  C60      1.0000 0.69600  0.49000  0.15100  Biso   1.000  C
  H81      1.0000 0.48500  0.76730  0.37570  Biso   1.000  H
  H82      1.0000 0.51500  0.23270  0.87570  Biso   1.000  H
  H83      1.0000 0.23270  0.48500  0.62570  Biso   1.000  H
  H84      1.0000 0.76730  0.51500  0.12570  Biso   1.000  H
  H85      1.0000 0.57500  0.71020  0.43900  Biso   1.000  H
  H86      1.0000 0.42500  0.28980  0.93900  Biso   1.000  H
  H87      1.0000 0.28980  0.57500  0.68900  Biso   1.000  H
  H88      1.0000 0.71020  0.42500  0.18900  Biso   1.000  H
  H89      1.0000 0.44840  0.66300  0.43490  Biso   1.000  H
  H90      1.0000 0.55160  0.33700  0.93490  Biso   1.000  H
  H91      1.0000 0.33700  0.44840  0.68490  Biso   1.000  H
  H92      1.0000 0.66300  0.55160  0.18490  Biso   1.000  H
  C61      1.0000 0.44480  0.59100  0.27460  Biso   1.000  C
  C62      1.0000 0.55520  0.40900  0.77460  Biso   1.000  C
  C63      1.0000 0.40900  0.44480  0.52460  Biso   1.000  C
  C64      1.0000 0.59100  0.55520  0.02460  Biso   1.000  C
  H93      1.0000 0.42850  0.66390  0.24780  Biso   1.000  H
  H94      1.0000 0.57150  0.33610  0.74780  Biso   1.000  H
  H95      1.0000 0.33610  0.42850  0.49780  Biso   1.000  H
  H96      1.0000 0.66390  0.57150  0.99780  Biso   1.000  H
  H97      1.0000 0.38820  0.57490  0.31890  Biso   1.000  H
  H98      1.0000 0.61180  0.42510  0.81890  Biso   1.000  H
  H99      1.0000 0.42510  0.38820  0.56890  Biso   1.000  H
  H100     1.0000 0.57490  0.61180  0.06890  Biso   1.000  H
  H101     1.0000 0.44240  0.53130  0.23070  Biso   1.000  H
  H102     1.0000 0.55760  0.46870  0.73070  Biso   1.000  H
  H103     1.0000 0.46870  0.44240  0.48070  Biso   1.000  H
  H104     1.0000 0.53130  0.55760  0.98070  Biso   1.000  H
