data_image0
_cell_length_a       31.7536
_cell_length_b       9.8492
_cell_length_c       14.4865
_cell_angle_alpha    90
_cell_angle_beta     113.222
_cell_angle_gamma    90

_symmetry_space_group_name_H-M    "P 1"
_symmetry_int_tables_number       1

loop_
  _symmetry_equiv_pos_as_xyz
  'x, y, z'

loop_
  _atom_site_label
  _atom_site_occupancy
  _atom_site_fract_x
  _atom_site_fract_y
  _atom_site_fract_z
  _atom_site_thermal_displace_type
  _atom_site_B_iso_or_equiv
  _atom_site_type_symbol
  Cu1      1.0000 0.17248  0.45882  0.30778  Biso   1.000  Cu
  Cu2      1.0000 0.82752  0.45882  0.19222  Biso   1.000  Cu
  Cu3      1.0000 0.67248  0.95882  0.30778  Biso   1.000  Cu
  Cu4      1.0000 0.32752  0.95882  0.19222  Biso   1.000  Cu
  Cu5      1.0000 0.82752  0.54118  0.69222  Biso   1.000  Cu
  Cu6      1.0000 0.17248  0.54118  0.80778  Biso   1.000  Cu
  Cu7      1.0000 0.32752  0.04118  0.69222  Biso   1.000  Cu
  Cu8      1.0000 0.67248  0.04118  0.80778  Biso   1.000  Cu
  N1       1.0000 0.07823  0.72870  0.46195  Biso   1.000  N
  N2       1.0000 0.92177  0.72870  0.03805  Biso   1.000  N
  N3       1.0000 0.57823  0.22870  0.46195  Biso   1.000  N
  N4       1.0000 0.42177  0.22870  0.03805  Biso   1.000  N
  N5       1.0000 0.92177  0.27130  0.53805  Biso   1.000  N
  N6       1.0000 0.07823  0.27130  0.96195  Biso   1.000  N
  N7       1.0000 0.42177  0.77130  0.53805  Biso   1.000  N
  N8       1.0000 0.57823  0.77130  0.96195  Biso   1.000  N
  H1       1.0000 0.10210  0.67810  0.48820  Biso   1.000  H
  H2       1.0000 0.89790  0.67810  0.01180  Biso   1.000  H
  H3       1.0000 0.60210  0.17810  0.48820  Biso   1.000  H
  H4       1.0000 0.39790  0.17810  0.01180  Biso   1.000  H
  H5       1.0000 0.89790  0.32190  0.51180  Biso   1.000  H
  H6       1.0000 0.10210  0.32190  0.98820  Biso   1.000  H
  H7       1.0000 0.39790  0.82190  0.51180  Biso   1.000  H
  H8       1.0000 0.60210  0.82190  0.98820  Biso   1.000  H
  N9       1.0000 0.20508  0.27880  0.35164  Biso   1.000  N
  N10      1.0000 0.79492  0.27880  0.14836  Biso   1.000  N
  N11      1.0000 0.70508  0.77880  0.35164  Biso   1.000  N
  N12      1.0000 0.29492  0.77880  0.14836  Biso   1.000  N
  N13      1.0000 0.79492  0.72120  0.64836  Biso   1.000  N
  N14      1.0000 0.20508  0.72120  0.85164  Biso   1.000  N
  N15      1.0000 0.29492  0.22120  0.64836  Biso   1.000  N
  N16      1.0000 0.70508  0.22120  0.85164  Biso   1.000  N
  N17      1.0000 0.23714  0.52230  0.34707  Biso   1.000  N
  N18      1.0000 0.76286  0.52230  0.15293  Biso   1.000  N
  N19      1.0000 0.73714  0.02230  0.34707  Biso   1.000  N
  N20      1.0000 0.26286  0.02230  0.15293  Biso   1.000  N
  N21      1.0000 0.76286  0.47770  0.65293  Biso   1.000  N
  N22      1.0000 0.23714  0.47770  0.84707  Biso   1.000  N
  N23      1.0000 0.26286  0.97770  0.65293  Biso   1.000  N
  N24      1.0000 0.73714  0.97770  0.84707  Biso   1.000  N
  O1       1.0000 0.11136  0.62230  0.75794  Biso   1.000  O
  O2       1.0000 0.88864  0.62230  0.74206  Biso   1.000  O
  O3       1.0000 0.61136  0.12230  0.75794  Biso   1.000  O
  O4       1.0000 0.38864  0.12230  0.74206  Biso   1.000  O
  O5       1.0000 0.88864  0.37770  0.24206  Biso   1.000  O
  O6       1.0000 0.11136  0.37770  0.25794  Biso   1.000  O
  O7       1.0000 0.38864  0.87770  0.24206  Biso   1.000  O
  O8       1.0000 0.61136  0.87770  0.25794  Biso   1.000  O
  O9       1.0000 0.14757  0.64130  0.27927  Biso   1.000  O
  O10      1.0000 0.85243  0.64130  0.22073  Biso   1.000  O
  O11      1.0000 0.64757  0.14130  0.27927  Biso   1.000  O
  O12      1.0000 0.35243  0.14130  0.22073  Biso   1.000  O
  O13      1.0000 0.85243  0.35870  0.72073  Biso   1.000  O
  O14      1.0000 0.14757  0.35870  0.77927  Biso   1.000  O
  O15      1.0000 0.35243  0.85870  0.72073  Biso   1.000  O
  O16      1.0000 0.64757  0.85870  0.77927  Biso   1.000  O
  O17      1.0000 0.14659  0.60250  0.42821  Biso   1.000  O
  O18      1.0000 0.85341  0.60250  0.07179  Biso   1.000  O
  O19      1.0000 0.64659  0.10250  0.42821  Biso   1.000  O
  O20      1.0000 0.35341  0.10250  0.07179  Biso   1.000  O
  O21      1.0000 0.85341  0.39750  0.57179  Biso   1.000  O
  O22      1.0000 0.14659  0.39750  0.92821  Biso   1.000  O
  O23      1.0000 0.35341  0.89750  0.57179  Biso   1.000  O
  O24      1.0000 0.64659  0.89750  0.92821  Biso   1.000  O
  O25      1.0000 0.13160  0.59390  0.63028  Biso   1.000  O
  O26      1.0000 0.86840  0.59390  0.86972  Biso   1.000  O
  O27      1.0000 0.63160  0.09390  0.63028  Biso   1.000  O
  O28      1.0000 0.36840  0.09390  0.86972  Biso   1.000  O
  O29      1.0000 0.86840  0.40610  0.36972  Biso   1.000  O
  O30      1.0000 0.13160  0.40610  0.13028  Biso   1.000  O
  O31      1.0000 0.36840  0.90610  0.36972  Biso   1.000  O
  O32      1.0000 0.63160  0.90610  0.13028  Biso   1.000  O
  C1       1.0000 0.13485  0.67100  0.35010  Biso   1.000  C
  C2       1.0000 0.86515  0.67100  0.14990  Biso   1.000  C
  C3       1.0000 0.63485  0.17100  0.35010  Biso   1.000  C
  C4       1.0000 0.36515  0.17100  0.14990  Biso   1.000  C
  C5       1.0000 0.86515  0.32900  0.64990  Biso   1.000  C
  C6       1.0000 0.13485  0.32900  0.85010  Biso   1.000  C
  C7       1.0000 0.36515  0.82900  0.64990  Biso   1.000  C
  C8       1.0000 0.63485  0.82900  0.85010  Biso   1.000  C
  C9       1.0000 0.10555  0.79460  0.33440  Biso   1.000  C
  C10      1.0000 0.89445  0.79460  0.16560  Biso   1.000  C
  C11      1.0000 0.60555  0.29460  0.33440  Biso   1.000  C
  C12      1.0000 0.39445  0.29460  0.16560  Biso   1.000  C
  C13      1.0000 0.89445  0.20540  0.66560  Biso   1.000  C
  C14      1.0000 0.10555  0.20540  0.83440  Biso   1.000  C
  C15      1.0000 0.39445  0.70540  0.66560  Biso   1.000  C
  C16      1.0000 0.60555  0.70540  0.83440  Biso   1.000  C
  C17      1.0000 0.10490  0.88840  0.26220  Biso   1.000  C
  C18      1.0000 0.89510  0.88840  0.23780  Biso   1.000  C
  C19      1.0000 0.60490  0.38840  0.26220  Biso   1.000  C
  C20      1.0000 0.39510  0.38840  0.23780  Biso   1.000  C
  C21      1.0000 0.89510  0.11160  0.73780  Biso   1.000  C
  C22      1.0000 0.10490  0.11160  0.76220  Biso   1.000  C
  C23      1.0000 0.39510  0.61160  0.73780  Biso   1.000  C
  C24      1.0000 0.60490  0.61160  0.76220  Biso   1.000  C
  H9       1.0000 0.12170  0.87030  0.22370  Biso   1.000  H
  H10      1.0000 0.87830  0.87030  0.27630  Biso   1.000  H
  H11      1.0000 0.62170  0.37030  0.22370  Biso   1.000  H
  H12      1.0000 0.37830  0.37030  0.27630  Biso   1.000  H
  H13      1.0000 0.87830  0.12970  0.77630  Biso   1.000  H
  H14      1.0000 0.12170  0.12970  0.72370  Biso   1.000  H
  H15      1.0000 0.37830  0.62970  0.77630  Biso   1.000  H
  H16      1.0000 0.62170  0.62970  0.72370  Biso   1.000  H
  C25      1.0000 0.08029  0.00710  0.24580  Biso   1.000  C
  C26      1.0000 0.91971  0.00710  0.25420  Biso   1.000  C
  C27      1.0000 0.58029  0.50710  0.24580  Biso   1.000  C
  C28      1.0000 0.41971  0.50710  0.25420  Biso   1.000  C
  C29      1.0000 0.91971  0.99290  0.75420  Biso   1.000  C
  C30      1.0000 0.08029  0.99290  0.74580  Biso   1.000  C
  C31      1.0000 0.41971  0.49290  0.75420  Biso   1.000  C
  C32      1.0000 0.58029  0.49290  0.74580  Biso   1.000  C
  H17      1.0000 0.07980  0.06700  0.19570  Biso   1.000  H
  H18      1.0000 0.92020  0.06700  0.30430  Biso   1.000  H
  H19      1.0000 0.57980  0.56700  0.19570  Biso   1.000  H
  H20      1.0000 0.42020  0.56700  0.30430  Biso   1.000  H
  H21      1.0000 0.92020  0.93300  0.80430  Biso   1.000  H
  H22      1.0000 0.07980  0.93300  0.69570  Biso   1.000  H
  H23      1.0000 0.42020  0.43300  0.80430  Biso   1.000  H
  H24      1.0000 0.57980  0.43300  0.69570  Biso   1.000  H
  C33      1.0000 0.05662  0.03540  0.30430  Biso   1.000  C
  C34      1.0000 0.94338  0.03540  0.19570  Biso   1.000  C
  C35      1.0000 0.55662  0.53540  0.30430  Biso   1.000  C
  C36      1.0000 0.44338  0.53540  0.19570  Biso   1.000  C
  C37      1.0000 0.94338  0.96460  0.69570  Biso   1.000  C
  C38      1.0000 0.05662  0.96460  0.80430  Biso   1.000  C
  C39      1.0000 0.44338  0.46460  0.69570  Biso   1.000  C
  C40      1.0000 0.55662  0.46460  0.80430  Biso   1.000  C
  H25      1.0000 0.04140  0.11790  0.29670  Biso   1.000  H
  H26      1.0000 0.95860  0.11790  0.20330  Biso   1.000  H
  H27      1.0000 0.54140  0.61790  0.29670  Biso   1.000  H
  H28      1.0000 0.45860  0.61790  0.20330  Biso   1.000  H
  H29      1.0000 0.95860  0.88210  0.70330  Biso   1.000  H
  H30      1.0000 0.04140  0.88210  0.79670  Biso   1.000  H
  H31      1.0000 0.45860  0.38210  0.70330  Biso   1.000  H
  H32      1.0000 0.54140  0.38210  0.79670  Biso   1.000  H
  C41      1.0000 0.05500  0.94370  0.37440  Biso   1.000  C
  C42      1.0000 0.94500  0.94370  0.12560  Biso   1.000  C
  C43      1.0000 0.55500  0.44370  0.37440  Biso   1.000  C
  C44      1.0000 0.44500  0.44370  0.12560  Biso   1.000  C
  C45      1.0000 0.94500  0.05630  0.62560  Biso   1.000  C
  C46      1.0000 0.05500  0.05630  0.87440  Biso   1.000  C
  C47      1.0000 0.44500  0.55630  0.62560  Biso   1.000  C
  C48      1.0000 0.55500  0.55630  0.87440  Biso   1.000  C
  H33      1.0000 0.03790  0.96410  0.41200  Biso   1.000  H
  H34      1.0000 0.96210  0.96410  0.08800  Biso   1.000  H
  H35      1.0000 0.53790  0.46410  0.41200  Biso   1.000  H
  H36      1.0000 0.46210  0.46410  0.08800  Biso   1.000  H
  H37      1.0000 0.96210  0.03590  0.58800  Biso   1.000  H
  H38      1.0000 0.03790  0.03590  0.91200  Biso   1.000  H
  H39      1.0000 0.46210  0.53590  0.58800  Biso   1.000  H
  H40      1.0000 0.53790  0.53590  0.91200  Biso   1.000  H
  C49      1.0000 0.07871  0.81970  0.39020  Biso   1.000  C
  C50      1.0000 0.92129  0.81970  0.10980  Biso   1.000  C
  C51      1.0000 0.57871  0.31970  0.39020  Biso   1.000  C
  C52      1.0000 0.42129  0.31970  0.10980  Biso   1.000  C
  C53      1.0000 0.92129  0.18030  0.60980  Biso   1.000  C
  C54      1.0000 0.07871  0.18030  0.89020  Biso   1.000  C
  C55      1.0000 0.42129  0.68030  0.60980  Biso   1.000  C
  C56      1.0000 0.57871  0.68030  0.89020  Biso   1.000  C
  C57      1.0000 0.04358  0.70900  0.49720  Biso   1.000  C
  C58      1.0000 0.95642  0.70900  0.00280  Biso   1.000  C
  C59      1.0000 0.54358  0.20900  0.49720  Biso   1.000  C
  C60      1.0000 0.45642  0.20900  0.00280  Biso   1.000  C
  C61      1.0000 0.95642  0.29100  0.50280  Biso   1.000  C
  C62      1.0000 0.04358  0.29100  0.99720  Biso   1.000  C
  C63      1.0000 0.45642  0.79100  0.50280  Biso   1.000  C
  C64      1.0000 0.54358  0.79100  0.99720  Biso   1.000  C
  C65      1.0000 0.99765  0.73130  0.43510  Biso   1.000  C
  C66      1.0000 0.00235  0.73130  0.06490  Biso   1.000  C
  C67      1.0000 0.49765  0.23130  0.43510  Biso   1.000  C
  C68      1.0000 0.50235  0.23130  0.06490  Biso   1.000  C
  C69      1.0000 0.00235  0.26870  0.56490  Biso   1.000  C
  C70      1.0000 0.99765  0.26870  0.93510  Biso   1.000  C
  C71      1.0000 0.50235  0.76870  0.56490  Biso   1.000  C
  C72      1.0000 0.49765  0.76870  0.93510  Biso   1.000  C
  H41      1.0000 0.99010  0.76590  0.37080  Biso   1.000  H
  H42      1.0000 0.00990  0.76590  0.12920  Biso   1.000  H
  H43      1.0000 0.49010  0.26590  0.37080  Biso   1.000  H
  H44      1.0000 0.50990  0.26590  0.12920  Biso   1.000  H
  H45      1.0000 0.00990  0.23410  0.62920  Biso   1.000  H
  H46      1.0000 0.99010  0.23410  0.87080  Biso   1.000  H
  H47      1.0000 0.50990  0.73410  0.62920  Biso   1.000  H
  H48      1.0000 0.49010  0.73410  0.87080  Biso   1.000  H
  C73      1.0000 0.96355  0.70240  0.46800  Biso   1.000  C
  C74      1.0000 0.03645  0.70240  0.03200  Biso   1.000  C
  C75      1.0000 0.46355  0.20240  0.46800  Biso   1.000  C
  C76      1.0000 0.53645  0.20240  0.03200  Biso   1.000  C
  C77      1.0000 0.03645  0.29760  0.53200  Biso   1.000  C
  C78      1.0000 0.96355  0.29760  0.96800  Biso   1.000  C
  C79      1.0000 0.53645  0.79760  0.53200  Biso   1.000  C
  C80      1.0000 0.46355  0.79760  0.96800  Biso   1.000  C
  H49      1.0000 0.93310  0.71520  0.42490  Biso   1.000  H
  H50      1.0000 0.06690  0.71520  0.07510  Biso   1.000  H
  H51      1.0000 0.43310  0.21520  0.42490  Biso   1.000  H
  H52      1.0000 0.56690  0.21520  0.07510  Biso   1.000  H
  H53      1.0000 0.06690  0.28480  0.57510  Biso   1.000  H
  H54      1.0000 0.93310  0.28480  0.92490  Biso   1.000  H
  H55      1.0000 0.56690  0.78480  0.57510  Biso   1.000  H
  H56      1.0000 0.43310  0.78480  0.92490  Biso   1.000  H
  C81      1.0000 0.97365  0.65500  0.56360  Biso   1.000  C
  C82      1.0000 0.02635  0.65500  0.93640  Biso   1.000  C
  C83      1.0000 0.47365  0.15500  0.56360  Biso   1.000  C
  C84      1.0000 0.52635  0.15500  0.93640  Biso   1.000  C
  C85      1.0000 0.02635  0.34500  0.43640  Biso   1.000  C
  C86      1.0000 0.97365  0.34500  0.06360  Biso   1.000  C
  C87      1.0000 0.52635  0.84500  0.43640  Biso   1.000  C
  C88      1.0000 0.47365  0.84500  0.06360  Biso   1.000  C
  H57      1.0000 0.95030  0.63720  0.58550  Biso   1.000  H
  H58      1.0000 0.04970  0.63720  0.91450  Biso   1.000  H
  H59      1.0000 0.45030  0.13720  0.58550  Biso   1.000  H
  H60      1.0000 0.54970  0.13720  0.91450  Biso   1.000  H
  H61      1.0000 0.04970  0.36280  0.41450  Biso   1.000  H
  H62      1.0000 0.95030  0.36280  0.08550  Biso   1.000  H
  H63      1.0000 0.54970  0.86280  0.41450  Biso   1.000  H
  H64      1.0000 0.45030  0.86280  0.08550  Biso   1.000  H
  C89      1.0000 0.01899  0.63430  0.62690  Biso   1.000  C
  C90      1.0000 0.98101  0.63430  0.87310  Biso   1.000  C
  C91      1.0000 0.51899  0.13430  0.62690  Biso   1.000  C
  C92      1.0000 0.48101  0.13430  0.87310  Biso   1.000  C
  C93      1.0000 0.98101  0.36570  0.37310  Biso   1.000  C
  C94      1.0000 0.01899  0.36570  0.12690  Biso   1.000  C
  C95      1.0000 0.48101  0.86570  0.37310  Biso   1.000  C
  C96      1.0000 0.51899  0.86570  0.12690  Biso   1.000  C
  H65      1.0000 0.02620  0.60320  0.69190  Biso   1.000  H
  H66      1.0000 0.97380  0.60320  0.80810  Biso   1.000  H
  H67      1.0000 0.52620  0.10320  0.69190  Biso   1.000  H
  H68      1.0000 0.47380  0.10320  0.80810  Biso   1.000  H
  H69      1.0000 0.97380  0.39680  0.30810  Biso   1.000  H
  H70      1.0000 0.02620  0.39680  0.19190  Biso   1.000  H
  H71      1.0000 0.47380  0.89680  0.30810  Biso   1.000  H
  H72      1.0000 0.52620  0.89680  0.19190  Biso   1.000  H
  C97      1.0000 0.05402  0.65950  0.59420  Biso   1.000  C
  C98      1.0000 0.94598  0.65950  0.90580  Biso   1.000  C
  C99      1.0000 0.55402  0.15950  0.59420  Biso   1.000  C
  C100     1.0000 0.44598  0.15950  0.90580  Biso   1.000  C
  C101     1.0000 0.94598  0.34050  0.40580  Biso   1.000  C
  C102     1.0000 0.05402  0.34050  0.09420  Biso   1.000  C
  C103     1.0000 0.44598  0.84050  0.40580  Biso   1.000  C
  C104     1.0000 0.55402  0.84050  0.09420  Biso   1.000  C
  C105     1.0000 0.10206  0.62380  0.66410  Biso   1.000  C
  C106     1.0000 0.89794  0.62380  0.83590  Biso   1.000  C
  C107     1.0000 0.60206  0.12380  0.66410  Biso   1.000  C
  C108     1.0000 0.39794  0.12380  0.83590  Biso   1.000  C
  C109     1.0000 0.89794  0.37620  0.33590  Biso   1.000  C
  C110     1.0000 0.10206  0.37620  0.16410  Biso   1.000  C
  C111     1.0000 0.39794  0.87620  0.33590  Biso   1.000  C
  C112     1.0000 0.60206  0.87620  0.16410  Biso   1.000  C
  C113     1.0000 0.18760  0.15740  0.35310  Biso   1.000  C
  C114     1.0000 0.81240  0.15740  0.14690  Biso   1.000  C
  C115     1.0000 0.68760  0.65740  0.35310  Biso   1.000  C
  C116     1.0000 0.31240  0.65740  0.14690  Biso   1.000  C
  C117     1.0000 0.81240  0.84260  0.64690  Biso   1.000  C
  C118     1.0000 0.18760  0.84260  0.85310  Biso   1.000  C
  C119     1.0000 0.31240  0.34260  0.64690  Biso   1.000  C
  C120     1.0000 0.68760  0.34260  0.85310  Biso   1.000  C
  H73      1.0000 0.15610  0.14940  0.33410  Biso   1.000  H
  H74      1.0000 0.84390  0.14940  0.16590  Biso   1.000  H
  H75      1.0000 0.65610  0.64940  0.33410  Biso   1.000  H
  H76      1.0000 0.34390  0.64940  0.16590  Biso   1.000  H
  H77      1.0000 0.84390  0.85060  0.66590  Biso   1.000  H
  H78      1.0000 0.15610  0.85060  0.83410  Biso   1.000  H
  H79      1.0000 0.34390  0.35060  0.66590  Biso   1.000  H
  H80      1.0000 0.65610  0.35060  0.83410  Biso   1.000  H
  C121     1.0000 0.21466  0.04070  0.38200  Biso   1.000  C
  C122     1.0000 0.78534  0.04070  0.11800  Biso   1.000  C
  C123     1.0000 0.71466  0.54070  0.38200  Biso   1.000  C
  C124     1.0000 0.28534  0.54070  0.11800  Biso   1.000  C
  C125     1.0000 0.78534  0.95930  0.61800  Biso   1.000  C
  C126     1.0000 0.21466  0.95930  0.88200  Biso   1.000  C
  C127     1.0000 0.28534  0.45930  0.61800  Biso   1.000  C
  C128     1.0000 0.71466  0.45930  0.88200  Biso   1.000  C
  H81      1.0000 0.20120  0.95680  0.38220  Biso   1.000  H
  H82      1.0000 0.79880  0.95680  0.11780  Biso   1.000  H
  H83      1.0000 0.70120  0.45680  0.38220  Biso   1.000  H
  H84      1.0000 0.29880  0.45680  0.11780  Biso   1.000  H
  H85      1.0000 0.79880  0.04320  0.61780  Biso   1.000  H
  H86      1.0000 0.20120  0.04320  0.88220  Biso   1.000  H
  H87      1.0000 0.29880  0.54320  0.61780  Biso   1.000  H
  H88      1.0000 0.70120  0.54320  0.88220  Biso   1.000  H
  C129     1.0000 0.26097  0.05040  0.41020  Biso   1.000  C
  C130     1.0000 0.73903  0.05040  0.08980  Biso   1.000  C
  C131     1.0000 0.76097  0.55040  0.41020  Biso   1.000  C
  C132     1.0000 0.23903  0.55040  0.08980  Biso   1.000  C
  C133     1.0000 0.73903  0.94960  0.58980  Biso   1.000  C
  C134     1.0000 0.26097  0.94960  0.91020  Biso   1.000  C
  C135     1.0000 0.23903  0.44960  0.58980  Biso   1.000  C
  C136     1.0000 0.76097  0.44960  0.91020  Biso   1.000  C
  H89      1.0000 0.27930  0.97340  0.42990  Biso   1.000  H
  H90      1.0000 0.72070  0.97340  0.07010  Biso   1.000  H
  H91      1.0000 0.77930  0.47340  0.42990  Biso   1.000  H
  H92      1.0000 0.22070  0.47340  0.07010  Biso   1.000  H
  H93      1.0000 0.72070  0.02660  0.57010  Biso   1.000  H
  H94      1.0000 0.27930  0.02660  0.92990  Biso   1.000  H
  H95      1.0000 0.22070  0.52660  0.57010  Biso   1.000  H
  H96      1.0000 0.77930  0.52660  0.92990  Biso   1.000  H
  C137     1.0000 0.28067  0.17720  0.40900  Biso   1.000  C
  C138     1.0000 0.71933  0.17720  0.09100  Biso   1.000  C
  C139     1.0000 0.78067  0.67720  0.40900  Biso   1.000  C
  C140     1.0000 0.21933  0.67720  0.09100  Biso   1.000  C
  C141     1.0000 0.71933  0.82280  0.59100  Biso   1.000  C
  C142     1.0000 0.28067  0.82280  0.90900  Biso   1.000  C
  C143     1.0000 0.21933  0.32280  0.59100  Biso   1.000  C
  C144     1.0000 0.78067  0.32280  0.90900  Biso   1.000  C
  C145     1.0000 0.32883  0.20020  0.43830  Biso   1.000  C
  C146     1.0000 0.67117  0.20020  0.06170  Biso   1.000  C
  C147     1.0000 0.82883  0.70020  0.43830  Biso   1.000  C
  C148     1.0000 0.17117  0.70020  0.06170  Biso   1.000  C
  C149     1.0000 0.67117  0.79980  0.56170  Biso   1.000  C
  C150     1.0000 0.32883  0.79980  0.93830  Biso   1.000  C
  C151     1.0000 0.17117  0.29980  0.56170  Biso   1.000  C
  C152     1.0000 0.82883  0.29980  0.93830  Biso   1.000  C
  H97      1.0000 0.34910  0.12730  0.45800  Biso   1.000  H
  H98      1.0000 0.65090  0.12730  0.04200  Biso   1.000  H
  H99      1.0000 0.84910  0.62730  0.45800  Biso   1.000  H
  H100     1.0000 0.15090  0.62730  0.04200  Biso   1.000  H
  H101     1.0000 0.65090  0.87270  0.54200  Biso   1.000  H
  H102     1.0000 0.34910  0.87270  0.95800  Biso   1.000  H
  H103     1.0000 0.15090  0.37270  0.54200  Biso   1.000  H
  H104     1.0000 0.84910  0.37270  0.95800  Biso   1.000  H
  C153     1.0000 0.34496  0.32630  0.43760  Biso   1.000  C
  C154     1.0000 0.65504  0.32630  0.06240  Biso   1.000  C
  C155     1.0000 0.84496  0.82630  0.43760  Biso   1.000  C
  C156     1.0000 0.15504  0.82630  0.06240  Biso   1.000  C
  C157     1.0000 0.65504  0.67370  0.56240  Biso   1.000  C
  C158     1.0000 0.34496  0.67370  0.93760  Biso   1.000  C
  C159     1.0000 0.15504  0.17370  0.56240  Biso   1.000  C
  C160     1.0000 0.84496  0.17370  0.93760  Biso   1.000  C
  H105     1.0000 0.37640  0.33880  0.45820  Biso   1.000  H
  H106     1.0000 0.62360  0.33880  0.04180  Biso   1.000  H
  H107     1.0000 0.87640  0.83880  0.45820  Biso   1.000  H
  H108     1.0000 0.12360  0.83880  0.04180  Biso   1.000  H
  H109     1.0000 0.62360  0.66120  0.54180  Biso   1.000  H
  H110     1.0000 0.37640  0.66120  0.95820  Biso   1.000  H
  H111     1.0000 0.12360  0.16120  0.54180  Biso   1.000  H
  H112     1.0000 0.87640  0.16120  0.95820  Biso   1.000  H
  C161     1.0000 0.31555  0.44090  0.40630  Biso   1.000  C
  C162     1.0000 0.68445  0.44090  0.09370  Biso   1.000  C
  C163     1.0000 0.81555  0.94090  0.40630  Biso   1.000  C
  C164     1.0000 0.18445  0.94090  0.09370  Biso   1.000  C
  C165     1.0000 0.68445  0.55910  0.59370  Biso   1.000  C
  C166     1.0000 0.31555  0.55910  0.90630  Biso   1.000  C
  C167     1.0000 0.18445  0.05910  0.59370  Biso   1.000  C
  C168     1.0000 0.81555  0.05910  0.90630  Biso   1.000  C
  C169     1.0000 0.32977  0.57550  0.40420  Biso   1.000  C
  C170     1.0000 0.67023  0.57550  0.09580  Biso   1.000  C
  C171     1.0000 0.82977  0.07550  0.40420  Biso   1.000  C
  C172     1.0000 0.17023  0.07550  0.09580  Biso   1.000  C
  C173     1.0000 0.67023  0.42450  0.59580  Biso   1.000  C
  C174     1.0000 0.32977  0.42450  0.90420  Biso   1.000  C
  C175     1.0000 0.17023  0.92450  0.59580  Biso   1.000  C
  C176     1.0000 0.82977  0.92450  0.90420  Biso   1.000  C
  H113     1.0000 0.36070  0.59480  0.42290  Biso   1.000  H
  H114     1.0000 0.63930  0.59480  0.07710  Biso   1.000  H
  H115     1.0000 0.86070  0.09480  0.42290  Biso   1.000  H
  H116     1.0000 0.13930  0.09480  0.07710  Biso   1.000  H
  H117     1.0000 0.63930  0.40520  0.57710  Biso   1.000  H
  H118     1.0000 0.36070  0.40520  0.92290  Biso   1.000  H
  H119     1.0000 0.13930  0.90520  0.57710  Biso   1.000  H
  H120     1.0000 0.86070  0.90520  0.92290  Biso   1.000  H
  C177     1.0000 0.29850  0.67730  0.37500  Biso   1.000  C
  C178     1.0000 0.70150  0.67730  0.12500  Biso   1.000  C
  C179     1.0000 0.79850  0.17730  0.37500  Biso   1.000  C
  C180     1.0000 0.20150  0.17730  0.12500  Biso   1.000  C
  C181     1.0000 0.70150  0.32270  0.62500  Biso   1.000  C
  C182     1.0000 0.29850  0.32270  0.87500  Biso   1.000  C
  C183     1.0000 0.20150  0.82270  0.62500  Biso   1.000  C
  C184     1.0000 0.79850  0.82270  0.87500  Biso   1.000  C
  H121     1.0000 0.30800  0.76640  0.37370  Biso   1.000  H
  H122     1.0000 0.69200  0.76640  0.12630  Biso   1.000  H
  H123     1.0000 0.80800  0.26640  0.37370  Biso   1.000  H
  H124     1.0000 0.19200  0.26640  0.12630  Biso   1.000  H
  H125     1.0000 0.69200  0.23360  0.62630  Biso   1.000  H
  H126     1.0000 0.30800  0.23360  0.87370  Biso   1.000  H
  H127     1.0000 0.19200  0.73360  0.62630  Biso   1.000  H
  H128     1.0000 0.80800  0.73360  0.87370  Biso   1.000  H
  C185     1.0000 0.25214  0.64820  0.34690  Biso   1.000  C
  C186     1.0000 0.74786  0.64820  0.15310  Biso   1.000  C
  C187     1.0000 0.75214  0.14820  0.34690  Biso   1.000  C
  C188     1.0000 0.24786  0.14820  0.15310  Biso   1.000  C
  C189     1.0000 0.74786  0.35180  0.65310  Biso   1.000  C
  C190     1.0000 0.25214  0.35180  0.84690  Biso   1.000  C
  C191     1.0000 0.24786  0.85180  0.65310  Biso   1.000  C
  C192     1.0000 0.75214  0.85180  0.84690  Biso   1.000  C
  H129     1.0000 0.23110  0.71900  0.32740  Biso   1.000  H
  H130     1.0000 0.76890  0.71900  0.17260  Biso   1.000  H
  H131     1.0000 0.73110  0.21900  0.32740  Biso   1.000  H
  H132     1.0000 0.26890  0.21900  0.17260  Biso   1.000  H
  H133     1.0000 0.76890  0.28100  0.67260  Biso   1.000  H
  H134     1.0000 0.23110  0.28100  0.82740  Biso   1.000  H
  H135     1.0000 0.26890  0.78100  0.67260  Biso   1.000  H
  H136     1.0000 0.73110  0.78100  0.82740  Biso   1.000  H
  C193     1.0000 0.26837  0.42070  0.37670  Biso   1.000  C
  C194     1.0000 0.73163  0.42070  0.12330  Biso   1.000  C
  C195     1.0000 0.76837  0.92070  0.37670  Biso   1.000  C
  C196     1.0000 0.23163  0.92070  0.12330  Biso   1.000  C
  C197     1.0000 0.73163  0.57930  0.62330  Biso   1.000  C
  C198     1.0000 0.26837  0.57930  0.87670  Biso   1.000  C
  C199     1.0000 0.23163  0.07930  0.62330  Biso   1.000  C
  C200     1.0000 0.76837  0.07930  0.87670  Biso   1.000  C
  C201     1.0000 0.25100  0.28790  0.37890  Biso   1.000  C
  C202     1.0000 0.74900  0.28790  0.12110  Biso   1.000  C
  C203     1.0000 0.75100  0.78790  0.37890  Biso   1.000  C
  C204     1.0000 0.24900  0.78790  0.12110  Biso   1.000  C
  C205     1.0000 0.74900  0.71210  0.62110  Biso   1.000  C
  C206     1.0000 0.25100  0.71210  0.87890  Biso   1.000  C
  C207     1.0000 0.24900  0.21210  0.62110  Biso   1.000  C
  C208     1.0000 0.75100  0.21210  0.87890  Biso   1.000  C
