data_image0
_cell_length_a       9.94
_cell_length_b       16.639
_cell_length_c       7.876
_cell_angle_alpha    90
_cell_angle_beta     96.28
_cell_angle_gamma    90

_symmetry_space_group_name_H-M    "P 1"
_symmetry_int_tables_number       1

loop_
  _symmetry_equiv_pos_as_xyz
  'x, y, z'

loop_
  _atom_site_label
  _atom_site_occupancy
  _atom_site_fract_x
  _atom_site_fract_y
  _atom_site_fract_z
  _atom_site_thermal_displace_type
  _atom_site_B_iso_or_equiv
  _atom_site_type_symbol
  Cu1      1.0000 0.10928  0.45543  0.48878  Biso   1.000  Cu
  Cu2      1.0000 0.89072  0.95543  0.01122  Biso   1.000  Cu
  Cu3      1.0000 0.89072  0.54457  0.51122  Biso   1.000  Cu
  Cu4      1.0000 0.10928  0.04457  0.98878  Biso   1.000  Cu
  S1       1.0000 0.96122  0.21713  0.44052  Biso   1.000  S
  S2       1.0000 0.03878  0.71713  0.05948  Biso   1.000  S
  S3       1.0000 0.03878  0.78287  0.55948  Biso   1.000  S
  S4       1.0000 0.96122  0.28287  0.94052  Biso   1.000  S
  O1       1.0000 0.97500  0.37850  0.38660  Biso   1.000  O
  O2       1.0000 0.02500  0.87850  0.11340  Biso   1.000  O
  O3       1.0000 0.02500  0.62150  0.61340  Biso   1.000  O
  O4       1.0000 0.97500  0.12150  0.88660  Biso   1.000  O
  O5       1.0000 0.29320  0.39085  0.44980  Biso   1.000  O
  O6       1.0000 0.70680  0.89085  0.05020  Biso   1.000  O
  O7       1.0000 0.70680  0.60915  0.55020  Biso   1.000  O
  O8       1.0000 0.29320  0.10915  0.94980  Biso   1.000  O
  H1       1.0000 0.27870  0.34690  0.40370  Biso   1.000  H
  H2       1.0000 0.72130  0.84690  0.09630  Biso   1.000  H
  H3       1.0000 0.72130  0.65310  0.59630  Biso   1.000  H
  H4       1.0000 0.27870  0.15310  0.90370  Biso   1.000  H
  H5       1.0000 0.34190  0.41410  0.38450  Biso   1.000  H
  H6       1.0000 0.65810  0.91410  0.11550  Biso   1.000  H
  H7       1.0000 0.65810  0.58590  0.61550  Biso   1.000  H
  H8       1.0000 0.34190  0.08590  0.88450  Biso   1.000  H
  O9       1.0000 0.78930  0.45444  0.39720  Biso   1.000  O
  O10      1.0000 0.21070  0.95444  0.10280  Biso   1.000  O
  O11      1.0000 0.21070  0.54556  0.60280  Biso   1.000  O
  O12      1.0000 0.78930  0.04556  0.89720  Biso   1.000  O
  O13      1.0000 0.07790  0.08898  0.21280  Biso   1.000  O
  O14      1.0000 0.92210  0.58898  0.28720  Biso   1.000  O
  O15      1.0000 0.92210  0.91102  0.78720  Biso   1.000  O
  O16      1.0000 0.07790  0.41102  0.71280  Biso   1.000  O
  O17      1.0000 0.89346  0.01319  0.23190  Biso   1.000  O
  O18      1.0000 0.10654  0.51319  0.26810  Biso   1.000  O
  O19      1.0000 0.10654  0.98681  0.76810  Biso   1.000  O
  O20      1.0000 0.89346  0.48681  0.73190  Biso   1.000  O
  N1       1.0000 0.73010  0.17934  0.25260  Biso   1.000  N
  N2       1.0000 0.26990  0.67934  0.24740  Biso   1.000  N
  N3       1.0000 0.26990  0.82066  0.74740  Biso   1.000  N
  N4       1.0000 0.73010  0.32066  0.75260  Biso   1.000  N
  C1       1.0000 0.56060  0.27286  0.13660  Biso   1.000  C
  C2       1.0000 0.43940  0.77286  0.36340  Biso   1.000  C
  C3       1.0000 0.43940  0.72714  0.86340  Biso   1.000  C
  C4       1.0000 0.56060  0.22714  0.63660  Biso   1.000  C
  H9       1.0000 0.47680  0.28170  0.07450  Biso   1.000  H
  H10      1.0000 0.52320  0.78170  0.42550  Biso   1.000  H
  H11      1.0000 0.52320  0.71830  0.92550  Biso   1.000  H
  H12      1.0000 0.47680  0.21830  0.57450  Biso   1.000  H
  C5       1.0000 0.76360  0.32137  0.29650  Biso   1.000  C
  C6       1.0000 0.23640  0.82137  0.20350  Biso   1.000  C
  C7       1.0000 0.23640  0.67863  0.70350  Biso   1.000  C
  C8       1.0000 0.76360  0.17863  0.79650  Biso   1.000  C
  C9       1.0000 0.63840  0.33602  0.20600  Biso   1.000  C
  C10      1.0000 0.36160  0.83602  0.29400  Biso   1.000  C
  C11      1.0000 0.36160  0.66398  0.79400  Biso   1.000  C
  C12      1.0000 0.63840  0.16398  0.70600  Biso   1.000  C
  H13      1.0000 0.60680  0.38850  0.19190  Biso   1.000  H
  H14      1.0000 0.39320  0.88850  0.30810  Biso   1.000  H
  H15      1.0000 0.39320  0.61150  0.80810  Biso   1.000  H
  H16      1.0000 0.60680  0.11150  0.69190  Biso   1.000  H
  C13      1.0000 0.61140  0.19624  0.16270  Biso   1.000  C
  C14      1.0000 0.38860  0.69624  0.33730  Biso   1.000  C
  C15      1.0000 0.38860  0.80376  0.83730  Biso   1.000  C
  C16      1.0000 0.61140  0.30376  0.66270  Biso   1.000  C
  H17      1.0000 0.56000  0.15360  0.11470  Biso   1.000  H
  H18      1.0000 0.44000  0.65360  0.38530  Biso   1.000  H
  H19      1.0000 0.44000  0.84640  0.88530  Biso   1.000  H
  H20      1.0000 0.56000  0.34640  0.61470  Biso   1.000  H
  C17      1.0000 0.80590  0.24081  0.31790  Biso   1.000  C
  C18      1.0000 0.19410  0.74081  0.18210  Biso   1.000  C
  C19      1.0000 0.19410  0.75919  0.68210  Biso   1.000  C
  C20      1.0000 0.80590  0.25919  0.81790  Biso   1.000  C
  C21      1.0000 0.84890  0.38985  0.36640  Biso   1.000  C
  C22      1.0000 0.15110  0.88985  0.13360  Biso   1.000  C
  C23      1.0000 0.15110  0.61015  0.63360  Biso   1.000  C
  C24      1.0000 0.84890  0.11015  0.86640  Biso   1.000  C
  C25      1.0000 0.95140  0.10887  0.45000  Biso   1.000  C
  C26      1.0000 0.04860  0.60887  0.05000  Biso   1.000  C
  C27      1.0000 0.04860  0.89113  0.55000  Biso   1.000  C
  C28      1.0000 0.95140  0.39113  0.95000  Biso   1.000  C
  H21      1.0000 0.01780  0.08970  0.54030  Biso   1.000  H
  H22      1.0000 0.98220  0.58970  0.95970  Biso   1.000  H
  H23      1.0000 0.98220  0.91030  0.45970  Biso   1.000  H
  H24      1.0000 0.01780  0.41030  0.04030  Biso   1.000  H
  H25      1.0000 0.86260  0.09380  0.47940  Biso   1.000  H
  H26      1.0000 0.13740  0.59380  0.02060  Biso   1.000  H
  H27      1.0000 0.13740  0.90620  0.52060  Biso   1.000  H
  H28      1.0000 0.86260  0.40620  0.97940  Biso   1.000  H
  C29      1.0000 0.97570  0.06765  0.28380  Biso   1.000  C
  C30      1.0000 0.02430  0.56765  0.21620  Biso   1.000  C
  C31      1.0000 0.02430  0.93235  0.71620  Biso   1.000  C
  C32      1.0000 0.97570  0.43235  0.78380  Biso   1.000  C
  O21      1.0000 0.61230  0.99929  0.29970  Biso   1.000  O
  O22      1.0000 0.38770  0.49929  0.20030  Biso   1.000  O
  O23      1.0000 0.38770  0.00071  0.70030  Biso   1.000  O
  O24      1.0000 0.61230  0.50071  0.79970  Biso   1.000  O
  H29      1.0000 0.63850  0.97560  0.39070  Biso   1.000  H
  H30      1.0000 0.36150  0.47560  0.10930  Biso   1.000  H
  H31      1.0000 0.36150  0.02440  0.60930  Biso   1.000  H
  H32      1.0000 0.63850  0.52440  0.89070  Biso   1.000  H
  H33      1.0000 0.67740  0.02990  0.28860  Biso   1.000  H
  H34      1.0000 0.32260  0.52990  0.21140  Biso   1.000  H
  H35      1.0000 0.32260  0.97010  0.71140  Biso   1.000  H
  H36      1.0000 0.67740  0.47010  0.78860  Biso   1.000  H
  O25      1.0000 0.37650  0.07734  0.37640  Biso   1.000  O
  O26      1.0000 0.62350  0.57734  0.12360  Biso   1.000  O
  O27      1.0000 0.62350  0.92266  0.62360  Biso   1.000  O
  O28      1.0000 0.37650  0.42266  0.87640  Biso   1.000  O
  H37      1.0000 0.30480  0.05890  0.33290  Biso   1.000  H
  H38      1.0000 0.69520  0.55890  0.16710  Biso   1.000  H
  H39      1.0000 0.69520  0.94110  0.66710  Biso   1.000  H
  H40      1.0000 0.30480  0.44110  0.83290  Biso   1.000  H
  H41      1.0000 0.43640  0.04910  0.34240  Biso   1.000  H
  H42      1.0000 0.56360  0.54910  0.15760  Biso   1.000  H
  H43      1.0000 0.56360  0.95090  0.65760  Biso   1.000  H
  H44      1.0000 0.43640  0.45090  0.84240  Biso   1.000  H
  O29      1.0000 0.25380  0.24845  0.27490  Biso   1.000  O
  O30      1.0000 0.74620  0.74845  0.22510  Biso   1.000  O
  O31      1.0000 0.74620  0.75155  0.72510  Biso   1.000  O
  O32      1.0000 0.25380  0.25155  0.77490  Biso   1.000  O
  H45      1.0000 0.27660  0.22800  0.18810  Biso   1.000  H
  H46      1.0000 0.72340  0.72800  0.31190  Biso   1.000  H
  H47      1.0000 0.72340  0.77200  0.81190  Biso   1.000  H
  H48      1.0000 0.27660  0.27200  0.68810  Biso   1.000  H
  H49      1.0000 0.16990  0.23620  0.26910  Biso   1.000  H
  H50      1.0000 0.83010  0.73620  0.23090  Biso   1.000  H
  H51      1.0000 0.83010  0.76380  0.73090  Biso   1.000  H
  H52      1.0000 0.16990  0.26380  0.76910  Biso   1.000  H
