data_image0
_cell_length_a       8.999
_cell_length_b       19.296
_cell_length_c       18.926
_cell_angle_alpha    90
_cell_angle_beta     110.59
_cell_angle_gamma    90

_symmetry_space_group_name_H-M    "P 1"
_symmetry_int_tables_number       1

loop_
  _symmetry_equiv_pos_as_xyz
  'x, y, z'

loop_
  _atom_site_label
  _atom_site_occupancy
  _atom_site_fract_x
  _atom_site_fract_y
  _atom_site_fract_z
  _atom_site_thermal_displace_type
  _atom_site_B_iso_or_equiv
  _atom_site_type_symbol
  Cu1      1.0000 0.49949  0.66350  0.40320  Biso   1.000  Cu
  Cu2      1.0000 0.50051  0.16350  0.09680  Biso   1.000  Cu
  Cu3      1.0000 0.50051  0.33650  0.59680  Biso   1.000  Cu
  Cu4      1.0000 0.49949  0.83650  0.90320  Biso   1.000  Cu
  Cu5      1.0000 0.98200  0.90670  0.40567  Biso   1.000  Cu
  Cu6      1.0000 0.01800  0.40670  0.09433  Biso   1.000  Cu
  Cu7      1.0000 0.01800  0.09330  0.59433  Biso   1.000  Cu
  Cu8      1.0000 0.98200  0.59330  0.90567  Biso   1.000  Cu
  O1       1.0000 0.02000  0.83286  0.32205  Biso   1.000  O
  O2       1.0000 0.98000  0.33286  0.17795  Biso   1.000  O
  O3       1.0000 0.98000  0.16714  0.67795  Biso   1.000  O
  O4       1.0000 0.02000  0.66714  0.82205  Biso   1.000  O
  O5       1.0000 0.14250  0.90382  0.26628  Biso   1.000  O
  O6       1.0000 0.85750  0.40382  0.23372  Biso   1.000  O
  O7       1.0000 0.85750  0.09618  0.73372  Biso   1.000  O
  O8       1.0000 0.14250  0.59618  0.76628  Biso   1.000  O
  O9       1.0000 0.33930  0.77371  0.32593  Biso   1.000  O
  O10      1.0000 0.66070  0.27371  0.17407  Biso   1.000  O
  O11      1.0000 0.66070  0.22629  0.67407  Biso   1.000  O
  O12      1.0000 0.33930  0.72629  0.82593  Biso   1.000  O
  O13      1.0000 0.30080  0.65963  0.31383  Biso   1.000  O
  O14      1.0000 0.69920  0.15963  0.18617  Biso   1.000  O
  O15      1.0000 0.69920  0.34037  0.68617  Biso   1.000  O
  O16      1.0000 0.30080  0.84037  0.81383  Biso   1.000  O
  O17      1.0000 0.69970  0.82712  0.99112  Biso   1.000  O
  O18      1.0000 0.30030  0.32712  0.50888  Biso   1.000  O
  O19      1.0000 0.30030  0.17288  0.00888  Biso   1.000  O
  O20      1.0000 0.69970  0.67288  0.49112  Biso   1.000  O
  O21      1.0000 0.64230  0.71481  0.98938  Biso   1.000  O
  O22      1.0000 0.35770  0.21481  0.51062  Biso   1.000  O
  O23      1.0000 0.35770  0.28519  0.01062  Biso   1.000  O
  O24      1.0000 0.64230  0.78519  0.48938  Biso   1.000  O
  O25      1.0000 0.90270  0.58140  0.04247  Biso   1.000  O
  O26      1.0000 0.09730  0.08140  0.45753  Biso   1.000  O
  O27      1.0000 0.09730  0.41860  0.95753  Biso   1.000  O
  O28      1.0000 0.90270  0.91860  0.54247  Biso   1.000  O
  O29      1.0000 0.94830  0.66614  0.97389  Biso   1.000  O
  O30      1.0000 0.05170  0.16614  0.52611  Biso   1.000  O
  O31      1.0000 0.05170  0.33386  0.02611  Biso   1.000  O
  O32      1.0000 0.94830  0.83386  0.47389  Biso   1.000  O
  O33      1.0000 0.02350  0.98875  0.34694  Biso   1.000  O
  O34      1.0000 0.97650  0.48875  0.15306  Biso   1.000  O
  O35      1.0000 0.97650  0.01125  0.65306  Biso   1.000  O
  O36      1.0000 0.02350  0.51125  0.84694  Biso   1.000  O
  H1       1.0000 0.01560  0.02620  0.36900  Biso   1.000  H
  H2       1.0000 0.98440  0.52620  0.13100  Biso   1.000  H
  H3       1.0000 0.98440  0.97380  0.63100  Biso   1.000  H
  H4       1.0000 0.01560  0.47380  0.86900  Biso   1.000  H
  H5       1.0000 0.11660  0.98550  0.34540  Biso   1.000  H
  H6       1.0000 0.88340  0.48550  0.15460  Biso   1.000  H
  H7       1.0000 0.88340  0.01450  0.65460  Biso   1.000  H
  H8       1.0000 0.11660  0.51450  0.84540  Biso   1.000  H
  O37      1.0000 0.54900  0.54417  0.41879  Biso   1.000  O
  O38      1.0000 0.45100  0.04417  0.08121  Biso   1.000  O
  O39      1.0000 0.45100  0.45583  0.58121  Biso   1.000  O
  O40      1.0000 0.54900  0.95583  0.91879  Biso   1.000  O
  H9       1.0000 0.59930  0.53560  0.46510  Biso   1.000  H
  H10      1.0000 0.40070  0.03560  0.03490  Biso   1.000  H
  H11      1.0000 0.40070  0.46440  0.53490  Biso   1.000  H
  H12      1.0000 0.59930  0.96440  0.96510  Biso   1.000  H
  H13      1.0000 0.46120  0.52250  0.40440  Biso   1.000  H
  H14      1.0000 0.53880  0.02250  0.09560  Biso   1.000  H
  H15      1.0000 0.53880  0.47750  0.59560  Biso   1.000  H
  H16      1.0000 0.46120  0.97750  0.90440  Biso   1.000  H
  N1       1.0000 0.61960  0.67888  0.33332  Biso   1.000  N
  N2       1.0000 0.38040  0.17888  0.16668  Biso   1.000  N
  N3       1.0000 0.38040  0.32112  0.66668  Biso   1.000  N
  N4       1.0000 0.61960  0.82112  0.83332  Biso   1.000  N
  N5       1.0000 0.75350  0.91606  0.34494  Biso   1.000  N
  N6       1.0000 0.24650  0.41606  0.15506  Biso   1.000  N
  N7       1.0000 0.24650  0.08394  0.65506  Biso   1.000  N
  N8       1.0000 0.75350  0.58394  0.84494  Biso   1.000  N
  N9       1.0000 0.37200  0.67091  0.47230  Biso   1.000  N
  N10      1.0000 0.62800  0.17091  0.02770  Biso   1.000  N
  N11      1.0000 0.62800  0.32909  0.52770  Biso   1.000  N
  N12      1.0000 0.37200  0.82909  0.97230  Biso   1.000  N
  N13      1.0000 0.20830  0.91014  0.47251  Biso   1.000  N
  N14      1.0000 0.79170  0.41014  0.02749  Biso   1.000  N
  N15      1.0000 0.79170  0.08986  0.52749  Biso   1.000  N
  N16      1.0000 0.20830  0.58986  0.97251  Biso   1.000  N
  C1       1.0000 0.72590  0.76650  0.01670  Biso   1.000  C
  C2       1.0000 0.27410  0.26650  0.48330  Biso   1.000  C
  C3       1.0000 0.27410  0.23350  0.98330  Biso   1.000  C
  C4       1.0000 0.72590  0.73350  0.51670  Biso   1.000  C
  C5       1.0000 0.12680  0.73280  0.21990  Biso   1.000  C
  C6       1.0000 0.87320  0.23280  0.28010  Biso   1.000  C
  C7       1.0000 0.87320  0.26720  0.78010  Biso   1.000  C
  C8       1.0000 0.12680  0.76720  0.71990  Biso   1.000  C
  C9       1.0000 0.07440  0.84890  0.27150  Biso   1.000  C
  C10      1.0000 0.92560  0.34890  0.22850  Biso   1.000  C
  C11      1.0000 0.92560  0.15110  0.72850  Biso   1.000  C
  C12      1.0000 0.07440  0.65110  0.77150  Biso   1.000  C
  C13      1.0000 0.26650  0.72230  0.29150  Biso   1.000  C
  C14      1.0000 0.73350  0.22230  0.20850  Biso   1.000  C
  C15      1.0000 0.73350  0.27770  0.70850  Biso   1.000  C
  C16      1.0000 0.26650  0.77770  0.79150  Biso   1.000  C
  C17      1.0000 0.08320  0.68320  0.16390  Biso   1.000  C
  C18      1.0000 0.91680  0.18320  0.33610  Biso   1.000  C
  C19      1.0000 0.91680  0.31680  0.83610  Biso   1.000  C
  C20      1.0000 0.08320  0.81680  0.66390  Biso   1.000  C
  H17      1.0000 0.13800  0.64140  0.17180  Biso   1.000  H
  H18      1.0000 0.86200  0.14140  0.32820  Biso   1.000  H
  H19      1.0000 0.86200  0.35860  0.82820  Biso   1.000  H
  H20      1.0000 0.13800  0.85860  0.67180  Biso   1.000  H
  N17      1.0000 0.49690  0.89960  0.29800  Biso   1.000  N
  N18      1.0000 0.50310  0.39960  0.20200  Biso   1.000  N
  N19      1.0000 0.50310  0.10040  0.70200  Biso   1.000  N
  N20      1.0000 0.49690  0.60040  0.79800  Biso   1.000  N
  H21      1.0000 0.40410  0.88400  0.29280  Biso   1.000  H
  H22      1.0000 0.59590  0.38400  0.20720  Biso   1.000  H
  H23      1.0000 0.59590  0.11600  0.70720  Biso   1.000  H
  H24      1.0000 0.40410  0.61600  0.79280  Biso   1.000  H
  C21      1.0000 0.04160  0.79530  0.20941  Biso   1.000  C
  C22      1.0000 0.95840  0.29530  0.29059  Biso   1.000  C
  C23      1.0000 0.95840  0.20470  0.79059  Biso   1.000  C
  C24      1.0000 0.04160  0.70470  0.70941  Biso   1.000  C
  C25      1.0000 0.87220  0.75590  0.08610  Biso   1.000  C
  C26      1.0000 0.12780  0.25590  0.41390  Biso   1.000  C
  C27      1.0000 0.12780  0.24410  0.91390  Biso   1.000  C
  C28      1.0000 0.87220  0.74410  0.58610  Biso   1.000  C
  C29      1.0000 0.95880  0.69420  0.09592  Biso   1.000  C
  C30      1.0000 0.04120  0.19420  0.40408  Biso   1.000  C
  C31      1.0000 0.04120  0.30580  0.90408  Biso   1.000  C
  C32      1.0000 0.95880  0.80580  0.59592  Biso   1.000  C
  C33      1.0000 0.91420  0.80580  0.14280  Biso   1.000  C
  C34      1.0000 0.08580  0.30580  0.35720  Biso   1.000  C
  C35      1.0000 0.08580  0.19420  0.85720  Biso   1.000  C
  C36      1.0000 0.91420  0.69420  0.64280  Biso   1.000  C
  H25      1.0000 0.85620  0.84670  0.13600  Biso   1.000  H
  H26      1.0000 0.14380  0.34670  0.36400  Biso   1.000  H
  H27      1.0000 0.14380  0.15330  0.86400  Biso   1.000  H
  H28      1.0000 0.85620  0.65330  0.63600  Biso   1.000  H
  C37      1.0000 0.57580  0.66440  0.25800  Biso   1.000  C
  C38      1.0000 0.42420  0.16440  0.24200  Biso   1.000  C
  C39      1.0000 0.42420  0.33560  0.74200  Biso   1.000  C
  C40      1.0000 0.57580  0.83560  0.75800  Biso   1.000  C
  H29      1.0000 0.49160  0.63600  0.23080  Biso   1.000  H
  H30      1.0000 0.50840  0.13600  0.26920  Biso   1.000  H
  H31      1.0000 0.50840  0.36400  0.76920  Biso   1.000  H
  H32      1.0000 0.49160  0.86400  0.73080  Biso   1.000  H
  C41      1.0000 0.32680  0.87620  0.46200  Biso   1.000  C
  C42      1.0000 0.67320  0.37620  0.03800  Biso   1.000  C
  C43      1.0000 0.67320  0.12380  0.53800  Biso   1.000  C
  C44      1.0000 0.32680  0.62380  0.96200  Biso   1.000  C
  H33      1.0000 0.31610  0.84770  0.42090  Biso   1.000  H
  H34      1.0000 0.68390  0.34770  0.07910  Biso   1.000  H
  H35      1.0000 0.68390  0.15230  0.57910  Biso   1.000  H
  H36      1.0000 0.31610  0.65230  0.92090  Biso   1.000  H
  C45      1.0000 0.74260  0.72020  0.34780  Biso   1.000  C
  C46      1.0000 0.25740  0.22020  0.15220  Biso   1.000  C
  C47      1.0000 0.25740  0.27980  0.65220  Biso   1.000  C
  C48      1.0000 0.74260  0.77980  0.84780  Biso   1.000  C
  H37      1.0000 0.79810  0.73850  0.39530  Biso   1.000  H
  H38      1.0000 0.20190  0.23850  0.10470  Biso   1.000  H
  H39      1.0000 0.20190  0.26150  0.60470  Biso   1.000  H
  H40      1.0000 0.79810  0.76150  0.89530  Biso   1.000  H
  N21      1.0000 0.46270  0.88830  0.51800  Biso   1.000  N
  N22      1.0000 0.53730  0.38830  0.98200  Biso   1.000  N
  N23      1.0000 0.53730  0.11170  0.48200  Biso   1.000  N
  N24      1.0000 0.46270  0.61170  0.01800  Biso   1.000  N
  H41      1.0000 0.55400  0.87150  0.52220  Biso   1.000  H
  H42      1.0000 0.44600  0.37150  0.97780  Biso   1.000  H
  H43      1.0000 0.44600  0.12850  0.47780  Biso   1.000  H
  H44      1.0000 0.55400  0.62850  0.02220  Biso   1.000  H
  C49      1.0000 0.63090  0.88420  0.35360  Biso   1.000  C
  C50      1.0000 0.36910  0.38420  0.14640  Biso   1.000  C
  C51      1.0000 0.36910  0.11580  0.64640  Biso   1.000  C
  C52      1.0000 0.63090  0.61580  0.85360  Biso   1.000  C
  H45      1.0000 0.63780  0.85470  0.39350  Biso   1.000  H
  H46      1.0000 0.36220  0.35470  0.10650  Biso   1.000  H
  H47      1.0000 0.36220  0.14530  0.60650  Biso   1.000  H
  H48      1.0000 0.63780  0.64530  0.89350  Biso   1.000  H
  C53      1.0000 0.92980  0.64240  0.03300  Biso   1.000  C
  C54      1.0000 0.07020  0.14240  0.46700  Biso   1.000  C
  C55      1.0000 0.07020  0.35760  0.96700  Biso   1.000  C
  C56      1.0000 0.92980  0.85760  0.53300  Biso   1.000  C
  N25      1.0000 0.77850  0.73270  0.28620  Biso   1.000  N
  N26      1.0000 0.22150  0.23270  0.21380  Biso   1.000  N
  N27      1.0000 0.22150  0.26730  0.71380  Biso   1.000  N
  N28      1.0000 0.77850  0.76730  0.78620  Biso   1.000  N
  H49      1.0000 0.85430  0.75840  0.28340  Biso   1.000  H
  H50      1.0000 0.14570  0.25840  0.21660  Biso   1.000  H
  H51      1.0000 0.14570  0.24160  0.71660  Biso   1.000  H
  H52      1.0000 0.85430  0.74160  0.78340  Biso   1.000  H
  C57      1.0000 0.41660  0.65770  0.54680  Biso   1.000  C
  C58      1.0000 0.58340  0.15770  0.95320  Biso   1.000  C
  C59      1.0000 0.58340  0.34230  0.45320  Biso   1.000  C
  C60      1.0000 0.41660  0.84230  0.04680  Biso   1.000  C
  H53      1.0000 0.50650  0.63260  0.57450  Biso   1.000  H
  H54      1.0000 0.49350  0.13260  0.92550  Biso   1.000  H
  H55      1.0000 0.49350  0.36740  0.42550  Biso   1.000  H
  H56      1.0000 0.50650  0.86740  0.07450  Biso   1.000  H
  C61      1.0000 0.27470  0.94480  0.53980  Biso   1.000  C
  C62      1.0000 0.72530  0.44480  0.96020  Biso   1.000  C
  C63      1.0000 0.72530  0.05520  0.46020  Biso   1.000  C
  C64      1.0000 0.27470  0.55520  0.03980  Biso   1.000  C
  H57      1.0000 0.22000  0.97270  0.56260  Biso   1.000  H
  H58      1.0000 0.78000  0.47270  0.93740  Biso   1.000  H
  H59      1.0000 0.78000  0.02730  0.43740  Biso   1.000  H
  H60      1.0000 0.22000  0.52730  0.06260  Biso   1.000  H
  C65      1.0000 0.68850  0.95420  0.27960  Biso   1.000  C
  C66      1.0000 0.31150  0.45420  0.22040  Biso   1.000  C
  C67      1.0000 0.31150  0.04580  0.72040  Biso   1.000  C
  C68      1.0000 0.68850  0.54580  0.77960  Biso   1.000  C
  H61      1.0000 0.74520  0.98280  0.25860  Biso   1.000  H
  H62      1.0000 0.25480  0.48280  0.24140  Biso   1.000  H
  H63      1.0000 0.25480  0.01720  0.74140  Biso   1.000  H
  H64      1.0000 0.74520  0.51720  0.75860  Biso   1.000  H
  C69      1.0000 0.53090  0.94390  0.25110  Biso   1.000  C
  C70      1.0000 0.46910  0.44390  0.24890  Biso   1.000  C
  C71      1.0000 0.46910  0.05610  0.74890  Biso   1.000  C
  C72      1.0000 0.53090  0.55610  0.75110  Biso   1.000  C
  H65      1.0000 0.45950  0.96350  0.20740  Biso   1.000  H
  H66      1.0000 0.54050  0.46350  0.29260  Biso   1.000  H
  H67      1.0000 0.54050  0.03650  0.79260  Biso   1.000  H
  H68      1.0000 0.45950  0.53650  0.70740  Biso   1.000  H
  C73      1.0000 0.43140  0.93190  0.56730  Biso   1.000  C
  C74      1.0000 0.56860  0.43190  0.93270  Biso   1.000  C
  C75      1.0000 0.56860  0.06810  0.43270  Biso   1.000  C
  C76      1.0000 0.43140  0.56810  0.06730  Biso   1.000  C
  H69      1.0000 0.50460  0.94950  0.61160  Biso   1.000  H
  H70      1.0000 0.49540  0.44950  0.88840  Biso   1.000  H
  H71      1.0000 0.49540  0.05050  0.38840  Biso   1.000  H
  H72      1.0000 0.50460  0.55050  0.11160  Biso   1.000  H
  N29      1.0000 0.20230  0.71780  0.51910  Biso   1.000  N
  N30      1.0000 0.79770  0.21780  0.98090  Biso   1.000  N
  N31      1.0000 0.79770  0.28220  0.48090  Biso   1.000  N
  N32      1.0000 0.20230  0.78220  0.01910  Biso   1.000  N
  H73      1.0000 0.12220  0.74050  0.52180  Biso   1.000  H
  H74      1.0000 0.87780  0.24050  0.97820  Biso   1.000  H
  H75      1.0000 0.87780  0.25950  0.47820  Biso   1.000  H
  H76      1.0000 0.12220  0.75950  0.02180  Biso   1.000  H
  C77      1.0000 0.24000  0.70770  0.45770  Biso   1.000  C
  C78      1.0000 0.76000  0.20770  0.04230  Biso   1.000  C
  C79      1.0000 0.76000  0.29230  0.54230  Biso   1.000  C
  C80      1.0000 0.24000  0.79230  0.95770  Biso   1.000  C
  H77      1.0000 0.18060  0.72460  0.41010  Biso   1.000  H
  H78      1.0000 0.81940  0.22460  0.08990  Biso   1.000  H
  H79      1.0000 0.81940  0.27540  0.58990  Biso   1.000  H
  H80      1.0000 0.18060  0.77540  0.91010  Biso   1.000  H
  C81      1.0000 0.31380  0.68550  0.57550  Biso   1.000  C
  C82      1.0000 0.68620  0.18550  0.92450  Biso   1.000  C
  C83      1.0000 0.68620  0.31450  0.42450  Biso   1.000  C
  C84      1.0000 0.31380  0.81450  0.07550  Biso   1.000  C
  H81      1.0000 0.31920  0.68280  0.62540  Biso   1.000  H
  H82      1.0000 0.68080  0.18280  0.87460  Biso   1.000  H
  H83      1.0000 0.68080  0.31720  0.37460  Biso   1.000  H
  H84      1.0000 0.31920  0.81720  0.12540  Biso   1.000  H
  C85      1.0000 0.67300  0.69730  0.22980  Biso   1.000  C
  C86      1.0000 0.32700  0.19730  0.27020  Biso   1.000  C
  C87      1.0000 0.32700  0.30270  0.77020  Biso   1.000  C
  C88      1.0000 0.67300  0.80270  0.72980  Biso   1.000  C
  H85      1.0000 0.66830  0.69600  0.17990  Biso   1.000  H
  H86      1.0000 0.33170  0.19600  0.32010  Biso   1.000  H
  H87      1.0000 0.33170  0.30400  0.82010  Biso   1.000  H
  H88      1.0000 0.66830  0.80400  0.67990  Biso   1.000  H
  O41      1.0000 0.27160  0.48040  0.42240  Biso   1.000  O
  O42      1.0000 0.72840  0.98040  0.07760  Biso   1.000  O
  O43      1.0000 0.72840  0.51960  0.57760  Biso   1.000  O
  O44      1.0000 0.27160  0.01960  0.92240  Biso   1.000  O
  N33      1.0000 0.01390  0.51050  0.38270  Biso   1.000  N
  N34      1.0000 0.98610  0.01050  0.11730  Biso   1.000  N
  N35      1.0000 0.98610  0.48950  0.61730  Biso   1.000  N
  N36      1.0000 0.01390  0.98950  0.88270  Biso   1.000  N
  C89      1.0000 0.95970  0.45370  0.41570  Biso   1.000  C
  C90      1.0000 0.04030  0.95370  0.08430  Biso   1.000  C
  C91      1.0000 0.04030  0.54630  0.58430  Biso   1.000  C
  C92      1.0000 0.95970  0.04630  0.91570  Biso   1.000  C
  H89      1.0000 0.94360  0.41390  0.38340  Biso   1.000  H
  H90      1.0000 0.05640  0.91390  0.11660  Biso   1.000  H
  H91      1.0000 0.05640  0.58610  0.61660  Biso   1.000  H
  H92      1.0000 0.94360  0.08610  0.88340  Biso   1.000  H
  H93      1.0000 0.86140  0.46600  0.42170  Biso   1.000  H
  H94      1.0000 0.13860  0.96600  0.07830  Biso   1.000  H
  H95      1.0000 0.13860  0.53400  0.57830  Biso   1.000  H
  H96      1.0000 0.86140  0.03400  0.92170  Biso   1.000  H
  H97      1.0000 0.03760  0.44310  0.46410  Biso   1.000  H
  H98      1.0000 0.96240  0.94310  0.03590  Biso   1.000  H
  H99      1.0000 0.96240  0.55690  0.53590  Biso   1.000  H
  H100     1.0000 0.03760  0.05690  0.96410  Biso   1.000  H
  C93      1.0000 0.16170  0.51760  0.38670  Biso   1.000  C
  C94      1.0000 0.83830  0.01760  0.11330  Biso   1.000  C
  C95      1.0000 0.83830  0.48240  0.61330  Biso   1.000  C
  C96      1.0000 0.16170  0.98240  0.88670  Biso   1.000  C
  H101     1.0000 0.18430  0.55420  0.36000  Biso   1.000  H
  H102     1.0000 0.81570  0.05420  0.14000  Biso   1.000  H
  H103     1.0000 0.81570  0.44580  0.64000  Biso   1.000  H
  H104     1.0000 0.18430  0.94580  0.86000  Biso   1.000  H
  C97      1.0000 0.88630  0.55470  0.33100  Biso   1.000  C
  C98      1.0000 0.11370  0.05470  0.16900  Biso   1.000  C
  C99      1.0000 0.11370  0.44530  0.66900  Biso   1.000  C
  C100     1.0000 0.88630  0.94530  0.83100  Biso   1.000  C
  H105     1.0000 0.93200  0.58770  0.30660  Biso   1.000  H
  H106     1.0000 0.06800  0.08770  0.19340  Biso   1.000  H
  H107     1.0000 0.06800  0.41230  0.69340  Biso   1.000  H
  H108     1.0000 0.93200  0.91230  0.80660  Biso   1.000  H
  H109     1.0000 0.83270  0.57880  0.35950  Biso   1.000  H
  H110     1.0000 0.16730  0.07880  0.14050  Biso   1.000  H
  H111     1.0000 0.16730  0.42120  0.64050  Biso   1.000  H
  H112     1.0000 0.83270  0.92120  0.85950  Biso   1.000  H
  H113     1.0000 0.81170  0.52610  0.29360  Biso   1.000  H
  H114     1.0000 0.18830  0.02610  0.20640  Biso   1.000  H
  H115     1.0000 0.18830  0.47390  0.70640  Biso   1.000  H
  H116     1.0000 0.81170  0.97390  0.79360  Biso   1.000  H
