data_image0
_cell_length_a       6.2603
_cell_length_b       13.1593
_cell_length_c       24.1169
_cell_angle_alpha    79.244
_cell_angle_beta     87.288
_cell_angle_gamma    77.027

_symmetry_space_group_name_H-M    "P 1"
_symmetry_int_tables_number       1

loop_
  _symmetry_equiv_pos_as_xyz
  'x, y, z'

loop_
  _atom_site_label
  _atom_site_occupancy
  _atom_site_fract_x
  _atom_site_fract_y
  _atom_site_fract_z
  _atom_site_thermal_displace_type
  _atom_site_B_iso_or_equiv
  _atom_site_type_symbol
  Sr1      1.0000 0.37602  0.76401  0.52200  Biso   1.000  Sr
  Sr2      1.0000 0.62398  0.23599  0.47800  Biso   1.000  Sr
  O1       1.0000 0.16160  0.90920  0.44004  Biso   1.000  O
  O2       1.0000 0.83840  0.09080  0.55996  Biso   1.000  O
  O3       1.0000 0.47590  0.74110  0.41771  Biso   1.000  O
  O4       1.0000 0.52410  0.25890  0.58229  Biso   1.000  O
  O5       1.0000 0.11130  0.66910  0.49120  Biso   1.000  O
  O6       1.0000 0.88870  0.33090  0.50880  Biso   1.000  O
  O7       1.0000 0.71350  0.60990  0.52478  Biso   1.000  O
  O8       1.0000 0.28650  0.39010  0.47522  Biso   1.000  O
  O9       1.0000 0.03070  0.87070  0.56581  Biso   1.000  O
  O10      1.0000 0.96930  0.12930  0.43419  Biso   1.000  O
  O11      1.0000 0.63640  0.89110  0.49140  Biso   1.000  O
  O12      1.0000 0.36360  0.10890  0.50860  Biso   1.000  O
  O13      1.0000 0.46610  0.20980  0.38378  Biso   1.000  O
  O14      1.0000 0.53390  0.79020  0.61622  Biso   1.000  O
  O15      1.0000 0.64860  0.37720  0.38670  Biso   1.000  O
  O16      1.0000 0.35140  0.62280  0.61330  Biso   1.000  O
  C1       1.0000 0.18490  0.89270  0.39130  Biso   1.000  C
  C2       1.0000 0.81510  0.10730  0.60870  Biso   1.000  C
  C3       1.0000 0.36320  0.80000  0.37812  Biso   1.000  C
  C4       1.0000 0.63680  0.20000  0.62188  Biso   1.000  C
  H1       1.0000 0.19210  0.59260  0.49800  Biso   1.000  H
  H2       1.0000 0.80790  0.40740  0.50200  Biso   1.000  H
  H3       1.0000 0.08800  0.68260  0.45580  Biso   1.000  H
  H4       1.0000 0.91200  0.31740  0.54420  Biso   1.000  H
  H5       1.0000 0.67210  0.56060  0.54770  Biso   1.000  H
  H6       1.0000 0.32790  0.43940  0.45230  Biso   1.000  H
  H7       1.0000 0.84350  0.62910  0.54090  Biso   1.000  H
  H8       1.0000 0.15650  0.37090  0.45910  Biso   1.000  H
  H9       1.0000 0.90480  0.83570  0.56770  Biso   1.000  H
  H10      1.0000 0.09520  0.16430  0.43230  Biso   1.000  H
  H11      1.0000 0.98990  0.93790  0.55860  Biso   1.000  H
  H12      1.0000 0.01010  0.06210  0.44140  Biso   1.000  H
  H13      1.0000 0.58280  0.95380  0.46200  Biso   1.000  H
  H14      1.0000 0.41720  0.04620  0.53800  Biso   1.000  H
  H15      1.0000 0.78660  0.87940  0.47400  Biso   1.000  H
  H16      1.0000 0.21340  0.12060  0.52600  Biso   1.000  H
  O17      1.0000 0.06830  0.94750  0.34979  Biso   1.000  O
  O18      1.0000 0.93170  0.05250  0.65021  Biso   1.000  O
  N1       1.0000 0.37490  0.79320  0.32411  Biso   1.000  N
  N2       1.0000 0.62510  0.20680  0.67589  Biso   1.000  N
  Cu1      1.0000 0.16269  0.90314  0.27713  Biso   1.000  Cu
  Cu2      1.0000 0.83731  0.09686  0.72287  Biso   1.000  Cu
  C5       1.0000 0.53420  0.70850  0.30791  Biso   1.000  C
  C6       1.0000 0.46580  0.29150  0.69209  Biso   1.000  C
  O19      1.0000 0.90020  0.00570  0.24475  Biso   1.000  O
  O20      1.0000 0.09980  0.99430  0.75525  Biso   1.000  O
  N3       1.0000 0.19220  0.86550  0.20148  Biso   1.000  N
  N4       1.0000 0.80780  0.13450  0.79852  Biso   1.000  N
  O21      1.0000 0.37490  0.03560  0.26050  Biso   1.000  O
  O22      1.0000 0.62510  0.96440  0.73950  Biso   1.000  O
  C7       1.0000 0.74050  0.72150  0.28990  Biso   1.000  C
  C8       1.0000 0.25950  0.27850  0.71010  Biso   1.000  C
  N5       1.0000 0.46910  0.61790  0.30982  Biso   1.000  N
  N6       1.0000 0.53090  0.38210  0.69018  Biso   1.000  N
  C9       1.0000 0.87310  0.00610  0.19330  Biso   1.000  C
  C10      1.0000 0.12690  0.99390  0.80670  Biso   1.000  C
  C11      1.0000 0.04160  0.92510  0.16657  Biso   1.000  C
  C12      1.0000 0.95840  0.07490  0.83343  Biso   1.000  C
  C13      1.0000 0.34720  0.78590  0.17936  Biso   1.000  C
  C14      1.0000 0.65280  0.21410  0.82064  Biso   1.000  C
  H17      1.0000 0.29170  0.09710  0.25270  Biso   1.000  H
  H18      1.0000 0.70830  0.90290  0.74730  Biso   1.000  H
  H19      1.0000 0.48790  0.03510  0.23950  Biso   1.000  H
  H20      1.0000 0.51210  0.96490  0.76050  Biso   1.000  H
  C15      1.0000 0.88650  0.63720  0.27300  Biso   1.000  C
  C16      1.0000 0.11350  0.36280  0.72700  Biso   1.000  C
  H21      1.0000 0.78050  0.78570  0.28920  Biso   1.000  H
  H22      1.0000 0.21950  0.21430  0.71080  Biso   1.000  H
  C17      1.0000 0.61170  0.53730  0.29289  Biso   1.000  C
  C18      1.0000 0.38830  0.46270  0.70711  Biso   1.000  C
  O23      1.0000 0.72380  0.06490  0.16373  Biso   1.000  O
  O24      1.0000 0.27620  0.93510  0.83627  Biso   1.000  O
  O25      1.0000 0.01940  0.92230  0.11553  Biso   1.000  O
  O26      1.0000 0.98060  0.07770  0.88447  Biso   1.000  O
  N7       1.0000 0.29030  0.69350  0.18404  Biso   1.000  N
  N8       1.0000 0.70970  0.30650  0.81596  Biso   1.000  N
  C19      1.0000 0.54090  0.80570  0.15510  Biso   1.000  C
  C20      1.0000 0.45910  0.19430  0.84490  Biso   1.000  C
  C21      1.0000 0.82110  0.54360  0.27460  Biso   1.000  C
  C22      1.0000 0.17890  0.45640  0.72540  Biso   1.000  C
  H23      1.0000 0.02670  0.64360  0.26070  Biso   1.000  H
  H24      1.0000 0.97330  0.35640  0.73930  Biso   1.000  H
  N9       1.0000 0.53360  0.44320  0.29474  Biso   1.000  N
  N10      1.0000 0.46640  0.55680  0.70526  Biso   1.000  N
  Sr3      1.0000 0.85052  0.10158  0.05684  Biso   1.000  Sr
  Sr4      1.0000 0.14948  0.89842  0.94316  Biso   1.000  Sr
  C23      1.0000 0.43100  0.61570  0.16424  Biso   1.000  C
  C24      1.0000 0.56900  0.38430  0.83576  Biso   1.000  C
  C25      1.0000 0.68300  0.72550  0.13470  Biso   1.000  C
  C26      1.0000 0.31700  0.27450  0.86530  Biso   1.000  C
  H25      1.0000 0.57430  0.87180  0.15260  Biso   1.000  H
  H26      1.0000 0.42570  0.12820  0.84740  Biso   1.000  H
  H27      1.0000 0.91640  0.48560  0.26360  Biso   1.000  H
  H28      1.0000 0.08360  0.51440  0.73640  Biso   1.000  H
  Cu3      1.0000 0.39364  0.39924  0.23493  Biso   1.000  Cu
  Cu4      1.0000 0.60636  0.60076  0.76507  Biso   1.000  Cu
  C27      1.0000 0.55840  0.37400  0.34240  Biso   1.000  C
  C28      1.0000 0.44160  0.62600  0.65760  Biso   1.000  C
  O27      1.0000 0.46210  0.08750  0.04729  Biso   1.000  O
  O28      1.0000 0.53790  0.91250  0.95271  Biso   1.000  O
  O29      1.0000 0.13260  0.15510  0.11858  Biso   1.000  O
  O30      1.0000 0.86740  0.84490  0.88142  Biso   1.000  O
  O31      1.0000 0.82010  0.21580  0.95809  Biso   1.000  O
  O32      1.0000 0.17990  0.78420  0.04191  Biso   1.000  O
  O33      1.0000 0.63850  0.28230  0.08110  Biso   1.000  O
  O34      1.0000 0.36150  0.71770  0.91890  Biso   1.000  O
  O35      1.0000 0.21490  0.02830  0.00659  Biso   1.000  O
  O36      1.0000 0.78510  0.97170  0.99341  Biso   1.000  O
  N11      1.0000 0.36030  0.51850  0.17049  Biso   1.000  N
  N12      1.0000 0.63970  0.48150  0.82951  Biso   1.000  N
  C29      1.0000 0.62940  0.62810  0.13960  Biso   1.000  C
  C30      1.0000 0.37060  0.37190  0.86040  Biso   1.000  C
  H29      1.0000 0.81450  0.73660  0.11780  Biso   1.000  H
  H30      1.0000 0.18550  0.26340  0.88220  Biso   1.000  H
  O37      1.0000 0.36690  0.27860  0.29480  Biso   1.000  O
  O38      1.0000 0.63310  0.72140  0.70520  Biso   1.000  O
  O39      1.0000 0.20960  0.34580  0.18830  Biso   1.000  O
  O40      1.0000 0.79040  0.65420  0.81170  Biso   1.000  O
  O41      1.0000 0.71760  0.28200  0.20300  Biso   1.000  O
  O42      1.0000 0.28240  0.71800  0.79700  Biso   1.000  O
  C31      1.0000 0.45730  0.27840  0.34070  Biso   1.000  C
  C32      1.0000 0.54270  0.72160  0.65930  Biso   1.000  C
  C33      1.0000 0.40600  0.03370  0.01563  Biso   1.000  C
  C34      1.0000 0.59400  0.96630  0.98437  Biso   1.000  C
  H31      1.0000 0.11890  0.22150  0.11570  Biso   1.000  H
  H32      1.0000 0.88110  0.77850  0.88430  Biso   1.000  H
  H33      1.0000 0.24530  0.13230  0.09950  Biso   1.000  H
  H34      1.0000 0.75470  0.86770  0.90050  Biso   1.000  H
  H35      1.0000 0.74760  0.29140  0.94770  Biso   1.000  H
  H36      1.0000 0.25240  0.70860  0.05230  Biso   1.000  H
  H37      1.0000 0.80390  0.18910  0.92300  Biso   1.000  H
  H38      1.0000 0.19610  0.81090  0.07700  Biso   1.000  H
  H39      1.0000 0.49000  0.29160  0.06400  Biso   1.000  H
  H40      1.0000 0.51000  0.70840  0.93600  Biso   1.000  H
  H41      1.0000 0.62890  0.27200  0.11680  Biso   1.000  H
  H42      1.0000 0.37110  0.72800  0.88320  Biso   1.000  H
  C35      1.0000 0.24440  0.50750  0.12880  Biso   1.000  C
  C36      1.0000 0.75560  0.49250  0.87120  Biso   1.000  C
  H43      1.0000 0.72430  0.57220  0.12650  Biso   1.000  H
  H44      1.0000 0.27570  0.42780  0.87350  Biso   1.000  H
  C37      1.0000 0.15890  0.40500  0.14100  Biso   1.000  C
  C38      1.0000 0.84110  0.59500  0.85900  Biso   1.000  C
  H45      1.0000 0.79430  0.24750  0.23900  Biso   1.000  H
  H46      1.0000 0.20570  0.75250  0.76100  Biso   1.000  H
  H47      1.0000 0.80920  0.31520  0.18530  Biso   1.000  H
  H48      1.0000 0.19080  0.68480  0.81470  Biso   1.000  H
  O43      1.0000 0.19760  0.56920  0.08270  Biso   1.000  O
  O44      1.0000 0.80240  0.43080  0.91730  Biso   1.000  O
  O45      1.0000 0.04600  0.38760  0.10520  Biso   1.000  O
  O46      1.0000 0.95400  0.61240  0.89480  Biso   1.000  O
  Sr5      1.0000 0.00000  0.50000  0.00000  Biso   1.000  Sr
  O47      1.0000 0.21100  0.30860  0.99640  Biso   1.000  O
  O48      1.0000 0.78900  0.69140  0.00360  Biso   1.000  O
  O49      1.0000 0.40100  0.50010  0.98160  Biso   1.000  O
  O50      1.0000 0.59900  0.49990  0.01840  Biso   1.000  O
  H49      1.0000 0.30390  0.31190  0.96190  Biso   1.000  H
  H50      1.0000 0.69610  0.68810  0.03810  Biso   1.000  H
  H51      1.0000 0.09560  0.27760  0.98560  Biso   1.000  H
  H52      1.0000 0.90440  0.72240  0.01440  Biso   1.000  H
  H53      1.0000 0.38840  0.56100  0.94650  Biso   1.000  H
  H54      1.0000 0.61160  0.43900  0.05350  Biso   1.000  H
  H55      1.0000 0.47230  0.44230  0.97320  Biso   1.000  H
  H56      1.0000 0.52770  0.55770  0.02680  Biso   1.000  H
  O51      1.0000 0.82430  0.42960  0.60299  Biso   1.000  O
  O52      1.0000 0.17570  0.57040  0.39701  Biso   1.000  O
  H57      1.0000 0.98200  0.42980  0.60320  Biso   1.000  H
  H58      1.0000 0.01800  0.57020  0.39680  Biso   1.000  H
  H59      1.0000 0.75180  0.45650  0.63690  Biso   1.000  H
  H60      1.0000 0.24820  0.54350  0.36310  Biso   1.000  H
  O53      1.0000 0.60020  0.99620  0.36990  Biso   1.000  O
  O54      1.0000 0.39980  0.00380  0.63010  Biso   1.000  O
  H61      1.0000 0.55680  0.06060  0.37380  Biso   1.000  H
  H62      1.0000 0.44320  0.93940  0.62620  Biso   1.000  H
  H63      1.0000 0.75750  0.97140  0.37980  Biso   1.000  H
  H64      1.0000 0.24250  0.02860  0.62020  Biso   1.000  H
  O55      1.0000 0.02480  0.80810  0.69010  Biso   1.000  O
  O56      1.0000 0.97520  0.19190  0.30990  Biso   1.000  O
  H65      1.0000 0.94150  0.81510  0.66220  Biso   1.000  H
  H66      1.0000 0.05850  0.18490  0.33780  Biso   1.000  H
  H67      1.0000 0.03480  0.86970  0.69400  Biso   1.000  H
  H68      1.0000 0.96520  0.13030  0.30600  Biso   1.000  H
  O57      1.0000 0.24070  0.45250  0.57899  Biso   1.000  O
  O58      1.0000 0.75930  0.54750  0.42101  Biso   1.000  O
  H69      1.0000 0.30730  0.47660  0.60750  Biso   1.000  H
  H70      1.0000 0.69270  0.52340  0.39250  Biso   1.000  H
  H71      1.0000 0.32150  0.37750  0.57740  Biso   1.000  H
  H72      1.0000 0.67850  0.62250  0.42260  Biso   1.000  H
  H73      1.0000 0.03960  0.53270  0.03110  Biso   1.000  H
  H74      1.0000 0.96040  0.46730  0.96890  Biso   1.000  H
  H75      1.0000 0.05020  0.53630  0.96350  Biso   1.000  H
  H76      1.0000 0.94980  0.46370  0.03650  Biso   1.000  H
