data_image0
_cell_length_a       23.467
_cell_length_b       11.4936
_cell_length_c       13.7728
_cell_angle_alpha    90
_cell_angle_beta     109.012
_cell_angle_gamma    90

_symmetry_space_group_name_H-M    "P 1"
_symmetry_int_tables_number       1

loop_
  _symmetry_equiv_pos_as_xyz
  'x, y, z'

loop_
  _atom_site_label
  _atom_site_occupancy
  _atom_site_fract_x
  _atom_site_fract_y
  _atom_site_fract_z
  _atom_site_thermal_displace_type
  _atom_site_B_iso_or_equiv
  _atom_site_type_symbol
  Cu1      1.0000 0.50000  0.21146  0.25000  Biso   1.000  Cu
  Cu2      1.0000 0.00000  0.71146  0.25000  Biso   1.000  Cu
  Cu3      1.0000 0.50000  0.78854  0.75000  Biso   1.000  Cu
  Cu4      1.0000 0.00000  0.28854  0.75000  Biso   1.000  Cu
  S1       1.0000 0.38676  0.17126  0.47506  Biso   1.000  S
  S2       1.0000 0.61324  0.17126  0.02494  Biso   1.000  S
  S3       1.0000 0.88676  0.67126  0.47506  Biso   1.000  S
  S4       1.0000 0.11324  0.67126  0.02494  Biso   1.000  S
  S5       1.0000 0.61324  0.82874  0.52494  Biso   1.000  S
  S6       1.0000 0.38676  0.82874  0.97506  Biso   1.000  S
  S7       1.0000 0.11324  0.32874  0.52494  Biso   1.000  S
  S8       1.0000 0.88676  0.32874  0.97506  Biso   1.000  S
  N1       1.0000 0.59600  0.21770  0.34390  Biso   1.000  N
  N2       1.0000 0.40400  0.21770  0.15610  Biso   1.000  N
  N3       1.0000 0.09600  0.71770  0.34390  Biso   1.000  N
  N4       1.0000 0.90400  0.71770  0.15610  Biso   1.000  N
  N5       1.0000 0.40400  0.78230  0.65610  Biso   1.000  N
  N6       1.0000 0.59600  0.78230  0.84390  Biso   1.000  N
  N7       1.0000 0.90400  0.28230  0.65610  Biso   1.000  N
  N8       1.0000 0.09600  0.28230  0.84390  Biso   1.000  N
  N9       1.0000 0.50000  0.40160  0.25000  Biso   1.000  N
  N10      1.0000 0.00000  0.90160  0.25000  Biso   1.000  N
  N11      1.0000 0.50000  0.59840  0.75000  Biso   1.000  N
  N12      1.0000 0.00000  0.09840  0.75000  Biso   1.000  N
  N13      1.0000 0.47413  0.21350  0.38160  Biso   1.000  N
  N14      1.0000 0.52587  0.21350  0.11840  Biso   1.000  N
  N15      1.0000 0.97413  0.71350  0.38160  Biso   1.000  N
  N16      1.0000 0.02587  0.71350  0.11840  Biso   1.000  N
  N17      1.0000 0.52587  0.78650  0.61840  Biso   1.000  N
  N18      1.0000 0.47413  0.78650  0.88160  Biso   1.000  N
  N19      1.0000 0.02587  0.28650  0.61840  Biso   1.000  N
  N20      1.0000 0.97413  0.28650  0.88160  Biso   1.000  N
  N21      1.0000 0.50000  0.01760  0.25000  Biso   1.000  N
  N22      1.0000 0.00000  0.51760  0.25000  Biso   1.000  N
  N23      1.0000 0.50000  0.98240  0.75000  Biso   1.000  N
  N24      1.0000 0.00000  0.48240  0.75000  Biso   1.000  N
  C1       1.0000 0.61909  0.15810  0.42960  Biso   1.000  C
  C2       1.0000 0.38091  0.15810  0.07040  Biso   1.000  C
  C3       1.0000 0.11909  0.65810  0.42960  Biso   1.000  C
  C4       1.0000 0.88091  0.65810  0.07040  Biso   1.000  C
  C5       1.0000 0.38091  0.84190  0.57040  Biso   1.000  C
  C6       1.0000 0.61909  0.84190  0.92960  Biso   1.000  C
  C7       1.0000 0.88091  0.34190  0.57040  Biso   1.000  C
  C8       1.0000 0.11909  0.34190  0.92960  Biso   1.000  C
  H1       1.0000 0.59400  0.11000  0.44800  Biso   1.000  H
  H2       1.0000 0.40600  0.11000  0.05200  Biso   1.000  H
  H3       1.0000 0.09400  0.61000  0.44800  Biso   1.000  H
  H4       1.0000 0.90600  0.61000  0.05200  Biso   1.000  H
  H5       1.0000 0.40600  0.89000  0.55200  Biso   1.000  H
  H6       1.0000 0.59400  0.89000  0.94800  Biso   1.000  H
  H7       1.0000 0.90600  0.39000  0.55200  Biso   1.000  H
  H8       1.0000 0.09400  0.39000  0.94800  Biso   1.000  H
  C9       1.0000 0.67878  0.16820  0.49190  Biso   1.000  C
  C10      1.0000 0.32122  0.16820  0.00810  Biso   1.000  C
  C11      1.0000 0.17878  0.66820  0.49190  Biso   1.000  C
  C12      1.0000 0.82122  0.66820  0.00810  Biso   1.000  C
  C13      1.0000 0.32122  0.83180  0.50810  Biso   1.000  C
  C14      1.0000 0.67878  0.83180  0.99190  Biso   1.000  C
  C15      1.0000 0.82122  0.33180  0.50810  Biso   1.000  C
  C16      1.0000 0.17878  0.33180  0.99190  Biso   1.000  C
  H9       1.0000 0.68800  0.13100  0.54000  Biso   1.000  H
  H10      1.0000 0.31200  0.13100  0.96000  Biso   1.000  H
  H11      1.0000 0.18800  0.63100  0.54000  Biso   1.000  H
  H12      1.0000 0.81200  0.63100  0.96000  Biso   1.000  H
  H13      1.0000 0.31200  0.86900  0.46000  Biso   1.000  H
  H14      1.0000 0.68800  0.86900  0.04000  Biso   1.000  H
  H15      1.0000 0.81200  0.36900  0.46000  Biso   1.000  H
  H16      1.0000 0.18800  0.36900  0.04000  Biso   1.000  H
  C17      1.0000 0.71784  0.24240  0.46710  Biso   1.000  C
  C18      1.0000 0.28216  0.24240  0.03290  Biso   1.000  C
  C19      1.0000 0.21784  0.74240  0.46710  Biso   1.000  C
  C20      1.0000 0.78216  0.74240  0.03290  Biso   1.000  C
  C21      1.0000 0.28216  0.75760  0.53290  Biso   1.000  C
  C22      1.0000 0.71784  0.75760  0.96710  Biso   1.000  C
  C23      1.0000 0.78216  0.25760  0.53290  Biso   1.000  C
  C24      1.0000 0.21784  0.25760  0.96710  Biso   1.000  C
  C25      1.0000 0.69394  0.30240  0.37630  Biso   1.000  C
  C26      1.0000 0.30606  0.30240  0.12370  Biso   1.000  C
  C27      1.0000 0.19394  0.80240  0.37630  Biso   1.000  C
  C28      1.0000 0.80606  0.80240  0.12370  Biso   1.000  C
  C29      1.0000 0.30606  0.69760  0.62370  Biso   1.000  C
  C30      1.0000 0.69394  0.69760  0.87630  Biso   1.000  C
  C31      1.0000 0.80606  0.19760  0.62370  Biso   1.000  C
  C32      1.0000 0.19394  0.19760  0.87630  Biso   1.000  C
  H17      1.0000 0.71400  0.35400  0.35300  Biso   1.000  H
  H18      1.0000 0.28600  0.35400  0.14700  Biso   1.000  H
  H19      1.0000 0.21400  0.85400  0.35300  Biso   1.000  H
  H20      1.0000 0.78600  0.85400  0.14700  Biso   1.000  H
  H21      1.0000 0.28600  0.64600  0.64700  Biso   1.000  H
  H22      1.0000 0.71400  0.64600  0.85300  Biso   1.000  H
  H23      1.0000 0.78600  0.14600  0.64700  Biso   1.000  H
  H24      1.0000 0.21400  0.14600  0.85300  Biso   1.000  H
  C33      1.0000 0.63423  0.28740  0.31750  Biso   1.000  C
  C34      1.0000 0.36577  0.28740  0.18250  Biso   1.000  C
  C35      1.0000 0.13423  0.78740  0.31750  Biso   1.000  C
  C36      1.0000 0.86577  0.78740  0.18250  Biso   1.000  C
  C37      1.0000 0.36577  0.71260  0.68250  Biso   1.000  C
  C38      1.0000 0.63423  0.71260  0.81750  Biso   1.000  C
  C39      1.0000 0.86577  0.21260  0.68250  Biso   1.000  C
  C40      1.0000 0.13423  0.21260  0.81750  Biso   1.000  C
  H25      1.0000 0.61940  0.32700  0.25600  Biso   1.000  H
  H26      1.0000 0.38060  0.32700  0.24400  Biso   1.000  H
  H27      1.0000 0.11940  0.82700  0.25600  Biso   1.000  H
  H28      1.0000 0.88060  0.82700  0.24400  Biso   1.000  H
  H29      1.0000 0.38060  0.67300  0.74400  Biso   1.000  H
  H30      1.0000 0.61940  0.67300  0.75600  Biso   1.000  H
  H31      1.0000 0.88060  0.17300  0.74400  Biso   1.000  H
  H32      1.0000 0.11940  0.17300  0.75600  Biso   1.000  H
  C41      1.0000 0.51775  0.46290  0.33700  Biso   1.000  C
  C42      1.0000 0.48225  0.46290  0.16300  Biso   1.000  C
  C43      1.0000 0.01775  0.96290  0.33700  Biso   1.000  C
  C44      1.0000 0.98225  0.96290  0.16300  Biso   1.000  C
  C45      1.0000 0.48225  0.53710  0.66300  Biso   1.000  C
  C46      1.0000 0.51775  0.53710  0.83700  Biso   1.000  C
  C47      1.0000 0.98225  0.03710  0.66300  Biso   1.000  C
  C48      1.0000 0.01775  0.03710  0.83700  Biso   1.000  C
  H33      1.0000 0.52910  0.42300  0.39400  Biso   1.000  H
  H34      1.0000 0.47090  0.42300  0.10600  Biso   1.000  H
  H35      1.0000 0.02910  0.92300  0.39400  Biso   1.000  H
  H36      1.0000 0.97090  0.92300  0.10600  Biso   1.000  H
  H37      1.0000 0.47090  0.57700  0.60600  Biso   1.000  H
  H38      1.0000 0.52910  0.57700  0.89400  Biso   1.000  H
  H39      1.0000 0.97090  0.07700  0.60600  Biso   1.000  H
  H40      1.0000 0.02910  0.07700  0.89400  Biso   1.000  H
  C49      1.0000 0.51853  0.58250  0.34050  Biso   1.000  C
  C50      1.0000 0.48147  0.58250  0.15950  Biso   1.000  C
  C51      1.0000 0.01853  0.08250  0.34050  Biso   1.000  C
  C52      1.0000 0.98147  0.08250  0.15950  Biso   1.000  C
  C53      1.0000 0.48147  0.41750  0.65950  Biso   1.000  C
  C54      1.0000 0.51853  0.41750  0.84050  Biso   1.000  C
  C55      1.0000 0.98147  0.91750  0.65950  Biso   1.000  C
  C56      1.0000 0.01853  0.91750  0.84050  Biso   1.000  C
  H41      1.0000 0.53030  0.61700  0.39900  Biso   1.000  H
  H42      1.0000 0.46970  0.61700  0.10100  Biso   1.000  H
  H43      1.0000 0.03030  0.11700  0.39900  Biso   1.000  H
  H44      1.0000 0.96970  0.11700  0.10100  Biso   1.000  H
  H45      1.0000 0.46970  0.38300  0.60100  Biso   1.000  H
  H46      1.0000 0.53030  0.38300  0.89900  Biso   1.000  H
  H47      1.0000 0.96970  0.88300  0.60100  Biso   1.000  H
  H48      1.0000 0.03030  0.88300  0.89900  Biso   1.000  H
  C57      1.0000 0.50000  0.64490  0.25000  Biso   1.000  C
  C58      1.0000 0.00000  0.14490  0.25000  Biso   1.000  C
  C59      1.0000 0.50000  0.35510  0.75000  Biso   1.000  C
  C60      1.0000 0.00000  0.85510  0.75000  Biso   1.000  C
  C61      1.0000 0.50000  0.77390  0.25000  Biso   1.000  C
  C62      1.0000 0.00000  0.27390  0.25000  Biso   1.000  C
  C63      1.0000 0.50000  0.22610  0.75000  Biso   1.000  C
  C64      1.0000 0.00000  0.72610  0.75000  Biso   1.000  C
  C65      1.0000 0.47910  0.83640  0.31650  Biso   1.000  C
  C66      1.0000 0.52090  0.83640  0.18350  Biso   1.000  C
  C67      1.0000 0.97910  0.33640  0.31650  Biso   1.000  C
  C68      1.0000 0.02090  0.33640  0.18350  Biso   1.000  C
  C69      1.0000 0.52090  0.16360  0.68350  Biso   1.000  C
  C70      1.0000 0.47910  0.16360  0.81650  Biso   1.000  C
  C71      1.0000 0.02090  0.66360  0.68350  Biso   1.000  C
  C72      1.0000 0.97910  0.66360  0.81650  Biso   1.000  C
  H49      1.0000 0.46400  0.80400  0.35500  Biso   1.000  H
  H50      1.0000 0.53600  0.80400  0.14500  Biso   1.000  H
  H51      1.0000 0.96400  0.30400  0.35500  Biso   1.000  H
  H52      1.0000 0.03600  0.30400  0.14500  Biso   1.000  H
  H53      1.0000 0.53600  0.19600  0.64500  Biso   1.000  H
  H54      1.0000 0.46400  0.19600  0.85500  Biso   1.000  H
  H55      1.0000 0.03600  0.69600  0.64500  Biso   1.000  H
  H56      1.0000 0.96400  0.69600  0.85500  Biso   1.000  H
  C73      1.0000 0.47986  0.95640  0.31380  Biso   1.000  C
  C74      1.0000 0.52014  0.95640  0.18620  Biso   1.000  C
  C75      1.0000 0.97986  0.45640  0.31380  Biso   1.000  C
  C76      1.0000 0.02014  0.45640  0.18620  Biso   1.000  C
  C77      1.0000 0.52014  0.04360  0.68620  Biso   1.000  C
  C78      1.0000 0.47986  0.04360  0.81380  Biso   1.000  C
  C79      1.0000 0.02014  0.54360  0.68620  Biso   1.000  C
  C80      1.0000 0.97986  0.54360  0.81380  Biso   1.000  C
  H57      1.0000 0.46990  0.99700  0.36700  Biso   1.000  H
  H58      1.0000 0.53010  0.99700  0.13300  Biso   1.000  H
  H59      1.0000 0.96990  0.49700  0.36700  Biso   1.000  H
  H60      1.0000 0.03010  0.49700  0.13300  Biso   1.000  H
  H61      1.0000 0.53010  0.00300  0.63300  Biso   1.000  H
  H62      1.0000 0.46990  0.00300  0.86700  Biso   1.000  H
  H63      1.0000 0.03010  0.50300  0.63300  Biso   1.000  H
  H64      1.0000 0.96990  0.50300  0.86700  Biso   1.000  H
  C81      1.0000 0.43811  0.19760  0.42080  Biso   1.000  C
  C82      1.0000 0.56189  0.19760  0.07920  Biso   1.000  C
  C83      1.0000 0.93811  0.69760  0.42080  Biso   1.000  C
  C84      1.0000 0.06189  0.69760  0.07920  Biso   1.000  C
  C85      1.0000 0.56189  0.80240  0.57920  Biso   1.000  C
  C86      1.0000 0.43811  0.80240  0.92080  Biso   1.000  C
  C87      1.0000 0.06189  0.30240  0.57920  Biso   1.000  C
  C88      1.0000 0.93811  0.30240  0.92080  Biso   1.000  C
