data_image0
_cell_length_a       10.5857
_cell_length_b       20.308
_cell_length_c       6.3289
_cell_angle_alpha    92.801
_cell_angle_beta     107.034
_cell_angle_gamma    92.175

_symmetry_space_group_name_H-M    "P 1"
_symmetry_int_tables_number       1

loop_
  _symmetry_equiv_pos_as_xyz
  'x, y, z'

loop_
  _atom_site_label
  _atom_site_occupancy
  _atom_site_fract_x
  _atom_site_fract_y
  _atom_site_fract_z
  _atom_site_thermal_displace_type
  _atom_site_B_iso_or_equiv
  _atom_site_type_symbol
  Zn1      1.0000 0.25724  0.18086  0.26858  Biso   1.000  Zn
  Zn2      1.0000 0.74276  0.81914  0.73142  Biso   1.000  Zn
  Cu1      1.0000 0.00000  0.00000  0.00000  Biso   1.000  Cu
  Cu2      1.0000 0.00000  0.50000  0.00000  Biso   1.000  Cu
  O1       1.0000 0.02950  0.04970  0.75920  Biso   1.000  O
  O2       1.0000 0.97050  0.95030  0.24080  Biso   1.000  O
  O3       1.0000 0.92040  0.10770  0.47640  Biso   1.000  O
  O4       1.0000 0.07960  0.89230  0.52360  Biso   1.000  O
  O5       1.0000 0.42180  0.13210  0.40320  Biso   1.000  O
  O6       1.0000 0.57820  0.86790  0.59680  Biso   1.000  O
  O7       1.0000 0.34250  0.06640  0.61290  Biso   1.000  O
  O8       1.0000 0.65750  0.93360  0.38710  Biso   1.000  O
  O9       1.0000 0.14010  0.46400  0.23540  Biso   1.000  O
  O10      1.0000 0.85990  0.53600  0.76460  Biso   1.000  O
  O11      1.0000 0.28380  0.38460  0.29300  Biso   1.000  O
  O12      1.0000 0.71620  0.61540  0.70700  Biso   1.000  O
  O13      1.0000 0.11330  0.24850  0.28990  Biso   1.000  O
  O14      1.0000 0.88670  0.75150  0.71010  Biso   1.000  O
  O15      1.0000 0.25330  0.22840  0.61260  Biso   1.000  O
  O16      1.0000 0.74670  0.77160  0.38740  Biso   1.000  O
  O17      1.0000 0.12770  0.09840  0.30060  Biso   1.000  O
  O18      1.0000 0.87230  0.90160  0.69940  Biso   1.000  O
  O19      1.0000 0.21400  0.15640  0.94000  Biso   1.000  O
  O20      1.0000 0.78600  0.84360  0.06000  Biso   1.000  O
  O21      1.0000 0.38120  0.26190  0.24990  Biso   1.000  O
  O22      1.0000 0.61880  0.73810  0.75010  Biso   1.000  O
  O23      1.0000 0.61520  0.27190  0.55920  Biso   1.000  O
  O24      1.0000 0.38480  0.72810  0.44080  Biso   1.000  O
  O25      1.0000 0.82120  0.42990  0.08150  Biso   1.000  O
  O26      1.0000 0.17880  0.57010  0.91850  Biso   1.000  O
  N1       1.0000 0.82310  0.03740  0.90560  Biso   1.000  N
  N2       1.0000 0.17690  0.96260  0.09440  Biso   1.000  N
  N3       1.0000 0.03430  0.42610  0.81330  Biso   1.000  N
  N4       1.0000 0.96570  0.57390  0.18670  Biso   1.000  N
  N5       1.0000 0.72600  0.24230  0.89980  Biso   1.000  N
  N6       1.0000 0.27400  0.75770  0.10020  Biso   1.000  N
  N7       1.0000 0.59840  0.41410  0.98240  Biso   1.000  N
  N8       1.0000 0.40160  0.58590  0.01760  Biso   1.000  N
  C1       1.0000 0.80290  0.06750  0.71460  Biso   1.000  C
  C2       1.0000 0.19710  0.93250  0.28540  Biso   1.000  C
  C3       1.0000 0.67990  0.08840  0.59770  Biso   1.000  C
  C4       1.0000 0.32010  0.91160  0.40230  Biso   1.000  C
  C5       1.0000 0.57430  0.07780  0.68270  Biso   1.000  C
  C6       1.0000 0.42570  0.92220  0.31730  Biso   1.000  C
  C7       1.0000 0.59810  0.05040  0.88710  Biso   1.000  C
  C8       1.0000 0.40190  0.94960  0.11290  Biso   1.000  C
  C9       1.0000 0.72340  0.03000  0.99380  Biso   1.000  C
  C10      1.0000 0.27660  0.97000  0.00620  Biso   1.000  C
  C11      1.0000 0.92520  0.07630  0.63910  Biso   1.000  C
  C12      1.0000 0.07480  0.92370  0.36090  Biso   1.000  C
  C13      1.0000 0.43350  0.09350  0.55440  Biso   1.000  C
  C14      1.0000 0.56650  0.90650  0.44560  Biso   1.000  C
  C15      1.0000 0.12970  0.38850  0.93090  Biso   1.000  C
  C16      1.0000 0.87030  0.61150  0.06910  Biso   1.000  C
  C17      1.0000 0.16890  0.33340  0.83390  Biso   1.000  C
  C18      1.0000 0.83110  0.66660  0.16610  Biso   1.000  C
  C19      1.0000 0.11060  0.31700  0.60750  Biso   1.000  C
  C20      1.0000 0.88940  0.68300  0.39250  Biso   1.000  C
  C21      1.0000 0.01370  0.35640  0.48850  Biso   1.000  C
  C22      1.0000 0.98630  0.64360  0.51150  Biso   1.000  C
  C23      1.0000 0.97880  0.41020  0.59840  Biso   1.000  C
  C24      1.0000 0.02120  0.58980  0.40160  Biso   1.000  C
  C25      1.0000 0.19090  0.41290  0.17440  Biso   1.000  C
  C26      1.0000 0.80910  0.58710  0.82560  Biso   1.000  C
  C27      1.0000 0.16160  0.26040  0.49700  Biso   1.000  C
  C28      1.0000 0.83840  0.73960  0.50300  Biso   1.000  C
  C29      1.0000 0.72750  0.22140  0.11600  Biso   1.000  C
  C30      1.0000 0.27250  0.77860  0.88400  Biso   1.000  C
  C31      1.0000 0.85550  0.25340  0.85600  Biso   1.000  C
  C32      1.0000 0.14450  0.74660  0.14400  Biso   1.000  C
  C33      1.0000 0.61760  0.25220  0.74200  Biso   1.000  C
  C34      1.0000 0.38240  0.74780  0.25800  Biso   1.000  C
  C35      1.0000 0.47150  0.40630  0.80700  Biso   1.000  C
  C36      1.0000 0.52850  0.59370  0.19300  Biso   1.000  C
  C37      1.0000 0.59710  0.40760  0.21300  Biso   1.000  C
  C38      1.0000 0.40290  0.59240  0.78700  Biso   1.000  C
  C39      1.0000 0.71150  0.42450  0.94390  Biso   1.000  C
  C40      1.0000 0.28850  0.57550  0.05610  Biso   1.000  C
  H1       1.0000 0.66830  0.10940  0.46290  Biso   1.000  H
  H2       1.0000 0.33170  0.89060  0.53710  Biso   1.000  H
  H3       1.0000 0.52880  0.04550  0.95350  Biso   1.000  H
  H4       1.0000 0.47120  0.95450  0.04650  Biso   1.000  H
  H5       1.0000 0.73860  0.01050  0.13200  Biso   1.000  H
  H6       1.0000 0.26140  0.98950  0.86800  Biso   1.000  H
  H7       1.0000 0.23450  0.30690  0.92000  Biso   1.000  H
  H8       1.0000 0.76550  0.69310  0.08000  Biso   1.000  H
  H9       1.0000 0.97200  0.34670  0.33490  Biso   1.000  H
  H10      1.0000 0.02800  0.65330  0.66510  Biso   1.000  H
  H11      1.0000 0.91210  0.43690  0.51670  Biso   1.000  H
  H12      1.0000 0.08790  0.56310  0.48330  Biso   1.000  H
  H13      1.0000 0.67880  0.18040  0.09970  Biso   1.000  H
  H14      1.0000 0.32120  0.81960  0.90030  Biso   1.000  H
  H15      1.0000 0.68880  0.25370  0.18750  Biso   1.000  H
  H16      1.0000 0.31120  0.74630  0.81250  Biso   1.000  H
  H17      1.0000 0.81640  0.21670  0.20200  Biso   1.000  H
  H18      1.0000 0.18360  0.78330  0.79800  Biso   1.000  H
  H19      1.0000 0.92480  0.24440  0.98310  Biso   1.000  H
  H20      1.0000 0.07520  0.75560  0.01690  Biso   1.000  H
  H21      1.0000 0.85830  0.22520  0.73370  Biso   1.000  H
  H22      1.0000 0.14170  0.77480  0.26630  Biso   1.000  H
  H23      1.0000 0.86530  0.29820  0.82290  Biso   1.000  H
  H24      1.0000 0.13470  0.70180  0.17710  Biso   1.000  H
  H25      1.0000 0.53520  0.24360  0.76990  Biso   1.000  H
  H26      1.0000 0.46480  0.75640  0.23010  Biso   1.000  H
  H27      1.0000 0.45740  0.44520  0.72810  Biso   1.000  H
  H28      1.0000 0.54260  0.55480  0.27190  Biso   1.000  H
  H29      1.0000 0.40210  0.39900  0.87190  Biso   1.000  H
  H30      1.0000 0.59790  0.60100  0.12810  Biso   1.000  H
  H31      1.0000 0.47290  0.36970  0.70890  Biso   1.000  H
  H32      1.0000 0.52710  0.63030  0.29110  Biso   1.000  H
  H33      1.0000 0.50810  0.40010  0.21490  Biso   1.000  H
  H34      1.0000 0.49190  0.59990  0.78510  Biso   1.000  H
  H35      1.0000 0.64710  0.37140  0.27170  Biso   1.000  H
  H36      1.0000 0.35290  0.62860  0.72830  Biso   1.000  H
  H37      1.0000 0.63410  0.44700  0.29870  Biso   1.000  H
  H38      1.0000 0.36590  0.55300  0.70130  Biso   1.000  H
  H39      1.0000 0.70880  0.42840  0.79370  Biso   1.000  H
  H40      1.0000 0.29120  0.57160  0.20630  Biso   1.000  H
