data_image0
_cell_length_a       10.5385
_cell_length_b       10.7768
_cell_length_c       14.7694
_cell_angle_alpha    90
_cell_angle_beta     108.72
_cell_angle_gamma    90

_symmetry_space_group_name_H-M    "P 1"
_symmetry_int_tables_number       1

loop_
  _symmetry_equiv_pos_as_xyz
  'x, y, z'

loop_
  _atom_site_label
  _atom_site_occupancy
  _atom_site_fract_x
  _atom_site_fract_y
  _atom_site_fract_z
  _atom_site_thermal_displace_type
  _atom_site_B_iso_or_equiv
  _atom_site_type_symbol
  Cu1      1.0000 0.90651  0.91405  0.98886  Biso   1.000  Cu
  Cu2      1.0000 0.09349  0.41405  0.51114  Biso   1.000  Cu
  Cu3      1.0000 0.09349  0.08595  0.01114  Biso   1.000  Cu
  Cu4      1.0000 0.90651  0.58595  0.48886  Biso   1.000  Cu
  O1       1.0000 0.80851  0.03757  0.03911  Biso   1.000  O
  O2       1.0000 0.19149  0.53757  0.46089  Biso   1.000  O
  O3       1.0000 0.19149  0.96243  0.96089  Biso   1.000  O
  O4       1.0000 0.80851  0.46243  0.53911  Biso   1.000  O
  O5       1.0000 0.97432  0.17798  0.06773  Biso   1.000  O
  O6       1.0000 0.02568  0.67798  0.43227  Biso   1.000  O
  O7       1.0000 0.02568  0.82202  0.93227  Biso   1.000  O
  O8       1.0000 0.97432  0.32202  0.56773  Biso   1.000  O
  O9       1.0000 0.80990  0.52009  0.36089  Biso   1.000  O
  O10      1.0000 0.19010  0.02009  0.13911  Biso   1.000  O
  O11      1.0000 0.19010  0.47991  0.63911  Biso   1.000  O
  O12      1.0000 0.80990  0.97991  0.86089  Biso   1.000  O
  O13      1.0000 0.97199  0.37819  0.38077  Biso   1.000  O
  O14      1.0000 0.02801  0.87819  0.11923  Biso   1.000  O
  O15      1.0000 0.02801  0.62181  0.61923  Biso   1.000  O
  O16      1.0000 0.97199  0.12181  0.88077  Biso   1.000  O
  N1       1.0000 0.21728  0.24552  0.01078  Biso   1.000  N
  N2       1.0000 0.78272  0.74552  0.48922  Biso   1.000  N
  N3       1.0000 0.78272  0.75448  0.98922  Biso   1.000  N
  N4       1.0000 0.21728  0.25448  0.51078  Biso   1.000  N
  C1       1.0000 0.86180  0.14020  0.06992  Biso   1.000  C
  C2       1.0000 0.13820  0.64020  0.43008  Biso   1.000  C
  C3       1.0000 0.13820  0.85980  0.93008  Biso   1.000  C
  C4       1.0000 0.86180  0.35980  0.56992  Biso   1.000  C
  C5       1.0000 0.43360  0.34190  0.06959  Biso   1.000  C
  C6       1.0000 0.56640  0.84190  0.43041  Biso   1.000  C
  C7       1.0000 0.56640  0.65810  0.93041  Biso   1.000  C
  C8       1.0000 0.43360  0.15810  0.56959  Biso   1.000  C
  C9       1.0000 0.86200  0.42723  0.33384  Biso   1.000  C
  C10      1.0000 0.13800  0.92723  0.16616  Biso   1.000  C
  C11      1.0000 0.13800  0.57277  0.66616  Biso   1.000  C
  C12      1.0000 0.86200  0.07277  0.83384  Biso   1.000  C
  C13      1.0000 0.58180  0.32590  0.11409  Biso   1.000  C
  C14      1.0000 0.41820  0.82590  0.38591  Biso   1.000  C
  C15      1.0000 0.41820  0.67410  0.88591  Biso   1.000  C
  C16      1.0000 0.58180  0.17410  0.61409  Biso   1.000  C
  C17      1.0000 0.85520  0.28760  0.19783  Biso   1.000  C
  C18      1.0000 0.14480  0.78760  0.30217  Biso   1.000  C
  C19      1.0000 0.14480  0.71240  0.80217  Biso   1.000  C
  C20      1.0000 0.85520  0.21240  0.69783  Biso   1.000  C
  H1       1.0000 0.94670  0.27470  0.22600  Biso   1.000  H
  H2       1.0000 0.05330  0.77470  0.27400  Biso   1.000  H
  H3       1.0000 0.05330  0.72530  0.77400  Biso   1.000  H
  H4       1.0000 0.94670  0.22530  0.72600  Biso   1.000  H
  C21      1.0000 0.78710  0.22576  0.11445  Biso   1.000  C
  C22      1.0000 0.21290  0.72576  0.38555  Biso   1.000  C
  C23      1.0000 0.21290  0.77424  0.88555  Biso   1.000  C
  C24      1.0000 0.78710  0.27424  0.61445  Biso   1.000  C
  C25      1.0000 0.37310  0.45820  0.05128  Biso   1.000  C
  C26      1.0000 0.62690  0.95820  0.44872  Biso   1.000  C
  C27      1.0000 0.62690  0.54180  0.94872  Biso   1.000  C
  C28      1.0000 0.37310  0.04180  0.55128  Biso   1.000  C
  H5       1.0000 0.42440  0.53010  0.06710  Biso   1.000  H
  H6       1.0000 0.57560  0.03010  0.43290  Biso   1.000  H
  H7       1.0000 0.57560  0.46990  0.93290  Biso   1.000  H
  H8       1.0000 0.42440  0.96990  0.56710  Biso   1.000  H
  C29      1.0000 0.65190  0.39065  0.19572  Biso   1.000  C
  C30      1.0000 0.34810  0.89065  0.30428  Biso   1.000  C
  C31      1.0000 0.34810  0.60935  0.80428  Biso   1.000  C
  C32      1.0000 0.65190  0.10935  0.69572  Biso   1.000  C
  H9       1.0000 0.60770  0.44900  0.22110  Biso   1.000  H
  H10      1.0000 0.39230  0.94900  0.27890  Biso   1.000  H
  H11      1.0000 0.39230  0.55100  0.77890  Biso   1.000  H
  H12      1.0000 0.60770  0.05100  0.72110  Biso   1.000  H
  C33      1.0000 0.64930  0.24293  0.07326  Biso   1.000  C
  C34      1.0000 0.35070  0.74293  0.42674  Biso   1.000  C
  C35      1.0000 0.35070  0.75707  0.92674  Biso   1.000  C
  C36      1.0000 0.64930  0.25707  0.57326  Biso   1.000  C
  H13      1.0000 0.60250  0.19900  0.01850  Biso   1.000  H
  H14      1.0000 0.39750  0.69900  0.48150  Biso   1.000  H
  H15      1.0000 0.39750  0.80100  0.98150  Biso   1.000  H
  H16      1.0000 0.60250  0.30100  0.51850  Biso   1.000  H
  C37      1.0000 0.78830  0.36910  0.24039  Biso   1.000  C
  C38      1.0000 0.21170  0.86910  0.25961  Biso   1.000  C
  C39      1.0000 0.21170  0.63090  0.75961  Biso   1.000  C
  C40      1.0000 0.78830  0.13090  0.74039  Biso   1.000  C
  C41      1.0000 0.16180  0.35810  0.98989  Biso   1.000  C
  C42      1.0000 0.83820  0.85810  0.51011  Biso   1.000  C
  C43      1.0000 0.83820  0.64190  0.01011  Biso   1.000  C
  C44      1.0000 0.16180  0.14190  0.48989  Biso   1.000  C
  H17      1.0000 0.06950  0.36390  0.96120  Biso   1.000  H
  H18      1.0000 0.93050  0.86390  0.53880  Biso   1.000  H
  H19      1.0000 0.93050  0.63610  0.03880  Biso   1.000  H
  H20      1.0000 0.06950  0.13610  0.46120  Biso   1.000  H
  C45      1.0000 0.35090  0.23910  0.04816  Biso   1.000  C
  C46      1.0000 0.64910  0.73910  0.45184  Biso   1.000  C
  C47      1.0000 0.64910  0.76090  0.95184  Biso   1.000  C
  C48      1.0000 0.35090  0.26090  0.54816  Biso   1.000  C
  H21      1.0000 0.39030  0.16100  0.06040  Biso   1.000  H
  H22      1.0000 0.60970  0.66100  0.43960  Biso   1.000  H
  H23      1.0000 0.60970  0.83900  0.93960  Biso   1.000  H
  H24      1.0000 0.39030  0.33900  0.56040  Biso   1.000  H
  C49      1.0000 0.23600  0.46510  0.00920  Biso   1.000  C
  C50      1.0000 0.76400  0.96510  0.49080  Biso   1.000  C
  C51      1.0000 0.76400  0.53490  0.99080  Biso   1.000  C
  C52      1.0000 0.23600  0.03490  0.50920  Biso   1.000  C
  H25      1.0000 0.19420  0.54190  0.99410  Biso   1.000  H
  H26      1.0000 0.80580  0.04190  0.50590  Biso   1.000  H
  H27      1.0000 0.80580  0.45810  0.00590  Biso   1.000  H
  H28      1.0000 0.19420  0.95810  0.49410  Biso   1.000  H
  O17      1.0000 0.51120  0.21080  0.33210  Biso   1.000  O
  O18      1.0000 0.48880  0.71080  0.16790  Biso   1.000  O
  O19      1.0000 0.48880  0.78920  0.66790  Biso   1.000  O
  O20      1.0000 0.51120  0.28920  0.83210  Biso   1.000  O
  N5       1.0000 0.34780  0.35920  0.29215  Biso   1.000  N
  N6       1.0000 0.65220  0.85920  0.20785  Biso   1.000  N
  N7       1.0000 0.65220  0.64080  0.70785  Biso   1.000  N
  N8       1.0000 0.34780  0.14080  0.79215  Biso   1.000  N
  C53      1.0000 0.39540  0.24350  0.29280  Biso   1.000  C
  C54      1.0000 0.60460  0.74350  0.20720  Biso   1.000  C
  C55      1.0000 0.60460  0.75650  0.70720  Biso   1.000  C
  C56      1.0000 0.39540  0.25650  0.79280  Biso   1.000  C
  H29      1.0000 0.33490  0.18290  0.26050  Biso   1.000  H
  H30      1.0000 0.66510  0.68290  0.23950  Biso   1.000  H
  H31      1.0000 0.66510  0.81710  0.73950  Biso   1.000  H
  H32      1.0000 0.33490  0.31710  0.76050  Biso   1.000  H
  C57      1.0000 0.20980  0.39000  0.24640  Biso   1.000  C
  C58      1.0000 0.79020  0.89000  0.25360  Biso   1.000  C
  C59      1.0000 0.79020  0.61000  0.75360  Biso   1.000  C
  C60      1.0000 0.20980  0.11000  0.74640  Biso   1.000  C
  H33      1.0000 0.16560  0.32240  0.20630  Biso   1.000  H
  H34      1.0000 0.83440  0.82240  0.29370  Biso   1.000  H
  H35      1.0000 0.83440  0.67760  0.79370  Biso   1.000  H
  H36      1.0000 0.16560  0.17760  0.70630  Biso   1.000  H
  H37      1.0000 0.20380  0.46320  0.20810  Biso   1.000  H
  H38      1.0000 0.79620  0.96320  0.29190  Biso   1.000  H
  H39      1.0000 0.79620  0.53680  0.79190  Biso   1.000  H
  H40      1.0000 0.20380  0.03680  0.70810  Biso   1.000  H
  H41      1.0000 0.16750  0.40510  0.29400  Biso   1.000  H
  H42      1.0000 0.83250  0.90510  0.20600  Biso   1.000  H
  H43      1.0000 0.83250  0.59490  0.70600  Biso   1.000  H
  H44      1.0000 0.16750  0.09490  0.79400  Biso   1.000  H
  C61      1.0000 0.43490  0.45700  0.34420  Biso   1.000  C
  C62      1.0000 0.56510  0.95700  0.15580  Biso   1.000  C
  C63      1.0000 0.56510  0.54300  0.65580  Biso   1.000  C
  C64      1.0000 0.43490  0.04300  0.84420  Biso   1.000  C
  H45      1.0000 0.40730  0.48220  0.39740  Biso   1.000  H
  H46      1.0000 0.59270  0.98220  0.10260  Biso   1.000  H
  H47      1.0000 0.59270  0.51780  0.60260  Biso   1.000  H
  H48      1.0000 0.40730  0.01780  0.89740  Biso   1.000  H
  H49      1.0000 0.42990  0.52660  0.30260  Biso   1.000  H
  H50      1.0000 0.57010  0.02660  0.19740  Biso   1.000  H
  H51      1.0000 0.57010  0.47340  0.69740  Biso   1.000  H
  H52      1.0000 0.42990  0.97340  0.80260  Biso   1.000  H
  H53      1.0000 0.52550  0.42710  0.36730  Biso   1.000  H
  H54      1.0000 0.47450  0.92710  0.13270  Biso   1.000  H
  H55      1.0000 0.47450  0.57290  0.63270  Biso   1.000  H
  H56      1.0000 0.52550  0.07290  0.86730  Biso   1.000  H
