data_image0
_cell_length_a       10.908
_cell_length_b       12.434
_cell_length_c       14.354
_cell_angle_alpha    90
_cell_angle_beta     107.495
_cell_angle_gamma    90

_symmetry_space_group_name_H-M    "P 1"
_symmetry_int_tables_number       1

loop_
  _symmetry_equiv_pos_as_xyz
  'x, y, z'

loop_
  _atom_site_label
  _atom_site_occupancy
  _atom_site_fract_x
  _atom_site_fract_y
  _atom_site_fract_z
  _atom_site_thermal_displace_type
  _atom_site_B_iso_or_equiv
  _atom_site_type_symbol
  C1       1.0000 0.20450  0.21180  0.57120  Biso   1.000  C
  C2       1.0000 0.79550  0.71180  0.92880  Biso   1.000  C
  C3       1.0000 0.79550  0.78820  0.42880  Biso   1.000  C
  C4       1.0000 0.20450  0.28820  0.07120  Biso   1.000  C
  H1       1.0000 0.11610  0.20090  0.55090  Biso   1.000  H
  H2       1.0000 0.88390  0.70090  0.94910  Biso   1.000  H
  H3       1.0000 0.88390  0.79910  0.44910  Biso   1.000  H
  H4       1.0000 0.11610  0.29910  0.05090  Biso   1.000  H
  C5       1.0000 0.41700  0.14100  0.63120  Biso   1.000  C
  C6       1.0000 0.58300  0.64100  0.86880  Biso   1.000  C
  C7       1.0000 0.58300  0.85900  0.36880  Biso   1.000  C
  C8       1.0000 0.41700  0.35900  0.13120  Biso   1.000  C
  H5       1.0000 0.47160  0.08260  0.65210  Biso   1.000  H
  H6       1.0000 0.52840  0.58260  0.84790  Biso   1.000  H
  H7       1.0000 0.52840  0.91740  0.34790  Biso   1.000  H
  H8       1.0000 0.47160  0.41740  0.15210  Biso   1.000  H
  C9       1.0000 0.46900  0.24400  0.63030  Biso   1.000  C
  C10      1.0000 0.53100  0.74400  0.86970  Biso   1.000  C
  C11      1.0000 0.53100  0.75600  0.36970  Biso   1.000  C
  C12      1.0000 0.46900  0.25600  0.13030  Biso   1.000  C
  C13      1.0000 0.38470  0.33080  0.59930  Biso   1.000  C
  C14      1.0000 0.61530  0.83080  0.90070  Biso   1.000  C
  C15      1.0000 0.61530  0.66920  0.40070  Biso   1.000  C
  C16      1.0000 0.38470  0.16920  0.09930  Biso   1.000  C
  H9       1.0000 0.41730  0.39980  0.59820  Biso   1.000  H
  H10      1.0000 0.58270  0.89980  0.90180  Biso   1.000  H
  H11      1.0000 0.58270  0.60020  0.40180  Biso   1.000  H
  H12      1.0000 0.41730  0.10020  0.09820  Biso   1.000  H
  C17      1.0000 0.61240  0.25540  0.66730  Biso   1.000  C
  C18      1.0000 0.38760  0.75540  0.83270  Biso   1.000  C
  C19      1.0000 0.38760  0.74460  0.33270  Biso   1.000  C
  C20      1.0000 0.61240  0.24460  0.16730  Biso   1.000  C
  C21      1.0000 0.68170  0.18760  0.74230  Biso   1.000  C
  C22      1.0000 0.31830  0.68760  0.75770  Biso   1.000  C
  C23      1.0000 0.31830  0.81240  0.25770  Biso   1.000  C
  C24      1.0000 0.68170  0.31240  0.24230  Biso   1.000  C
  H13      1.0000 0.63880  0.14060  0.77210  Biso   1.000  H
  H14      1.0000 0.36120  0.64060  0.72790  Biso   1.000  H
  H15      1.0000 0.36120  0.85940  0.22790  Biso   1.000  H
  H16      1.0000 0.63880  0.35940  0.27210  Biso   1.000  H
  C25      1.0000 0.81570  0.19090  0.77200  Biso   1.000  C
  C26      1.0000 0.18430  0.69090  0.72800  Biso   1.000  C
  C27      1.0000 0.18430  0.80910  0.22800  Biso   1.000  C
  C28      1.0000 0.81570  0.30910  0.27200  Biso   1.000  C
  C29      1.0000 0.88060  0.26090  0.72880  Biso   1.000  C
  C30      1.0000 0.11940  0.76090  0.77120  Biso   1.000  C
  C31      1.0000 0.11940  0.73910  0.27120  Biso   1.000  C
  C32      1.0000 0.88060  0.23910  0.22880  Biso   1.000  C
  H17      1.0000 0.96990  0.26250  0.74920  Biso   1.000  H
  H18      1.0000 0.03010  0.76250  0.75080  Biso   1.000  H
  H19      1.0000 0.03010  0.73750  0.25080  Biso   1.000  H
  H20      1.0000 0.96990  0.23750  0.24920  Biso   1.000  H
  C33      1.0000 0.81160  0.32920  0.65450  Biso   1.000  C
  C34      1.0000 0.18840  0.82920  0.84550  Biso   1.000  C
  C35      1.0000 0.18840  0.67080  0.34550  Biso   1.000  C
  C36      1.0000 0.81160  0.17080  0.15450  Biso   1.000  C
  C37      1.0000 0.67650  0.32650  0.62370  Biso   1.000  C
  C38      1.0000 0.32350  0.82650  0.87630  Biso   1.000  C
  C39      1.0000 0.32350  0.67350  0.37630  Biso   1.000  C
  C40      1.0000 0.67650  0.17350  0.12370  Biso   1.000  C
  H21      1.0000 0.63030  0.37220  0.57430  Biso   1.000  H
  H22      1.0000 0.36970  0.87220  0.92570  Biso   1.000  H
  H23      1.0000 0.36970  0.62780  0.42570  Biso   1.000  H
  H24      1.0000 0.63030  0.12780  0.07430  Biso   1.000  H
  C41      1.0000 0.88620  0.11930  0.85610  Biso   1.000  C
  C42      1.0000 0.11380  0.61930  0.64390  Biso   1.000  C
  C43      1.0000 0.11380  0.88070  0.14390  Biso   1.000  C
  C44      1.0000 0.88620  0.38070  0.35610  Biso   1.000  C
  C45      1.0000 0.88070  0.39730  0.60010  Biso   1.000  C
  C46      1.0000 0.11930  0.89730  0.89990  Biso   1.000  C
  C47      1.0000 0.11930  0.60270  0.39990  Biso   1.000  C
  C48      1.0000 0.88070  0.10270  0.10010  Biso   1.000  C
  Cu1      1.0000 0.09886  0.06719  0.02478  Biso   1.000  Cu
  Cu2      1.0000 0.90114  0.56719  0.47522  Biso   1.000  Cu
  Cu3      1.0000 0.90114  0.93281  0.97522  Biso   1.000  Cu
  Cu4      1.0000 0.09886  0.43281  0.52478  Biso   1.000  Cu
  N1       1.0000 0.25290  0.31420  0.57030  Biso   1.000  N
  N2       1.0000 0.74710  0.81420  0.92970  Biso   1.000  N
  N3       1.0000 0.74710  0.68580  0.42970  Biso   1.000  N
  N4       1.0000 0.25290  0.18580  0.07030  Biso   1.000  N
  N5       1.0000 0.28600  0.12540  0.60170  Biso   1.000  N
  N6       1.0000 0.71400  0.62540  0.89830  Biso   1.000  N
  N7       1.0000 0.71400  0.87460  0.39830  Biso   1.000  N
  N8       1.0000 0.28600  0.37460  0.10170  Biso   1.000  N
  O1       1.0000 0.99710  0.15020  0.90825  Biso   1.000  O
  O2       1.0000 0.00290  0.65020  0.59175  Biso   1.000  O
  O3       1.0000 0.00290  0.84980  0.09175  Biso   1.000  O
  O4       1.0000 0.99710  0.34980  0.40825  Biso   1.000  O
  O5       1.0000 0.83030  0.03570  0.86758  Biso   1.000  O
  O6       1.0000 0.16970  0.53570  0.63242  Biso   1.000  O
  O7       1.0000 0.16970  0.96430  0.13242  Biso   1.000  O
  O8       1.0000 0.83030  0.46430  0.36758  Biso   1.000  O
  O9       1.0000 0.99240  0.36590  0.60079  Biso   1.000  O
  O10      1.0000 0.00760  0.86590  0.89921  Biso   1.000  O
  O11      1.0000 0.00760  0.63410  0.39921  Biso   1.000  O
  O12      1.0000 0.99240  0.13410  0.10079  Biso   1.000  O
  O13      1.0000 0.82500  0.48090  0.55850  Biso   1.000  O
  O14      1.0000 0.17500  0.98090  0.94150  Biso   1.000  O
  O15      1.0000 0.17500  0.51910  0.44150  Biso   1.000  O
  O16      1.0000 0.82500  0.01910  0.05850  Biso   1.000  O
  C49      1.0000 0.47210  0.19020  0.37900  Biso   1.000  C
  C50      1.0000 0.52790  0.69020  0.12100  Biso   1.000  C
  C51      1.0000 0.52790  0.80980  0.62100  Biso   1.000  C
  C52      1.0000 0.47210  0.30980  0.87900  Biso   1.000  C
  H25      1.0000 0.48770  0.16520  0.32030  Biso   1.000  H
  H26      1.0000 0.51230  0.66520  0.17970  Biso   1.000  H
  H27      1.0000 0.51230  0.83480  0.67970  Biso   1.000  H
  H28      1.0000 0.48770  0.33480  0.82030  Biso   1.000  H
  H29      1.0000 0.44370  0.13130  0.41050  Biso   1.000  H
  H30      1.0000 0.55630  0.63130  0.08950  Biso   1.000  H
  H31      1.0000 0.55630  0.86870  0.58950  Biso   1.000  H
  H32      1.0000 0.44370  0.36870  0.91050  Biso   1.000  H
  H33      1.0000 0.55000  0.21950  0.42210  Biso   1.000  H
  H34      1.0000 0.45000  0.71950  0.07790  Biso   1.000  H
  H35      1.0000 0.45000  0.78050  0.57790  Biso   1.000  H
  H36      1.0000 0.55000  0.28050  0.92210  Biso   1.000  H
  C53      1.0000 0.23210  0.24660  0.32440  Biso   1.000  C
  C54      1.0000 0.76790  0.74660  0.17560  Biso   1.000  C
  C55      1.0000 0.76790  0.75340  0.67560  Biso   1.000  C
  C56      1.0000 0.23210  0.25340  0.82440  Biso   1.000  C
  H37      1.0000 0.18150  0.31080  0.30700  Biso   1.000  H
  H38      1.0000 0.81850  0.81080  0.19300  Biso   1.000  H
  H39      1.0000 0.81850  0.68920  0.69300  Biso   1.000  H
  H40      1.0000 0.18150  0.18920  0.80700  Biso   1.000  H
  H41      1.0000 0.21220  0.21170  0.37780  Biso   1.000  H
  H42      1.0000 0.78780  0.71170  0.12220  Biso   1.000  H
  H43      1.0000 0.78780  0.78830  0.62220  Biso   1.000  H
  H44      1.0000 0.21220  0.28830  0.87780  Biso   1.000  H
  H45      1.0000 0.21300  0.19890  0.26930  Biso   1.000  H
  H46      1.0000 0.78700  0.69890  0.23070  Biso   1.000  H
  H47      1.0000 0.78700  0.80110  0.73070  Biso   1.000  H
  H48      1.0000 0.21300  0.30110  0.76930  Biso   1.000  H
  C57      1.0000 0.40370  0.38290  0.36160  Biso   1.000  C
  C58      1.0000 0.59630  0.88290  0.13840  Biso   1.000  C
  C59      1.0000 0.59630  0.61710  0.63840  Biso   1.000  C
  C60      1.0000 0.40370  0.11710  0.86160  Biso   1.000  C
  H49      1.0000 0.33460  0.43020  0.34930  Biso   1.000  H
  H50      1.0000 0.66540  0.93020  0.15070  Biso   1.000  H
  H51      1.0000 0.66540  0.56980  0.65070  Biso   1.000  H
  H52      1.0000 0.33460  0.06980  0.84930  Biso   1.000  H
  N9       1.0000 0.37130  0.27500  0.35420  Biso   1.000  N
  N10      1.0000 0.62870  0.77500  0.14580  Biso   1.000  N
  N11      1.0000 0.62870  0.72500  0.64580  Biso   1.000  N
  N12      1.0000 0.37130  0.22500  0.85420  Biso   1.000  N
  O17      1.0000 0.51140  0.42600  0.38240  Biso   1.000  O
  O18      1.0000 0.48860  0.92600  0.11760  Biso   1.000  O
  O19      1.0000 0.48860  0.57400  0.61760  Biso   1.000  O
  O20      1.0000 0.51140  0.07400  0.88240  Biso   1.000  O
  O21      1.0000 0.24600  0.91040  0.56650  Biso   1.000  O
  O22      1.0000 0.75400  0.41040  0.93350  Biso   1.000  O
  O23      1.0000 0.75400  0.08960  0.43350  Biso   1.000  O
  O24      1.0000 0.24600  0.58960  0.06650  Biso   1.000  O
  H53      1.0000 0.27470  0.93330  0.62480  Biso   1.000  H
  H54      1.0000 0.72530  0.43330  0.87520  Biso   1.000  H
  H55      1.0000 0.72530  0.06670  0.37520  Biso   1.000  H
  H56      1.0000 0.27470  0.56670  0.12480  Biso   1.000  H
  H57      1.0000 0.29600  0.92990  0.53430  Biso   1.000  H
  H58      1.0000 0.70400  0.42990  0.96570  Biso   1.000  H
  H59      1.0000 0.70400  0.07010  0.46570  Biso   1.000  H
  H60      1.0000 0.29600  0.57010  0.03430  Biso   1.000  H
  O25      1.0000 0.11970  0.89810  0.45080  Biso   1.000  O
  O26      1.0000 0.88030  0.39810  0.04920  Biso   1.000  O
  O27      1.0000 0.88030  0.10190  0.54920  Biso   1.000  O
  O28      1.0000 0.11970  0.60190  0.95080  Biso   1.000  O
  H61      1.0000 0.16360  0.84190  0.44960  Biso   1.000  H
  H62      1.0000 0.83640  0.34190  0.05040  Biso   1.000  H
  H63      1.0000 0.83640  0.15810  0.55040  Biso   1.000  H
  H64      1.0000 0.16360  0.65810  0.94960  Biso   1.000  H
  H65      1.0000 0.11230  0.93500  0.39950  Biso   1.000  H
  H66      1.0000 0.88770  0.43500  0.10050  Biso   1.000  H
  H67      1.0000 0.88770  0.06500  0.60050  Biso   1.000  H
  H68      1.0000 0.11230  0.56500  0.89950  Biso   1.000  H
  O29      1.0000 0.00000  0.00000  0.50000  Biso   1.000  O
  O30      1.0000 0.00000  0.50000  0.00000  Biso   1.000  O
  H69      1.0000 0.95340  0.03260  0.44970  Biso   1.000  H
  H70      1.0000 0.04660  0.53260  0.05030  Biso   1.000  H
  H71      1.0000 0.04660  0.96740  0.55030  Biso   1.000  H
  H72      1.0000 0.95340  0.46740  0.94970  Biso   1.000  H
  H73      1.0000 0.98530  0.02500  0.55070  Biso   1.000  H
  H74      1.0000 0.01470  0.52500  0.94930  Biso   1.000  H
  H75      1.0000 0.01470  0.97500  0.44930  Biso   1.000  H
  H76      1.0000 0.98530  0.47500  0.05070  Biso   1.000  H
