data_image0
_cell_length_a       20.5028
_cell_length_b       9.5882
_cell_length_c       18.7797
_cell_angle_alpha    90
_cell_angle_beta     96.629
_cell_angle_gamma    90

_symmetry_space_group_name_H-M    "P 1"
_symmetry_int_tables_number       1

loop_
  _symmetry_equiv_pos_as_xyz
  'x, y, z'

loop_
  _atom_site_label
  _atom_site_occupancy
  _atom_site_fract_x
  _atom_site_fract_y
  _atom_site_fract_z
  _atom_site_thermal_displace_type
  _atom_site_B_iso_or_equiv
  _atom_site_type_symbol
  Cu1      1.0000 0.50000  0.24717  0.75000  Biso   1.000  Cu
  Cu2      1.0000 0.00000  0.74717  0.75000  Biso   1.000  Cu
  Cu3      1.0000 0.50000  0.75283  0.25000  Biso   1.000  Cu
  Cu4      1.0000 0.00000  0.25283  0.25000  Biso   1.000  Cu
  N1       1.0000 0.56205  0.25720  0.67295  Biso   1.000  N
  N2       1.0000 0.43795  0.25720  0.82705  Biso   1.000  N
  N3       1.0000 0.06205  0.75720  0.67295  Biso   1.000  N
  N4       1.0000 0.93795  0.75720  0.82705  Biso   1.000  N
  N5       1.0000 0.43795  0.74280  0.32705  Biso   1.000  N
  N6       1.0000 0.56205  0.74280  0.17295  Biso   1.000  N
  N7       1.0000 0.93795  0.24280  0.32705  Biso   1.000  N
  N8       1.0000 0.06205  0.24280  0.17295  Biso   1.000  N
  N9       1.0000 0.57826  0.24420  0.82723  Biso   1.000  N
  N10      1.0000 0.42174  0.24420  0.67277  Biso   1.000  N
  N11      1.0000 0.07826  0.74420  0.82723  Biso   1.000  N
  N12      1.0000 0.92174  0.74420  0.67277  Biso   1.000  N
  N13      1.0000 0.42174  0.75580  0.17277  Biso   1.000  N
  N14      1.0000 0.57826  0.75580  0.32723  Biso   1.000  N
  N15      1.0000 0.92174  0.25580  0.17277  Biso   1.000  N
  N16      1.0000 0.07826  0.25580  0.32723  Biso   1.000  N
  C1       1.0000 0.68446  0.22410  0.93132  Biso   1.000  C
  C2       1.0000 0.31554  0.22410  0.56868  Biso   1.000  C
  C3       1.0000 0.18446  0.72410  0.93132  Biso   1.000  C
  C4       1.0000 0.81554  0.72410  0.56868  Biso   1.000  C
  C5       1.0000 0.31554  0.77590  0.06868  Biso   1.000  C
  C6       1.0000 0.68446  0.77590  0.43132  Biso   1.000  C
  C7       1.0000 0.81554  0.27590  0.06868  Biso   1.000  C
  C8       1.0000 0.18446  0.27590  0.43132  Biso   1.000  C
  C9       1.0000 0.58515  0.33350  0.88204  Biso   1.000  C
  C10      1.0000 0.41485  0.33350  0.61796  Biso   1.000  C
  C11      1.0000 0.08515  0.83350  0.88204  Biso   1.000  C
  C12      1.0000 0.91485  0.83350  0.61796  Biso   1.000  C
  C13      1.0000 0.41485  0.66650  0.11796  Biso   1.000  C
  C14      1.0000 0.58515  0.66650  0.38204  Biso   1.000  C
  C15      1.0000 0.91485  0.16650  0.11796  Biso   1.000  C
  C16      1.0000 0.08515  0.16650  0.38204  Biso   1.000  C
  H1       1.0000 0.55361  0.40241  0.88461  Biso   1.000  H
  H2       1.0000 0.44639  0.40241  0.61539  Biso   1.000  H
  H3       1.0000 0.05361  0.90241  0.88461  Biso   1.000  H
  H4       1.0000 0.94639  0.90241  0.61539  Biso   1.000  H
  H5       1.0000 0.44639  0.59759  0.11539  Biso   1.000  H
  H6       1.0000 0.55361  0.59759  0.38461  Biso   1.000  H
  H7       1.0000 0.94639  0.09759  0.11539  Biso   1.000  H
  H8       1.0000 0.05361  0.09759  0.38461  Biso   1.000  H
  C17      1.0000 0.63800  0.32670  0.93548  Biso   1.000  C
  C18      1.0000 0.36200  0.32670  0.56452  Biso   1.000  C
  C19      1.0000 0.13800  0.82670  0.93548  Biso   1.000  C
  C20      1.0000 0.86200  0.82670  0.56452  Biso   1.000  C
  C21      1.0000 0.36200  0.67330  0.06452  Biso   1.000  C
  C22      1.0000 0.63800  0.67330  0.43548  Biso   1.000  C
  C23      1.0000 0.86200  0.17330  0.06452  Biso   1.000  C
  C24      1.0000 0.13800  0.17330  0.43548  Biso   1.000  C
  H9       1.0000 0.64190  0.39008  0.97321  Biso   1.000  H
  H10      1.0000 0.35810  0.39008  0.52679  Biso   1.000  H
  H11      1.0000 0.14190  0.89008  0.97321  Biso   1.000  H
  H12      1.0000 0.85810  0.89008  0.52679  Biso   1.000  H
  H13      1.0000 0.35810  0.60992  0.02679  Biso   1.000  H
  H14      1.0000 0.64190  0.60992  0.47321  Biso   1.000  H
  H15      1.0000 0.85810  0.10992  0.02679  Biso   1.000  H
  H16      1.0000 0.14190  0.10992  0.47321  Biso   1.000  H
  N17      1.0000 0.67222  0.34810  0.50343  Biso   1.000  N
  N18      1.0000 0.32778  0.34810  0.99657  Biso   1.000  N
  N19      1.0000 0.17222  0.84810  0.50343  Biso   1.000  N
  N20      1.0000 0.82778  0.84810  0.99657  Biso   1.000  N
  N21      1.0000 0.32778  0.65190  0.49657  Biso   1.000  N
  N22      1.0000 0.67222  0.65190  0.00343  Biso   1.000  N
  N23      1.0000 0.82778  0.15190  0.49657  Biso   1.000  N
  N24      1.0000 0.17222  0.15190  0.00343  Biso   1.000  N
  C25      1.0000 0.55314  0.17960  0.61320  Biso   1.000  C
  C26      1.0000 0.44686  0.17960  0.88680  Biso   1.000  C
  C27      1.0000 0.05314  0.67960  0.61320  Biso   1.000  C
  C28      1.0000 0.94686  0.67960  0.88680  Biso   1.000  C
  C29      1.0000 0.44686  0.82040  0.38680  Biso   1.000  C
  C30      1.0000 0.55314  0.82040  0.11320  Biso   1.000  C
  C31      1.0000 0.94686  0.32040  0.38680  Biso   1.000  C
  C32      1.0000 0.05314  0.32040  0.11320  Biso   1.000  C
  H17      1.0000 0.52192  0.10884  0.61053  Biso   1.000  H
  H18      1.0000 0.47808  0.10884  0.88947  Biso   1.000  H
  H19      1.0000 0.02192  0.60884  0.61053  Biso   1.000  H
  H20      1.0000 0.97808  0.60884  0.88947  Biso   1.000  H
  H21      1.0000 0.47808  0.89116  0.38947  Biso   1.000  H
  H22      1.0000 0.52192  0.89116  0.11053  Biso   1.000  H
  H23      1.0000 0.97808  0.39116  0.38947  Biso   1.000  H
  H24      1.0000 0.02192  0.39116  0.11053  Biso   1.000  H
  N25      1.0000 0.74448  0.20090  0.98199  Biso   1.000  N
  N26      1.0000 0.25552  0.20090  0.51801  Biso   1.000  N
  N27      1.0000 0.24448  0.70090  0.98199  Biso   1.000  N
  N28      1.0000 0.75552  0.70090  0.51801  Biso   1.000  N
  N29      1.0000 0.25552  0.79910  0.01801  Biso   1.000  N
  N30      1.0000 0.74448  0.79910  0.48199  Biso   1.000  N
  N31      1.0000 0.75552  0.29910  0.01801  Biso   1.000  N
  N32      1.0000 0.24448  0.29910  0.48199  Biso   1.000  N
  C33      1.0000 0.58805  0.19960  0.55559  Biso   1.000  C
  C34      1.0000 0.41195  0.19960  0.94441  Biso   1.000  C
  C35      1.0000 0.08805  0.69960  0.55559  Biso   1.000  C
  C36      1.0000 0.91195  0.69960  0.94441  Biso   1.000  C
  C37      1.0000 0.41195  0.80040  0.44441  Biso   1.000  C
  C38      1.0000 0.58805  0.80040  0.05559  Biso   1.000  C
  C39      1.0000 0.91195  0.30040  0.44441  Biso   1.000  C
  C40      1.0000 0.08805  0.30040  0.05559  Biso   1.000  C
  H25      1.0000 0.58075  0.14408  0.51486  Biso   1.000  H
  H26      1.0000 0.41925  0.14408  0.98514  Biso   1.000  H
  H27      1.0000 0.08075  0.64408  0.51486  Biso   1.000  H
  H28      1.0000 0.91925  0.64408  0.98514  Biso   1.000  H
  H29      1.0000 0.41925  0.85592  0.48514  Biso   1.000  H
  H30      1.0000 0.58075  0.85592  0.01486  Biso   1.000  H
  H31      1.0000 0.91925  0.35592  0.48514  Biso   1.000  H
  H32      1.0000 0.08075  0.35592  0.01486  Biso   1.000  H
  C41      1.0000 0.60886  0.35490  0.67708  Biso   1.000  C
  C42      1.0000 0.39114  0.35490  0.82292  Biso   1.000  C
  C43      1.0000 0.10886  0.85490  0.67708  Biso   1.000  C
  C44      1.0000 0.89114  0.85490  0.82292  Biso   1.000  C
  C45      1.0000 0.39114  0.64510  0.32292  Biso   1.000  C
  C46      1.0000 0.60886  0.64510  0.17708  Biso   1.000  C
  C47      1.0000 0.89114  0.14510  0.32292  Biso   1.000  C
  C48      1.0000 0.10886  0.14510  0.17708  Biso   1.000  C
  H33      1.0000 0.61685  0.40688  0.71899  Biso   1.000  H
  H34      1.0000 0.38315  0.40688  0.78101  Biso   1.000  H
  H35      1.0000 0.11685  0.90688  0.71899  Biso   1.000  H
  H36      1.0000 0.88315  0.90688  0.78101  Biso   1.000  H
  H37      1.0000 0.38315  0.59312  0.28101  Biso   1.000  H
  H38      1.0000 0.61685  0.59312  0.21899  Biso   1.000  H
  H39      1.0000 0.88315  0.09312  0.28101  Biso   1.000  H
  H40      1.0000 0.11685  0.09312  0.21899  Biso   1.000  H
  C49      1.0000 0.62437  0.14620  0.82472  Biso   1.000  C
  C50      1.0000 0.37563  0.14620  0.67528  Biso   1.000  C
  C51      1.0000 0.12437  0.64620  0.82472  Biso   1.000  C
  C52      1.0000 0.87563  0.64620  0.67528  Biso   1.000  C
  C53      1.0000 0.37563  0.85380  0.17528  Biso   1.000  C
  C54      1.0000 0.62437  0.85380  0.32472  Biso   1.000  C
  C55      1.0000 0.87563  0.35380  0.17528  Biso   1.000  C
  C56      1.0000 0.12437  0.35380  0.32472  Biso   1.000  C
  H41      1.0000 0.62034  0.08467  0.78620  Biso   1.000  H
  H42      1.0000 0.37966  0.08467  0.71380  Biso   1.000  H
  H43      1.0000 0.12034  0.58467  0.78620  Biso   1.000  H
  H44      1.0000 0.87966  0.58467  0.71380  Biso   1.000  H
  H45      1.0000 0.37966  0.91533  0.21380  Biso   1.000  H
  H46      1.0000 0.62034  0.91533  0.28620  Biso   1.000  H
  H47      1.0000 0.87966  0.41533  0.21380  Biso   1.000  H
  H48      1.0000 0.12034  0.41533  0.28620  Biso   1.000  H
  N33      1.0000 0.66166  0.27830  0.44975  Biso   1.000  N
  N34      1.0000 0.33834  0.27830  0.05025  Biso   1.000  N
  N35      1.0000 0.16166  0.77830  0.44975  Biso   1.000  N
  N36      1.0000 0.83834  0.77830  0.05025  Biso   1.000  N
  N37      1.0000 0.33834  0.72170  0.55025  Biso   1.000  N
  N38      1.0000 0.66166  0.72170  0.94975  Biso   1.000  N
  N39      1.0000 0.83834  0.22170  0.55025  Biso   1.000  N
  N40      1.0000 0.16166  0.22170  0.94975  Biso   1.000  N
  C57      1.0000 0.74683  0.42610  0.39990  Biso   1.000  C
  C58      1.0000 0.25317  0.42610  0.10010  Biso   1.000  C
  C59      1.0000 0.24683  0.92610  0.39990  Biso   1.000  C
  C60      1.0000 0.75317  0.92610  0.10010  Biso   1.000  C
  C61      1.0000 0.25317  0.57390  0.60010  Biso   1.000  C
  C62      1.0000 0.74683  0.57390  0.89990  Biso   1.000  C
  C63      1.0000 0.75317  0.07390  0.60010  Biso   1.000  C
  C64      1.0000 0.24683  0.07390  0.89990  Biso   1.000  C
  H49      1.0000 0.76221  0.46114  0.44489  Biso   1.000  H
  H50      1.0000 0.23779  0.46114  0.05511  Biso   1.000  H
  H51      1.0000 0.26221  0.96114  0.44489  Biso   1.000  H
  H52      1.0000 0.73779  0.96114  0.05511  Biso   1.000  H
  H53      1.0000 0.23779  0.53886  0.55511  Biso   1.000  H
  H54      1.0000 0.76221  0.53886  0.94489  Biso   1.000  H
  H55      1.0000 0.73779  0.03886  0.55511  Biso   1.000  H
  H56      1.0000 0.26221  0.03886  0.94489  Biso   1.000  H
  C65      1.0000 0.63456  0.30570  0.56043  Biso   1.000  C
  C66      1.0000 0.36544  0.30570  0.93957  Biso   1.000  C
  C67      1.0000 0.13456  0.80570  0.56043  Biso   1.000  C
  C68      1.0000 0.86544  0.80570  0.93957  Biso   1.000  C
  C69      1.0000 0.36544  0.69430  0.43957  Biso   1.000  C
  C70      1.0000 0.63456  0.69430  0.06043  Biso   1.000  C
  C71      1.0000 0.86544  0.19430  0.43957  Biso   1.000  C
  C72      1.0000 0.13456  0.19430  0.06043  Biso   1.000  C
  C73      1.0000 0.69675  0.33110  0.39178  Biso   1.000  C
  C74      1.0000 0.30325  0.33110  0.10822  Biso   1.000  C
  C75      1.0000 0.19675  0.83110  0.39178  Biso   1.000  C
  C76      1.0000 0.80325  0.83110  0.10822  Biso   1.000  C
  C77      1.0000 0.30325  0.66890  0.60822  Biso   1.000  C
  C78      1.0000 0.69675  0.66890  0.89178  Biso   1.000  C
  C79      1.0000 0.80325  0.16890  0.60822  Biso   1.000  C
  C80      1.0000 0.19675  0.16890  0.89178  Biso   1.000  C
  C81      1.0000 0.64559  0.38170  0.62202  Biso   1.000  C
  C82      1.0000 0.35441  0.38170  0.87798  Biso   1.000  C
  C83      1.0000 0.14559  0.88170  0.62202  Biso   1.000  C
  C84      1.0000 0.85441  0.88170  0.87798  Biso   1.000  C
  C85      1.0000 0.35441  0.61830  0.37798  Biso   1.000  C
  C86      1.0000 0.64559  0.61830  0.12202  Biso   1.000  C
  C87      1.0000 0.85441  0.11830  0.37798  Biso   1.000  C
  C88      1.0000 0.14559  0.11830  0.12202  Biso   1.000  C
  H57      1.0000 0.67763  0.45076  0.62665  Biso   1.000  H
  H58      1.0000 0.32237  0.45076  0.87335  Biso   1.000  H
  H59      1.0000 0.17763  0.95076  0.62665  Biso   1.000  H
  H60      1.0000 0.82237  0.95076  0.87335  Biso   1.000  H
  H61      1.0000 0.32237  0.54924  0.37335  Biso   1.000  H
  H62      1.0000 0.67763  0.54924  0.12665  Biso   1.000  H
  H63      1.0000 0.82237  0.04924  0.37335  Biso   1.000  H
  H64      1.0000 0.17763  0.04924  0.12665  Biso   1.000  H
  C89      1.0000 0.67725  0.13180  0.87591  Biso   1.000  C
  C90      1.0000 0.32275  0.13180  0.62409  Biso   1.000  C
  C91      1.0000 0.17725  0.63180  0.87591  Biso   1.000  C
  C92      1.0000 0.82275  0.63180  0.62409  Biso   1.000  C
  C93      1.0000 0.32275  0.86820  0.12409  Biso   1.000  C
  C94      1.0000 0.67725  0.86820  0.37591  Biso   1.000  C
  C95      1.0000 0.82275  0.36820  0.12409  Biso   1.000  C
  C96      1.0000 0.17725  0.36820  0.37591  Biso   1.000  C
  H65      1.0000 0.70755  0.06051  0.87286  Biso   1.000  H
  H66      1.0000 0.29245  0.06051  0.62714  Biso   1.000  H
  H67      1.0000 0.20755  0.56051  0.87286  Biso   1.000  H
  H68      1.0000 0.79245  0.56051  0.62714  Biso   1.000  H
  H69      1.0000 0.29245  0.93949  0.12714  Biso   1.000  H
  H70      1.0000 0.70755  0.93949  0.37286  Biso   1.000  H
  H71      1.0000 0.79245  0.43949  0.12714  Biso   1.000  H
  H72      1.0000 0.20755  0.43949  0.37286  Biso   1.000  H
  N41      1.0000 0.75455  0.42300  0.27360  Biso   1.000  N
  N42      1.0000 0.24545  0.42300  0.22640  Biso   1.000  N
  N43      1.0000 0.25455  0.92300  0.27360  Biso   1.000  N
  N44      1.0000 0.74545  0.92300  0.22640  Biso   1.000  N
  N45      1.0000 0.24545  0.57700  0.72640  Biso   1.000  N
  N46      1.0000 0.75455  0.57700  0.77360  Biso   1.000  N
  N47      1.0000 0.74545  0.07700  0.72640  Biso   1.000  N
  N48      1.0000 0.25455  0.07700  0.77360  Biso   1.000  N
  C97      1.0000 0.77402  0.46870  0.33930  Biso   1.000  C
  C98      1.0000 0.22598  0.46870  0.16070  Biso   1.000  C
  C99      1.0000 0.27402  0.96870  0.33930  Biso   1.000  C
  C100     1.0000 0.72598  0.96870  0.16070  Biso   1.000  C
  C101     1.0000 0.22598  0.53130  0.66070  Biso   1.000  C
  C102     1.0000 0.77402  0.53130  0.83930  Biso   1.000  C
  C103     1.0000 0.72598  0.03130  0.66070  Biso   1.000  C
  C104     1.0000 0.27402  0.03130  0.83930  Biso   1.000  C
  H73      1.0000 0.80804  0.53334  0.34503  Biso   1.000  H
  H74      1.0000 0.19196  0.53334  0.15497  Biso   1.000  H
  H75      1.0000 0.30804  0.03334  0.34503  Biso   1.000  H
  H76      1.0000 0.69196  0.03334  0.15497  Biso   1.000  H
  H77      1.0000 0.19196  0.46666  0.65497  Biso   1.000  H
  H78      1.0000 0.80804  0.46666  0.84503  Biso   1.000  H
  H79      1.0000 0.69196  0.96666  0.65497  Biso   1.000  H
  H80      1.0000 0.30804  0.96666  0.84503  Biso   1.000  H
  C105     1.0000 0.70650  0.33120  0.26799  Biso   1.000  C
  C106     1.0000 0.29350  0.33120  0.23201  Biso   1.000  C
  C107     1.0000 0.20650  0.83120  0.26799  Biso   1.000  C
  C108     1.0000 0.79350  0.83120  0.23201  Biso   1.000  C
  C109     1.0000 0.29350  0.66880  0.73201  Biso   1.000  C
  C110     1.0000 0.70650  0.66880  0.76799  Biso   1.000  C
  C111     1.0000 0.79350  0.16880  0.73201  Biso   1.000  C
  C112     1.0000 0.20650  0.16880  0.76799  Biso   1.000  C
  H81      1.0000 0.69199  0.29756  0.22246  Biso   1.000  H
  H82      1.0000 0.30801  0.29756  0.27754  Biso   1.000  H
  H83      1.0000 0.19199  0.79756  0.22246  Biso   1.000  H
  H84      1.0000 0.80801  0.79756  0.27754  Biso   1.000  H
  H85      1.0000 0.30801  0.70244  0.77754  Biso   1.000  H
  H86      1.0000 0.69199  0.70244  0.72246  Biso   1.000  H
  H87      1.0000 0.80801  0.20244  0.77754  Biso   1.000  H
  H88      1.0000 0.19199  0.20244  0.72246  Biso   1.000  H
  C113     1.0000 0.67590  0.28080  0.32486  Biso   1.000  C
  C114     1.0000 0.32410  0.28080  0.17514  Biso   1.000  C
  C115     1.0000 0.17590  0.78080  0.32486  Biso   1.000  C
  C116     1.0000 0.82410  0.78080  0.17514  Biso   1.000  C
  C117     1.0000 0.32410  0.71920  0.67514  Biso   1.000  C
  C118     1.0000 0.67590  0.71920  0.82486  Biso   1.000  C
  C119     1.0000 0.82410  0.21920  0.67514  Biso   1.000  C
  C120     1.0000 0.17590  0.21920  0.82486  Biso   1.000  C
  H89      1.0000 0.64239  0.21515  0.31775  Biso   1.000  H
  H90      1.0000 0.35761  0.21515  0.18225  Biso   1.000  H
  H91      1.0000 0.14239  0.71515  0.31775  Biso   1.000  H
  H92      1.0000 0.85761  0.71515  0.18225  Biso   1.000  H
  H93      1.0000 0.35761  0.78485  0.68225  Biso   1.000  H
  H94      1.0000 0.64239  0.78485  0.81775  Biso   1.000  H
  H95      1.0000 0.85761  0.28485  0.68225  Biso   1.000  H
  H96      1.0000 0.14239  0.28485  0.81775  Biso   1.000  H
  O1       1.0000 0.50000  0.99660  0.75000  Biso   1.000  O
  O2       1.0000 0.00000  0.49660  0.75000  Biso   1.000  O
  O3       1.0000 0.50000  0.00340  0.25000  Biso   1.000  O
  O4       1.0000 0.00000  0.50340  0.25000  Biso   1.000  O
  O5       1.0000 0.50000  0.51020  0.75000  Biso   1.000  O
  O6       1.0000 0.00000  0.01020  0.75000  Biso   1.000  O
  O7       1.0000 0.50000  0.48980  0.25000  Biso   1.000  O
  O8       1.0000 0.00000  0.98980  0.25000  Biso   1.000  O
  H97      1.0000 0.48660  0.94500  0.78290  Biso   1.000  H
  H98      1.0000 0.51340  0.94500  0.71710  Biso   1.000  H
  H99      1.0000 0.98660  0.44500  0.78290  Biso   1.000  H
  H100     1.0000 0.01340  0.44500  0.71710  Biso   1.000  H
  H101     1.0000 0.51340  0.05500  0.21710  Biso   1.000  H
  H102     1.0000 0.48660  0.05500  0.28290  Biso   1.000  H
  H103     1.0000 0.01340  0.55500  0.21710  Biso   1.000  H
  H104     1.0000 0.98660  0.55500  0.28290  Biso   1.000  H
  H105     1.0000 0.48620  0.56700  0.78050  Biso   1.000  H
  H106     1.0000 0.51380  0.56700  0.71950  Biso   1.000  H
  H107     1.0000 0.98620  0.06700  0.78050  Biso   1.000  H
  H108     1.0000 0.01380  0.06700  0.71950  Biso   1.000  H
  H109     1.0000 0.51380  0.43300  0.21950  Biso   1.000  H
  H110     1.0000 0.48620  0.43300  0.28050  Biso   1.000  H
  H111     1.0000 0.01380  0.93300  0.21950  Biso   1.000  H
  H112     1.0000 0.98620  0.93300  0.28050  Biso   1.000  H
  Cl1      1.0000 0.54953  0.75644  0.60764  Biso   1.000  Cl
  Cl2      1.0000 0.45047  0.75644  0.89236  Biso   1.000  Cl
  Cl3      1.0000 0.04953  0.25644  0.60764  Biso   1.000  Cl
  Cl4      1.0000 0.95047  0.25644  0.89236  Biso   1.000  Cl
  Cl5      1.0000 0.45047  0.24356  0.39236  Biso   1.000  Cl
  Cl6      1.0000 0.54953  0.24356  0.10764  Biso   1.000  Cl
  Cl7      1.0000 0.95047  0.74356  0.39236  Biso   1.000  Cl
  Cl8      1.0000 0.04953  0.74356  0.10764  Biso   1.000  Cl
  O9       1.0000 0.49630  0.85250  0.61300  Biso   1.000  O
  O10      1.0000 0.50370  0.85250  0.88700  Biso   1.000  O
  O11      1.0000 0.99630  0.35250  0.61300  Biso   1.000  O
  O12      1.0000 0.00370  0.35250  0.88700  Biso   1.000  O
  O13      1.0000 0.50370  0.14750  0.38700  Biso   1.000  O
  O14      1.0000 0.49630  0.14750  0.11300  Biso   1.000  O
  O15      1.0000 0.00370  0.64750  0.38700  Biso   1.000  O
  O16      1.0000 0.99630  0.64750  0.11300  Biso   1.000  O
  O17      1.0000 0.52460  0.63200  0.57120  Biso   1.000  O
  O18      1.0000 0.47540  0.63200  0.92880  Biso   1.000  O
  O19      1.0000 0.02460  0.13200  0.57120  Biso   1.000  O
  O20      1.0000 0.97540  0.13200  0.92880  Biso   1.000  O
  O21      1.0000 0.47540  0.36800  0.42880  Biso   1.000  O
  O22      1.0000 0.52460  0.36800  0.07120  Biso   1.000  O
  O23      1.0000 0.97540  0.86800  0.42880  Biso   1.000  O
  O24      1.0000 0.02460  0.86800  0.07120  Biso   1.000  O
  O25      1.0000 0.57960  0.72090  0.67840  Biso   1.000  O
  O26      1.0000 0.42040  0.72090  0.82160  Biso   1.000  O
  O27      1.0000 0.07960  0.22090  0.67840  Biso   1.000  O
  O28      1.0000 0.92040  0.22090  0.82160  Biso   1.000  O
  O29      1.0000 0.42040  0.27910  0.32160  Biso   1.000  O
  O30      1.0000 0.57960  0.27910  0.17840  Biso   1.000  O
  O31      1.0000 0.92040  0.77910  0.32160  Biso   1.000  O
  O32      1.0000 0.07960  0.77910  0.17840  Biso   1.000  O
  O33      1.0000 0.59760  0.82040  0.56790  Biso   1.000  O
  O34      1.0000 0.40240  0.82040  0.93210  Biso   1.000  O
  O35      1.0000 0.09760  0.32040  0.56790  Biso   1.000  O
  O36      1.0000 0.90240  0.32040  0.93210  Biso   1.000  O
  O37      1.0000 0.40240  0.17960  0.43210  Biso   1.000  O
  O38      1.0000 0.59760  0.17960  0.06790  Biso   1.000  O
  O39      1.0000 0.90240  0.67960  0.43210  Biso   1.000  O
  O40      1.0000 0.09760  0.67960  0.06790  Biso   1.000  O
  O41      1.0000 0.52320  0.86090  0.55730  Biso   1.000  O
  O42      1.0000 0.47680  0.86090  0.94270  Biso   1.000  O
  O43      1.0000 0.02320  0.36090  0.55730  Biso   1.000  O
  O44      1.0000 0.97680  0.36090  0.94270  Biso   1.000  O
  O45      1.0000 0.47680  0.13910  0.44270  Biso   1.000  O
  O46      1.0000 0.52320  0.13910  0.05730  Biso   1.000  O
  O47      1.0000 0.97680  0.63910  0.44270  Biso   1.000  O
  O48      1.0000 0.02320  0.63910  0.05730  Biso   1.000  O
  O49      1.0000 0.50380  0.64250  0.60760  Biso   1.000  O
  O50      1.0000 0.49620  0.64250  0.89240  Biso   1.000  O
  O51      1.0000 0.00380  0.14250  0.60760  Biso   1.000  O
  O52      1.0000 0.99620  0.14250  0.89240  Biso   1.000  O
  O53      1.0000 0.49620  0.35750  0.39240  Biso   1.000  O
  O54      1.0000 0.50380  0.35750  0.10760  Biso   1.000  O
  O55      1.0000 0.99620  0.85750  0.39240  Biso   1.000  O
  O56      1.0000 0.00380  0.85750  0.10760  Biso   1.000  O
  O57      1.0000 0.56020  0.81640  0.67830  Biso   1.000  O
  O58      1.0000 0.43980  0.81640  0.82170  Biso   1.000  O
  O59      1.0000 0.06020  0.31640  0.67830  Biso   1.000  O
  O60      1.0000 0.93980  0.31640  0.82170  Biso   1.000  O
  O61      1.0000 0.43980  0.18360  0.32170  Biso   1.000  O
  O62      1.0000 0.56020  0.18360  0.17830  Biso   1.000  O
  O63      1.0000 0.93980  0.68360  0.32170  Biso   1.000  O
  O64      1.0000 0.06020  0.68360  0.17830  Biso   1.000  O
  O65      1.0000 0.61090  0.70590  0.58740  Biso   1.000  O
  O66      1.0000 0.38910  0.70590  0.91260  Biso   1.000  O
  O67      1.0000 0.11090  0.20590  0.58740  Biso   1.000  O
  O68      1.0000 0.88910  0.20590  0.91260  Biso   1.000  O
  O69      1.0000 0.38910  0.29410  0.41260  Biso   1.000  O
  O70      1.0000 0.61090  0.29410  0.08740  Biso   1.000  O
  O71      1.0000 0.88910  0.79410  0.41260  Biso   1.000  O
  O72      1.0000 0.11090  0.79410  0.08740  Biso   1.000  O
