data_image0
_cell_length_a       7.7003
_cell_length_b       8.2841
_cell_length_c       11.8677
_cell_angle_alpha    106.005
_cell_angle_beta     91.715
_cell_angle_gamma    115.01

_symmetry_space_group_name_H-M    "P 1"
_symmetry_int_tables_number       1

loop_
  _symmetry_equiv_pos_as_xyz
  'x, y, z'

loop_
  _atom_site_label
  _atom_site_occupancy
  _atom_site_fract_x
  _atom_site_fract_y
  _atom_site_fract_z
  _atom_site_thermal_displace_type
  _atom_site_B_iso_or_equiv
  _atom_site_type_symbol
  Cu1      1.0000 0.45210  0.78190  0.47013  Biso   1.000  Cu
  Cu2      1.0000 0.54790  0.21810  0.52987  Biso   1.000  Cu
  N1       1.0000 0.34110  0.67170  0.30030  Biso   1.000  N
  N2       1.0000 0.65890  0.32830  0.69970  Biso   1.000  N
  N3       1.0000 0.42380  0.65590  0.21760  Biso   1.000  N
  N4       1.0000 0.57620  0.34410  0.78240  Biso   1.000  N
  N5       1.0000 0.50440  0.64930  0.13790  Biso   1.000  N
  N6       1.0000 0.49560  0.35070  0.86210  Biso   1.000  N
  N7       1.0000 0.28090  0.90470  0.51280  Biso   1.000  N
  N8       1.0000 0.71910  0.09530  0.48720  Biso   1.000  N
  O1       1.0000 0.82650  0.60430  0.55840  Biso   1.000  O
  O2       1.0000 0.17350  0.39570  0.44160  Biso   1.000  O
  O3       1.0000 0.70170  0.74330  0.75214  Biso   1.000  O
  O4       1.0000 0.29830  0.25670  0.24786  Biso   1.000  O
  O5       1.0000 0.52020  0.81260  0.64045  Biso   1.000  O
  O6       1.0000 0.47980  0.18740  0.35955  Biso   1.000  O
  O7       1.0000 0.63890  0.66810  0.44783  Biso   1.000  O
  O8       1.0000 0.36110  0.33190  0.55217  Biso   1.000  O
  C1       1.0000 0.63870  0.74990  0.65610  Biso   1.000  C
  C2       1.0000 0.36130  0.25010  0.34390  Biso   1.000  C
  C3       1.0000 0.70920  0.66920  0.54460  Biso   1.000  C
  C4       1.0000 0.29080  0.33080  0.45540  Biso   1.000  C
  N9       1.0000 0.88580  0.42010  0.30300  Biso   1.000  N
  N10      1.0000 0.11420  0.57990  0.69700  Biso   1.000  N
  H1       1.0000 0.79740  0.32810  0.32930  Biso   1.000  H
  H2       1.0000 0.20260  0.67190  0.67070  Biso   1.000  H
  H3       1.0000 0.93350  0.53100  0.36510  Biso   1.000  H
  H4       1.0000 0.06650  0.46900  0.63490  Biso   1.000  H
  H5       1.0000 0.24500  0.24000  0.02800  Biso   1.000  H
  H6       1.0000 0.75500  0.76000  0.97200  Biso   1.000  H
  N11      1.0000 0.02410  0.26830  0.09526  Biso   1.000  N
  N12      1.0000 0.97590  0.73170  0.90474  Biso   1.000  N
  N13      1.0000 0.02410  0.16960  0.90520  Biso   1.000  N
  N14      1.0000 0.97590  0.83040  0.09480  Biso   1.000  N
  H7       1.0000 0.06400  0.14200  0.84500  Biso   1.000  H
  H8       1.0000 0.93600  0.85800  0.15500  Biso   1.000  H
  C5       1.0000 0.77880  0.44030  0.20490  Biso   1.000  C
  C6       1.0000 0.22120  0.55970  0.79510  Biso   1.000  C
  H9       1.0000 0.86850  0.54580  0.17950  Biso   1.000  H
  H10      1.0000 0.13150  0.45420  0.82050  Biso   1.000  H
  H11      1.0000 0.67250  0.46890  0.23370  Biso   1.000  H
  H12      1.0000 0.32750  0.53110  0.76630  Biso   1.000  H
  C7       1.0000 0.69510  0.26050  0.10010  Biso   1.000  C
  C8       1.0000 0.30490  0.73950  0.89990  Biso   1.000  C
  H13      1.0000 0.62520  0.15260  0.12910  Biso   1.000  H
  H14      1.0000 0.37480  0.84740  0.87090  Biso   1.000  H
  H15      1.0000 0.59960  0.26470  0.04460  Biso   1.000  H
  H16      1.0000 0.40040  0.73530  0.95540  Biso   1.000  H
  C9       1.0000 0.84700  0.23060  0.03460  Biso   1.000  C
  C10      1.0000 0.15300  0.76940  0.96540  Biso   1.000  C
  C11      1.0000 0.84850  0.17040  0.91700  Biso   1.000  C
  C12      1.0000 0.15150  0.82960  0.08300  Biso   1.000  C
  H17      1.0000 0.76300  0.13100  0.85700  Biso   1.000  H
  H18      1.0000 0.23700  0.86900  0.14300  Biso   1.000  H
  C13      1.0000 0.12610  0.22910  0.01370  Biso   1.000  C
  C14      1.0000 0.87390  0.77090  0.98630  Biso   1.000  C
  Cu3      1.0000 0.10361  0.35821  0.26714  Biso   1.000  Cu
  Cu4      1.0000 0.89639  0.64179  0.73286  Biso   1.000  Cu
  N15      1.0000 0.22510  0.92510  0.61590  Biso   1.000  N
  N16      1.0000 0.77490  0.07490  0.38410  Biso   1.000  N
  N17      1.0000 0.18130  0.95220  0.71290  Biso   1.000  N
  N18      1.0000 0.81870  0.04780  0.28710  Biso   1.000  N
  O9       1.0000 0.99870  0.92260  0.34730  Biso   1.000  O
  O10      1.0000 0.00130  0.07740  0.65270  Biso   1.000  O
  N19      1.0000 0.47110  0.73910  0.24130  Biso   1.000  N
  N20      1.0000 0.52890  0.26090  0.75870  Biso   1.000  N
  N21      1.0000 0.57750  0.78330  0.17680  Biso   1.000  N
  N22      1.0000 0.42250  0.21670  0.82320  Biso   1.000  N
  N23      1.0000 0.16700  0.88820  0.43490  Biso   1.000  N
  N24      1.0000 0.83300  0.11180  0.56510  Biso   1.000  N
  N25      1.0000 0.04990  0.87640  0.36870  Biso   1.000  N
  N26      1.0000 0.95010  0.12360  0.63130  Biso   1.000  N
