data_image0
_cell_length_a       8.4025
_cell_length_b       10.2909
_cell_length_c       17.774
_cell_angle_alpha    90
_cell_angle_beta     103.533
_cell_angle_gamma    90

_symmetry_space_group_name_H-M    "P 1"
_symmetry_int_tables_number       1

loop_
  _symmetry_equiv_pos_as_xyz
  'x, y, z'

loop_
  _atom_site_label
  _atom_site_occupancy
  _atom_site_fract_x
  _atom_site_fract_y
  _atom_site_fract_z
  _atom_site_thermal_displace_type
  _atom_site_B_iso_or_equiv
  _atom_site_type_symbol
  O1       1.0000 0.88120  0.70620  0.68707  Biso   1.000  O
  O2       1.0000 0.61880  0.20620  0.81293  Biso   1.000  O
  O3       1.0000 0.11880  0.29380  0.31293  Biso   1.000  O
  O4       1.0000 0.38120  0.79380  0.18707  Biso   1.000  O
  C1       1.0000 0.43440  0.14230  0.10550  Biso   1.000  C
  C2       1.0000 0.06560  0.64230  0.39450  Biso   1.000  C
  C3       1.0000 0.56560  0.85770  0.89450  Biso   1.000  C
  C4       1.0000 0.93440  0.35770  0.60550  Biso   1.000  C
  H1       1.0000 0.43440  0.12030  0.15630  Biso   1.000  H
  H2       1.0000 0.06560  0.62030  0.34370  Biso   1.000  H
  H3       1.0000 0.56560  0.87970  0.84370  Biso   1.000  H
  H4       1.0000 0.93440  0.37970  0.65630  Biso   1.000  H
  C5       1.0000 0.53630  0.23900  0.09267  Biso   1.000  C
  C6       1.0000 0.96370  0.73900  0.40733  Biso   1.000  C
  C7       1.0000 0.46370  0.76100  0.90733  Biso   1.000  C
  C8       1.0000 0.03630  0.26100  0.59267  Biso   1.000  C
  H5       1.0000 0.60450  0.28120  0.13420  Biso   1.000  H
  H6       1.0000 0.89550  0.78120  0.36580  Biso   1.000  H
  H7       1.0000 0.39550  0.71880  0.86580  Biso   1.000  H
  H8       1.0000 0.10450  0.21880  0.63420  Biso   1.000  H
  O5       1.0000 0.71810  0.53245  0.67538  Biso   1.000  O
  O6       1.0000 0.78190  0.03245  0.82462  Biso   1.000  O
  O7       1.0000 0.28190  0.46755  0.32462  Biso   1.000  O
  O8       1.0000 0.21810  0.96755  0.17538  Biso   1.000  O
  C9       1.0000 0.81060  0.62020  0.71532  Biso   1.000  C
  C10      1.0000 0.68940  0.12020  0.78468  Biso   1.000  C
  C11      1.0000 0.18940  0.37980  0.28468  Biso   1.000  C
  C12      1.0000 0.31060  0.87980  0.21532  Biso   1.000  C
  C13      1.0000 0.53770  0.27430  0.01691  Biso   1.000  C
  C14      1.0000 0.96230  0.77430  0.48309  Biso   1.000  C
  C15      1.0000 0.46230  0.72570  0.98309  Biso   1.000  C
  C16      1.0000 0.03770  0.22570  0.51691  Biso   1.000  C
  Cu1      1.0000 0.17631  0.94665  0.06664  Biso   1.000  Cu
  Cu2      1.0000 0.32369  0.44665  0.43336  Biso   1.000  Cu
  Cu3      1.0000 0.82369  0.05335  0.93336  Biso   1.000  Cu
  Cu4      1.0000 0.67631  0.55335  0.56664  Biso   1.000  Cu
  O9       1.0000 0.03370  0.78861  0.05473  Biso   1.000  O
  O10      1.0000 0.46630  0.28861  0.44527  Biso   1.000  O
  O11      1.0000 0.96630  0.21139  0.94527  Biso   1.000  O
  O12      1.0000 0.53370  0.71139  0.55473  Biso   1.000  O
  O13      1.0000 0.07850  0.89630  0.95642  Biso   1.000  O
  O14      1.0000 0.42150  0.39630  0.54358  Biso   1.000  O
  O15      1.0000 0.92150  0.10370  0.04358  Biso   1.000  O
  O16      1.0000 0.57850  0.60370  0.45642  Biso   1.000  O
  C17      1.0000 0.92600  0.69700  0.92904  Biso   1.000  C
  C18      1.0000 0.57400  0.19700  0.57096  Biso   1.000  C
  C19      1.0000 0.07400  0.30300  0.07096  Biso   1.000  C
  C20      1.0000 0.42600  0.80300  0.42904  Biso   1.000  C
  N1       1.0000 0.33360  0.07750  0.04717  Biso   1.000  N
  N2       1.0000 0.16640  0.57750  0.45283  Biso   1.000  N
  N3       1.0000 0.66640  0.92250  0.95283  Biso   1.000  N
  N4       1.0000 0.83360  0.42250  0.54717  Biso   1.000  N
  N5       1.0000 0.67690  0.40040  0.93632  Biso   1.000  N
  N6       1.0000 0.82310  0.90040  0.56368  Biso   1.000  N
  N7       1.0000 0.32310  0.59960  0.06368  Biso   1.000  N
  N8       1.0000 0.17690  0.09960  0.43632  Biso   1.000  N
  H9       1.0000 0.64490  0.33830  0.90390  Biso   1.000  H
  H10      1.0000 0.85510  0.83830  0.59610  Biso   1.000  H
  H11      1.0000 0.35510  0.66170  0.09610  Biso   1.000  H
  H12      1.0000 0.14490  0.16170  0.40390  Biso   1.000  H
  C21      1.0000 0.91570  0.70580  0.84976  Biso   1.000  C
  C22      1.0000 0.58430  0.20580  0.65024  Biso   1.000  C
  C23      1.0000 0.08430  0.29420  0.15024  Biso   1.000  C
  C24      1.0000 0.41570  0.79420  0.34976  Biso   1.000  C
  H13      1.0000 0.96640  0.77360  0.82980  Biso   1.000  H
  H14      1.0000 0.53360  0.27360  0.67020  Biso   1.000  H
  H15      1.0000 0.03360  0.22640  0.17020  Biso   1.000  H
  H16      1.0000 0.46640  0.72640  0.32980  Biso   1.000  H
  C25      1.0000 0.84970  0.59730  0.96050  Biso   1.000  C
  C26      1.0000 0.65030  0.09730  0.53950  Biso   1.000  C
  C27      1.0000 0.15030  0.40270  0.03950  Biso   1.000  C
  C28      1.0000 0.34970  0.90270  0.46050  Biso   1.000  C
  H17      1.0000 0.85790  0.59320  0.01350  Biso   1.000  H
  H18      1.0000 0.64210  0.09320  0.48650  Biso   1.000  H
  H19      1.0000 0.14210  0.40680  0.98650  Biso   1.000  H
  H20      1.0000 0.35790  0.90680  0.51350  Biso   1.000  H
  C29      1.0000 0.82820  0.61160  0.80111  Biso   1.000  C
  C30      1.0000 0.67180  0.11160  0.69889  Biso   1.000  C
  C31      1.0000 0.17180  0.38840  0.19889  Biso   1.000  C
  C32      1.0000 0.32820  0.88840  0.30111  Biso   1.000  C
  C33      1.0000 0.01600  0.79680  0.98240  Biso   1.000  C
  C34      1.0000 0.48400  0.29680  0.51760  Biso   1.000  C
  C35      1.0000 0.98400  0.20320  0.01760  Biso   1.000  C
  C36      1.0000 0.51600  0.70320  0.48240  Biso   1.000  C
  C37      1.0000 0.75220  0.51090  0.83205  Biso   1.000  C
  C38      1.0000 0.74780  0.01090  0.66795  Biso   1.000  C
  C39      1.0000 0.24780  0.48910  0.16795  Biso   1.000  C
  C40      1.0000 0.25220  0.98910  0.33205  Biso   1.000  C
  H21      1.0000 0.69490  0.44750  0.79930  Biso   1.000  H
  H22      1.0000 0.80510  0.94750  0.70070  Biso   1.000  H
  H23      1.0000 0.30510  0.55250  0.20070  Biso   1.000  H
  H24      1.0000 0.19490  0.05250  0.29930  Biso   1.000  H
  O17      1.0000 0.68720  0.46500  0.05993  Biso   1.000  O
  O18      1.0000 0.81280  0.96500  0.44007  Biso   1.000  O
  O19      1.0000 0.31280  0.53500  0.94007  Biso   1.000  O
  O20      1.0000 0.18720  0.03500  0.55993  Biso   1.000  O
  C41      1.0000 0.76070  0.50370  0.91093  Biso   1.000  C
  C42      1.0000 0.73930  0.00370  0.58907  Biso   1.000  C
  C43      1.0000 0.23930  0.49630  0.08907  Biso   1.000  C
  C44      1.0000 0.26070  0.99630  0.41093  Biso   1.000  C
  C45      1.0000 0.33630  0.10970  0.97428  Biso   1.000  C
  C46      1.0000 0.16370  0.60970  0.52572  Biso   1.000  C
  C47      1.0000 0.66370  0.89030  0.02572  Biso   1.000  C
  C48      1.0000 0.83630  0.39030  0.47428  Biso   1.000  C
  H25      1.0000 0.26860  0.06470  0.93380  Biso   1.000  H
  H26      1.0000 0.23140  0.56470  0.56620  Biso   1.000  H
  H27      1.0000 0.73140  0.93530  0.06620  Biso   1.000  H
  H28      1.0000 0.76860  0.43530  0.43380  Biso   1.000  H
  C49      1.0000 0.43520  0.20670  0.95694  Biso   1.000  C
  C50      1.0000 0.06480  0.70670  0.54306  Biso   1.000  C
  C51      1.0000 0.56480  0.79330  0.04306  Biso   1.000  C
  C52      1.0000 0.93520  0.29330  0.45694  Biso   1.000  C
  H29      1.0000 0.43330  0.22660  0.90570  Biso   1.000  H
  H30      1.0000 0.06670  0.72660  0.59430  Biso   1.000  H
  H31      1.0000 0.56670  0.77340  0.09430  Biso   1.000  H
  H32      1.0000 0.93330  0.27340  0.40570  Biso   1.000  H
  C53      1.0000 0.64140  0.38860  0.00658  Biso   1.000  C
  C54      1.0000 0.85860  0.88860  0.49342  Biso   1.000  C
  C55      1.0000 0.35860  0.61140  0.99342  Biso   1.000  C
  C56      1.0000 0.14140  0.11140  0.50658  Biso   1.000  C
  C57      1.0000 0.26480  0.50680  0.75950  Biso   1.000  C
  C58      1.0000 0.23520  0.00680  0.74050  Biso   1.000  C
  C59      1.0000 0.73520  0.49320  0.24050  Biso   1.000  C
  C60      1.0000 0.76480  0.99320  0.25950  Biso   1.000  C
  H33      1.0000 0.19270  0.49050  0.79090  Biso   1.000  H
  H34      1.0000 0.30730  0.99050  0.70910  Biso   1.000  H
  H35      1.0000 0.80730  0.50950  0.20910  Biso   1.000  H
  H36      1.0000 0.69270  0.00950  0.29090  Biso   1.000  H
  C61      1.0000 0.35730  0.52780  0.71920  Biso   1.000  C
  C62      1.0000 0.14270  0.02780  0.78080  Biso   1.000  C
  C63      1.0000 0.64270  0.47220  0.28080  Biso   1.000  C
  C64      1.0000 0.85730  0.97220  0.21920  Biso   1.000  C
  H37      1.0000 0.42940  0.54410  0.68780  Biso   1.000  H
  H38      1.0000 0.07060  0.04410  0.81220  Biso   1.000  H
  H39      1.0000 0.57060  0.45590  0.31220  Biso   1.000  H
  H40      1.0000 0.92940  0.95590  0.18780  Biso   1.000  H
