data_image0
_cell_length_a       8.5188
_cell_length_b       10.2071
_cell_length_c       17.775
_cell_angle_alpha    90
_cell_angle_beta     103.329
_cell_angle_gamma    90

_symmetry_space_group_name_H-M    "P 1"
_symmetry_int_tables_number       1

loop_
  _symmetry_equiv_pos_as_xyz
  'x, y, z'

loop_
  _atom_site_label
  _atom_site_occupancy
  _atom_site_fract_x
  _atom_site_fract_y
  _atom_site_fract_z
  _atom_site_thermal_displace_type
  _atom_site_B_iso_or_equiv
  _atom_site_type_symbol
  Cu1      1.0000 0.17520  0.05535  0.56679  Biso   1.000  Cu
  Cu2      1.0000 0.32480  0.55535  0.93321  Biso   1.000  Cu
  Cu3      1.0000 0.82480  0.94465  0.43321  Biso   1.000  Cu
  Cu4      1.0000 0.67520  0.44465  0.06679  Biso   1.000  Cu
  C1       1.0000 0.30950  0.11980  0.71537  Biso   1.000  C
  C2       1.0000 0.19050  0.61980  0.78463  Biso   1.000  C
  C3       1.0000 0.69050  0.88020  0.28463  Biso   1.000  C
  C4       1.0000 0.80950  0.38020  0.21537  Biso   1.000  C
  C5       1.0000 0.32620  0.11080  0.80127  Biso   1.000  C
  C6       1.0000 0.17380  0.61080  0.69873  Biso   1.000  C
  C7       1.0000 0.67380  0.88920  0.19873  Biso   1.000  C
  C8       1.0000 0.82620  0.38920  0.30127  Biso   1.000  C
  C9       1.0000 0.24920  0.01040  0.83182  Biso   1.000  C
  C10      1.0000 0.25080  0.51040  0.66818  Biso   1.000  C
  C11      1.0000 0.75080  0.98960  0.16818  Biso   1.000  C
  C12      1.0000 0.74920  0.48960  0.33182  Biso   1.000  C
  H1       1.0000 0.18970  0.94640  0.79820  Biso   1.000  H
  H2       1.0000 0.31030  0.44640  0.70180  Biso   1.000  H
  H3       1.0000 0.81030  0.05360  0.20180  Biso   1.000  H
  H4       1.0000 0.68970  0.55360  0.29820  Biso   1.000  H
  C13      1.0000 0.25800  0.00240  0.91075  Biso   1.000  C
  C14      1.0000 0.24200  0.50240  0.58925  Biso   1.000  C
  C15      1.0000 0.74200  0.99760  0.08925  Biso   1.000  C
  C16      1.0000 0.75800  0.49760  0.41075  Biso   1.000  C
  C17      1.0000 0.34800  0.09540  0.96048  Biso   1.000  C
  C18      1.0000 0.15200  0.59540  0.53952  Biso   1.000  C
  C19      1.0000 0.65200  0.90460  0.03952  Biso   1.000  C
  C20      1.0000 0.84800  0.40460  0.46048  Biso   1.000  C
  H5       1.0000 0.35660  0.09050  0.01470  Biso   1.000  H
  H6       1.0000 0.14340  0.59050  0.48530  Biso   1.000  H
  H7       1.0000 0.64340  0.90950  0.98530  Biso   1.000  H
  H8       1.0000 0.85660  0.40950  0.51470  Biso   1.000  H
  C21      1.0000 0.42480  0.19510  0.92929  Biso   1.000  C
  C22      1.0000 0.07520  0.69510  0.57071  Biso   1.000  C
  C23      1.0000 0.57520  0.80490  0.07071  Biso   1.000  C
  C24      1.0000 0.92480  0.30490  0.42929  Biso   1.000  C
  C25      1.0000 0.41490  0.20450  0.85013  Biso   1.000  C
  C26      1.0000 0.08510  0.70450  0.64987  Biso   1.000  C
  C27      1.0000 0.58510  0.79550  0.14987  Biso   1.000  C
  C28      1.0000 0.91490  0.29550  0.35013  Biso   1.000  C
  H9       1.0000 0.46760  0.27350  0.82990  Biso   1.000  H
  H10      1.0000 0.03240  0.77350  0.67010  Biso   1.000  H
  H11      1.0000 0.53240  0.72650  0.17010  Biso   1.000  H
  H12      1.0000 0.96760  0.22650  0.32990  Biso   1.000  H
  C29      1.0000 0.51590  0.29440  0.98270  Biso   1.000  C
  C30      1.0000 0.98410  0.79440  0.51730  Biso   1.000  C
  C31      1.0000 0.48410  0.70560  0.01730  Biso   1.000  C
  C32      1.0000 0.01590  0.20560  0.48270  Biso   1.000  C
  C33      1.0000 0.13980  0.88680  0.00651  Biso   1.000  C
  C34      1.0000 0.36020  0.38680  0.49349  Biso   1.000  C
  C35      1.0000 0.86020  0.11320  0.99349  Biso   1.000  C
  C36      1.0000 0.63980  0.61320  0.50651  Biso   1.000  C
  C37      1.0000 0.03490  0.77210  0.01665  Biso   1.000  C
  C38      1.0000 0.46510  0.27210  0.48335  Biso   1.000  C
  C39      1.0000 0.96510  0.22790  0.98335  Biso   1.000  C
  C40      1.0000 0.53490  0.72790  0.51665  Biso   1.000  C
  C41      1.0000 0.93320  0.70500  0.95696  Biso   1.000  C
  C42      1.0000 0.56680  0.20500  0.54304  Biso   1.000  C
  C43      1.0000 0.06680  0.29500  0.04304  Biso   1.000  C
  C44      1.0000 0.43320  0.79500  0.45696  Biso   1.000  C
  H13      1.0000 0.93170  0.72560  0.90470  Biso   1.000  H
  H14      1.0000 0.56830  0.22560  0.59530  Biso   1.000  H
  H15      1.0000 0.06830  0.27440  0.09530  Biso   1.000  H
  H16      1.0000 0.43170  0.77440  0.40470  Biso   1.000  H
  C45      1.0000 0.83440  0.60840  0.97424  Biso   1.000  C
  C46      1.0000 0.66560  0.10840  0.52576  Biso   1.000  C
  C47      1.0000 0.16560  0.39160  0.02576  Biso   1.000  C
  C48      1.0000 0.33440  0.89160  0.47424  Biso   1.000  C
  H17      1.0000 0.76550  0.56280  0.93290  Biso   1.000  H
  H18      1.0000 0.73450  0.06280  0.56710  Biso   1.000  H
  H19      1.0000 0.23450  0.43720  0.06710  Biso   1.000  H
  H20      1.0000 0.26550  0.93720  0.43290  Biso   1.000  H
  C49      1.0000 0.93100  0.64030  0.10508  Biso   1.000  C
  C50      1.0000 0.56900  0.14030  0.39492  Biso   1.000  C
  C51      1.0000 0.06900  0.35970  0.89492  Biso   1.000  C
  C52      1.0000 0.43100  0.85970  0.60508  Biso   1.000  C
  H21      1.0000 0.93070  0.61760  0.15690  Biso   1.000  H
  H22      1.0000 0.56930  0.11760  0.34310  Biso   1.000  H
  H23      1.0000 0.06930  0.38240  0.84310  Biso   1.000  H
  H24      1.0000 0.43070  0.88240  0.65690  Biso   1.000  H
  C53      1.0000 0.03310  0.73720  0.09208  Biso   1.000  C
  C54      1.0000 0.46690  0.23720  0.40792  Biso   1.000  C
  C55      1.0000 0.96690  0.26280  0.90792  Biso   1.000  C
  C56      1.0000 0.53310  0.76280  0.59208  Biso   1.000  C
  H25      1.0000 0.10220  0.78030  0.13440  Biso   1.000  H
  H26      1.0000 0.39780  0.28030  0.36560  Biso   1.000  H
  H27      1.0000 0.89780  0.21970  0.86560  Biso   1.000  H
  H28      1.0000 0.60220  0.71970  0.63440  Biso   1.000  H
  N1       1.0000 0.17370  0.89920  0.93614  Biso   1.000  N
  N2       1.0000 0.32630  0.39920  0.56386  Biso   1.000  N
  N3       1.0000 0.82630  0.10080  0.06386  Biso   1.000  N
  N4       1.0000 0.67370  0.60080  0.43614  Biso   1.000  N
  H29      1.0000 0.13930  0.83600  0.90270  Biso   1.000  H
  H30      1.0000 0.36070  0.33600  0.59730  Biso   1.000  H
  H31      1.0000 0.86070  0.16400  0.09730  Biso   1.000  H
  H32      1.0000 0.63930  0.66400  0.40270  Biso   1.000  H
  N5       1.0000 0.83130  0.57610  0.04692  Biso   1.000  N
  N6       1.0000 0.66870  0.07610  0.45308  Biso   1.000  N
  N7       1.0000 0.16870  0.42390  0.95308  Biso   1.000  N
  N8       1.0000 0.33130  0.92390  0.54692  Biso   1.000  N
  O1       1.0000 0.21530  0.03350  0.67546  Biso   1.000  O
  O2       1.0000 0.28470  0.53350  0.82454  Biso   1.000  O
  O3       1.0000 0.78470  0.96650  0.32454  Biso   1.000  O
  O4       1.0000 0.71530  0.46650  0.17546  Biso   1.000  O
  O5       1.0000 0.38270  0.20439  0.68754  Biso   1.000  O
  O6       1.0000 0.11730  0.70439  0.81246  Biso   1.000  O
  O7       1.0000 0.61730  0.79561  0.31246  Biso   1.000  O
  O8       1.0000 0.88270  0.29561  0.18754  Biso   1.000  O
  O9       1.0000 0.57910  0.39362  0.95678  Biso   1.000  O
  O10      1.0000 0.92090  0.89362  0.54322  Biso   1.000  O
  O11      1.0000 0.42090  0.60638  0.04322  Biso   1.000  O
  O12      1.0000 0.07910  0.10638  0.45678  Biso   1.000  O
  O13      1.0000 0.53270  0.28582  0.05490  Biso   1.000  O
  O14      1.0000 0.96730  0.78582  0.44510  Biso   1.000  O
  O15      1.0000 0.46730  0.71418  0.94510  Biso   1.000  O
  O16      1.0000 0.03270  0.21418  0.55490  Biso   1.000  O
  O17      1.0000 0.18700  0.96190  0.06014  Biso   1.000  O
  O18      1.0000 0.31300  0.46190  0.43986  Biso   1.000  O
  O19      1.0000 0.81300  0.03810  0.93986  Biso   1.000  O
  O20      1.0000 0.68700  0.53810  0.56014  Biso   1.000  O
  C57      1.0000 0.26420  0.48550  0.25720  Biso   1.000  C
  C58      1.0000 0.23580  0.98550  0.24280  Biso   1.000  C
  C59      1.0000 0.73580  0.51450  0.74280  Biso   1.000  C
  C60      1.0000 0.76420  0.01450  0.75720  Biso   1.000  C
  H33      1.0000 0.18920  0.50330  0.28800  Biso   1.000  H
  H34      1.0000 0.31080  0.00330  0.21200  Biso   1.000  H
  H35      1.0000 0.81080  0.49670  0.71200  Biso   1.000  H
  H36      1.0000 0.68920  0.99670  0.78800  Biso   1.000  H
  C61      1.0000 0.35730  0.46340  0.21890  Biso   1.000  C
  C62      1.0000 0.14270  0.96340  0.28110  Biso   1.000  C
  C63      1.0000 0.64270  0.53660  0.78110  Biso   1.000  C
  C64      1.0000 0.85730  0.03660  0.71890  Biso   1.000  C
  H37      1.0000 0.43230  0.44560  0.18810  Biso   1.000  H
  H38      1.0000 0.06770  0.94560  0.31190  Biso   1.000  H
  H39      1.0000 0.56770  0.55440  0.81190  Biso   1.000  H
  H40      1.0000 0.93230  0.05440  0.68810  Biso   1.000  H
