data_image0
_cell_length_a       8.4584
_cell_length_b       10.2551
_cell_length_c       17.773
_cell_angle_alpha    90
_cell_angle_beta     103.479
_cell_angle_gamma    90

_symmetry_space_group_name_H-M    "P 1"
_symmetry_int_tables_number       1

loop_
  _symmetry_equiv_pos_as_xyz
  'x, y, z'

loop_
  _atom_site_label
  _atom_site_occupancy
  _atom_site_fract_x
  _atom_site_fract_y
  _atom_site_fract_z
  _atom_site_thermal_displace_type
  _atom_site_B_iso_or_equiv
  _atom_site_type_symbol
  Cu1      1.0000 0.17599  0.05411  0.56667  Biso   1.000  Cu
  Cu2      1.0000 0.32401  0.55411  0.93333  Biso   1.000  Cu
  Cu3      1.0000 0.82401  0.94589  0.43333  Biso   1.000  Cu
  Cu4      1.0000 0.67599  0.44589  0.06667  Biso   1.000  Cu
  C1       1.0000 0.31030  0.11980  0.71525  Biso   1.000  C
  C2       1.0000 0.18970  0.61980  0.78475  Biso   1.000  C
  C3       1.0000 0.68970  0.88020  0.28475  Biso   1.000  C
  C4       1.0000 0.81030  0.38020  0.21525  Biso   1.000  C
  C5       1.0000 0.32760  0.11110  0.80117  Biso   1.000  C
  C6       1.0000 0.17240  0.61110  0.69883  Biso   1.000  C
  C7       1.0000 0.67240  0.88890  0.19883  Biso   1.000  C
  C8       1.0000 0.82760  0.38890  0.30117  Biso   1.000  C
  C9       1.0000 0.25110  0.01050  0.83191  Biso   1.000  C
  C10      1.0000 0.24890  0.51050  0.66809  Biso   1.000  C
  C11      1.0000 0.74890  0.98950  0.16809  Biso   1.000  C
  C12      1.0000 0.75110  0.48950  0.33191  Biso   1.000  C
  H1       1.0000 0.19230  0.94600  0.79830  Biso   1.000  H
  H2       1.0000 0.30770  0.44600  0.70170  Biso   1.000  H
  H3       1.0000 0.80770  0.05400  0.20170  Biso   1.000  H
  H4       1.0000 0.69230  0.55400  0.29830  Biso   1.000  H
  C13      1.0000 0.25960  0.00310  0.91081  Biso   1.000  C
  C14      1.0000 0.24040  0.50310  0.58919  Biso   1.000  C
  C15      1.0000 0.74040  0.99690  0.08919  Biso   1.000  C
  C16      1.0000 0.75960  0.49690  0.41081  Biso   1.000  C
  C17      1.0000 0.34890  0.09650  0.96051  Biso   1.000  C
  C18      1.0000 0.15110  0.59650  0.53949  Biso   1.000  C
  C19      1.0000 0.65110  0.90350  0.03949  Biso   1.000  C
  C20      1.0000 0.84890  0.40350  0.46051  Biso   1.000  C
  H5       1.0000 0.35730  0.09200  0.01470  Biso   1.000  H
  H6       1.0000 0.14270  0.59200  0.48530  Biso   1.000  H
  H7       1.0000 0.64270  0.90800  0.98530  Biso   1.000  H
  H8       1.0000 0.85730  0.40800  0.51470  Biso   1.000  H
  C21      1.0000 0.42550  0.19620  0.92921  Biso   1.000  C
  C22      1.0000 0.07450  0.69620  0.57079  Biso   1.000  C
  C23      1.0000 0.57450  0.80380  0.07079  Biso   1.000  C
  C24      1.0000 0.92550  0.30380  0.42921  Biso   1.000  C
  C25      1.0000 0.41540  0.20520  0.84993  Biso   1.000  C
  C26      1.0000 0.08460  0.70520  0.65007  Biso   1.000  C
  C27      1.0000 0.58460  0.79480  0.15007  Biso   1.000  C
  C28      1.0000 0.91540  0.29480  0.34993  Biso   1.000  C
  H9       1.0000 0.46770  0.27430  0.82960  Biso   1.000  H
  H10      1.0000 0.03230  0.77430  0.67040  Biso   1.000  H
  H11      1.0000 0.53230  0.72570  0.17040  Biso   1.000  H
  H12      1.0000 0.96770  0.22570  0.32960  Biso   1.000  H
  C29      1.0000 0.51620  0.29570  0.98255  Biso   1.000  C
  C30      1.0000 0.98380  0.79570  0.51745  Biso   1.000  C
  C31      1.0000 0.48380  0.70430  0.01745  Biso   1.000  C
  C32      1.0000 0.01620  0.20430  0.48255  Biso   1.000  C
  C33      1.0000 0.14110  0.88790  0.00649  Biso   1.000  C
  C34      1.0000 0.35890  0.38790  0.49351  Biso   1.000  C
  C35      1.0000 0.85890  0.11210  0.99351  Biso   1.000  C
  C36      1.0000 0.64110  0.61210  0.50649  Biso   1.000  C
  C37      1.0000 0.03640  0.77330  0.01676  Biso   1.000  C
  C38      1.0000 0.46360  0.27330  0.48324  Biso   1.000  C
  C39      1.0000 0.96360  0.22670  0.98324  Biso   1.000  C
  C40      1.0000 0.53640  0.72670  0.51676  Biso   1.000  C
  C41      1.0000 0.93430  0.70600  0.95692  Biso   1.000  C
  C42      1.0000 0.56570  0.20600  0.54308  Biso   1.000  C
  C43      1.0000 0.06570  0.29400  0.04308  Biso   1.000  C
  C44      1.0000 0.43430  0.79400  0.45692  Biso   1.000  C
  H13      1.0000 0.93270  0.72650  0.90460  Biso   1.000  H
  H14      1.0000 0.56730  0.22650  0.59540  Biso   1.000  H
  H15      1.0000 0.06730  0.27350  0.09540  Biso   1.000  H
  H16      1.0000 0.43270  0.77350  0.40460  Biso   1.000  H
  C45      1.0000 0.83540  0.60940  0.97413  Biso   1.000  C
  C46      1.0000 0.66460  0.10940  0.52587  Biso   1.000  C
  C47      1.0000 0.16460  0.39060  0.02587  Biso   1.000  C
  C48      1.0000 0.33540  0.89060  0.47413  Biso   1.000  C
  H17      1.0000 0.76620  0.56360  0.93280  Biso   1.000  H
  H18      1.0000 0.73380  0.06360  0.56720  Biso   1.000  H
  H19      1.0000 0.23380  0.43640  0.06720  Biso   1.000  H
  H20      1.0000 0.26620  0.93640  0.43280  Biso   1.000  H
  C49      1.0000 0.93300  0.64150  0.10531  Biso   1.000  C
  C50      1.0000 0.56700  0.14150  0.39469  Biso   1.000  C
  C51      1.0000 0.06700  0.35850  0.89469  Biso   1.000  C
  C52      1.0000 0.43300  0.85850  0.60531  Biso   1.000  C
  H21      1.0000 0.93290  0.61880  0.15710  Biso   1.000  H
  H22      1.0000 0.56710  0.11880  0.34290  Biso   1.000  H
  H23      1.0000 0.06710  0.38120  0.84290  Biso   1.000  H
  H24      1.0000 0.43290  0.88120  0.65710  Biso   1.000  H
  C53      1.0000 0.03490  0.73860  0.09230  Biso   1.000  C
  C54      1.0000 0.46510  0.23860  0.40770  Biso   1.000  C
  C55      1.0000 0.96510  0.26140  0.90770  Biso   1.000  C
  C56      1.0000 0.53490  0.76140  0.59230  Biso   1.000  C
  H25      1.0000 0.10420  0.78200  0.13470  Biso   1.000  H
  H26      1.0000 0.39580  0.28200  0.36530  Biso   1.000  H
  H27      1.0000 0.89580  0.21800  0.86530  Biso   1.000  H
  H28      1.0000 0.60420  0.71800  0.63470  Biso   1.000  H
  N1       1.0000 0.17560  0.89990  0.93628  Biso   1.000  N
  N2       1.0000 0.32440  0.39990  0.56372  Biso   1.000  N
  N3       1.0000 0.82440  0.10010  0.06372  Biso   1.000  N
  N4       1.0000 0.67560  0.60010  0.43628  Biso   1.000  N
  H29      1.0000 0.14200  0.83650  0.90300  Biso   1.000  H
  H30      1.0000 0.35800  0.33650  0.59700  Biso   1.000  H
  H31      1.0000 0.85800  0.16350  0.09700  Biso   1.000  H
  H32      1.0000 0.64200  0.66350  0.40300  Biso   1.000  H
  N5       1.0000 0.83290  0.57730  0.04697  Biso   1.000  N
  N6       1.0000 0.66710  0.07730  0.45303  Biso   1.000  N
  N7       1.0000 0.16710  0.42270  0.95303  Biso   1.000  N
  N8       1.0000 0.33290  0.92270  0.54697  Biso   1.000  N
  O1       1.0000 0.21720  0.03263  0.67540  Biso   1.000  O
  O2       1.0000 0.28280  0.53263  0.82460  Biso   1.000  O
  O3       1.0000 0.78280  0.96737  0.32460  Biso   1.000  O
  O4       1.0000 0.71720  0.46737  0.17540  Biso   1.000  O
  O5       1.0000 0.38170  0.20535  0.68722  Biso   1.000  O
  O6       1.0000 0.11830  0.70535  0.81278  Biso   1.000  O
  O7       1.0000 0.61830  0.79465  0.31278  Biso   1.000  O
  O8       1.0000 0.88170  0.29465  0.18722  Biso   1.000  O
  O9       1.0000 0.57900  0.39500  0.95651  Biso   1.000  O
  O10      1.0000 0.92100  0.89500  0.54349  Biso   1.000  O
  O11      1.0000 0.42100  0.60500  0.04349  Biso   1.000  O
  O12      1.0000 0.07900  0.10500  0.45651  Biso   1.000  O
  O13      1.0000 0.53320  0.28744  0.05482  Biso   1.000  O
  O14      1.0000 0.96680  0.78744  0.44518  Biso   1.000  O
  O15      1.0000 0.46680  0.71256  0.94518  Biso   1.000  O
  O16      1.0000 0.03320  0.21256  0.55482  Biso   1.000  O
  O17      1.0000 0.18730  0.96371  0.06011  Biso   1.000  O
  O18      1.0000 0.31270  0.46371  0.43989  Biso   1.000  O
  O19      1.0000 0.81270  0.03629  0.93989  Biso   1.000  O
  O20      1.0000 0.68730  0.53629  0.56011  Biso   1.000  O
  C57      1.0000 0.26500  0.48830  0.25860  Biso   1.000  C
  C58      1.0000 0.23500  0.98830  0.24140  Biso   1.000  C
  C59      1.0000 0.73500  0.51170  0.74140  Biso   1.000  C
  C60      1.0000 0.76500  0.01170  0.75860  Biso   1.000  C
  H33      1.0000 0.19020  0.50200  0.29020  Biso   1.000  H
  H34      1.0000 0.30980  0.00200  0.20980  Biso   1.000  H
  H35      1.0000 0.80980  0.49800  0.70980  Biso   1.000  H
  H36      1.0000 0.69020  0.99800  0.79020  Biso   1.000  H
  C61      1.0000 0.35690  0.47160  0.21960  Biso   1.000  C
  C62      1.0000 0.14310  0.97160  0.28040  Biso   1.000  C
  C63      1.0000 0.64310  0.52840  0.78040  Biso   1.000  C
  C64      1.0000 0.85690  0.02840  0.71960  Biso   1.000  C
  H37      1.0000 0.43170  0.45790  0.18800  Biso   1.000  H
  H38      1.0000 0.06830  0.95790  0.31200  Biso   1.000  H
  H39      1.0000 0.56830  0.54210  0.81200  Biso   1.000  H
  H40      1.0000 0.93170  0.04210  0.68800  Biso   1.000  H
