data_image0
_cell_length_a       7.9968
_cell_length_b       10.6693
_cell_length_c       17.695
_cell_angle_alpha    90
_cell_angle_beta     103.904
_cell_angle_gamma    90

_symmetry_space_group_name_H-M    "P 1"
_symmetry_int_tables_number       1

loop_
  _symmetry_equiv_pos_as_xyz
  'x, y, z'

loop_
  _atom_site_label
  _atom_site_occupancy
  _atom_site_fract_x
  _atom_site_fract_y
  _atom_site_fract_z
  _atom_site_thermal_displace_type
  _atom_site_B_iso_or_equiv
  _atom_site_type_symbol
  C1       1.0000 0.16540  0.64270  0.60677  Biso   1.000  C
  C2       1.0000 0.83460  0.14270  0.89323  Biso   1.000  C
  C3       1.0000 0.83460  0.35730  0.39323  Biso   1.000  C
  C4       1.0000 0.16540  0.85730  0.10677  Biso   1.000  C
  H1       1.0000 0.21800  0.61790  0.65860  Biso   1.000  H
  H2       1.0000 0.78200  0.11790  0.84140  Biso   1.000  H
  H3       1.0000 0.78200  0.38210  0.34140  Biso   1.000  H
  H4       1.0000 0.21800  0.88210  0.15860  Biso   1.000  H
  N1       1.0000 0.20610  0.58055  0.54731  Biso   1.000  N
  N2       1.0000 0.79390  0.08055  0.95269  Biso   1.000  N
  N3       1.0000 0.79390  0.41945  0.45269  Biso   1.000  N
  N4       1.0000 0.20610  0.91945  0.04731  Biso   1.000  N
  O1       1.0000 0.51870  0.29430  0.55629  Biso   1.000  O
  O2       1.0000 0.48130  0.79430  0.94371  Biso   1.000  O
  O3       1.0000 0.48130  0.70570  0.44371  Biso   1.000  O
  O4       1.0000 0.51870  0.20570  0.05629  Biso   1.000  O
  O5       1.0000 0.37610  0.40103  0.45630  Biso   1.000  O
  O6       1.0000 0.62390  0.90103  0.04370  Biso   1.000  O
  O7       1.0000 0.62390  0.59897  0.54370  Biso   1.000  O
  O8       1.0000 0.37610  0.09897  0.95630  Biso   1.000  O
  C5       1.0000 0.46400  0.30360  0.48309  Biso   1.000  C
  C6       1.0000 0.53600  0.80360  0.01691  Biso   1.000  C
  C7       1.0000 0.53600  0.69640  0.51691  Biso   1.000  C
  C8       1.0000 0.46400  0.19640  0.98309  Biso   1.000  C
  Cu1      1.0000 0.38522  0.05177  0.06705  Biso   1.000  Cu
  Cu2      1.0000 0.61478  0.55177  0.43295  Biso   1.000  Cu
  Cu3      1.0000 0.61478  0.94823  0.93295  Biso   1.000  Cu
  Cu4      1.0000 0.38522  0.44823  0.56705  Biso   1.000  Cu
  O9       1.0000 0.87910  0.96989  0.56335  Biso   1.000  O
  O10      1.0000 0.12090  0.46989  0.93665  Biso   1.000  O
  O11      1.0000 0.12090  0.03011  0.43665  Biso   1.000  O
  O12      1.0000 0.87910  0.53011  0.06335  Biso   1.000  O
  O13      1.0000 0.43910  0.03925  0.17641  Biso   1.000  O
  O14      1.0000 0.56090  0.53925  0.32359  Biso   1.000  O
  O15      1.0000 0.56090  0.96075  0.82359  Biso   1.000  O
  O16      1.0000 0.43910  0.46075  0.67641  Biso   1.000  O
  N5       1.0000 0.74970  0.90838  0.43939  Biso   1.000  N
  N6       1.0000 0.25030  0.40838  0.06061  Biso   1.000  N
  N7       1.0000 0.25030  0.09162  0.56061  Biso   1.000  N
  N8       1.0000 0.74970  0.59162  0.93939  Biso   1.000  N
  O17      1.0000 0.31390  0.22453  0.18646  Biso   1.000  O
  O18      1.0000 0.68610  0.72453  0.31354  Biso   1.000  O
  O19      1.0000 0.68610  0.77547  0.81354  Biso   1.000  O
  O20      1.0000 0.31390  0.27547  0.68646  Biso   1.000  O
  C9       1.0000 0.50140  0.20540  0.43019  Biso   1.000  C
  C10      1.0000 0.49860  0.70540  0.06981  Biso   1.000  C
  C11      1.0000 0.49860  0.79460  0.56981  Biso   1.000  C
  C12      1.0000 0.50140  0.29460  0.93019  Biso   1.000  C
  C13      1.0000 0.64330  0.01230  0.41294  Biso   1.000  C
  C14      1.0000 0.35670  0.51230  0.08706  Biso   1.000  C
  C15      1.0000 0.35670  0.98770  0.58706  Biso   1.000  C
  C16      1.0000 0.64330  0.48770  0.91294  Biso   1.000  C
  C17      1.0000 0.46980  0.12290  0.30187  Biso   1.000  C
  C18      1.0000 0.53020  0.62290  0.19813  Biso   1.000  C
  C19      1.0000 0.53020  0.87710  0.69813  Biso   1.000  C
  C20      1.0000 0.46980  0.37710  0.80187  Biso   1.000  C
  C21      1.0000 0.57340  0.02110  0.33315  Biso   1.000  C
  C22      1.0000 0.42660  0.52110  0.16685  Biso   1.000  C
  C23      1.0000 0.42660  0.97890  0.66685  Biso   1.000  C
  C24      1.0000 0.57340  0.47890  0.83315  Biso   1.000  C
  H5       1.0000 0.59630  0.95730  0.29960  Biso   1.000  H
  H6       1.0000 0.40370  0.45730  0.20040  Biso   1.000  H
  H7       1.0000 0.40370  0.04270  0.70040  Biso   1.000  H
  H8       1.0000 0.59630  0.54270  0.79960  Biso   1.000  H
  C25      1.0000 0.40000  0.13310  0.21500  Biso   1.000  C
  C26      1.0000 0.60000  0.63310  0.28500  Biso   1.000  C
  C27      1.0000 0.60000  0.86690  0.78500  Biso   1.000  C
  C28      1.0000 0.40000  0.36690  0.71500  Biso   1.000  C
  C29      1.0000 0.60630  0.10510  0.46278  Biso   1.000  C
  C30      1.0000 0.39370  0.60510  0.03722  Biso   1.000  C
  C31      1.0000 0.39370  0.89490  0.53722  Biso   1.000  C
  C32      1.0000 0.60630  0.39490  0.96278  Biso   1.000  C
  H9       1.0000 0.65170  0.09970  0.51750  Biso   1.000  H
  H10      1.0000 0.34830  0.59970  0.98250  Biso   1.000  H
  H11      1.0000 0.34830  0.90030  0.48250  Biso   1.000  H
  H12      1.0000 0.65170  0.40030  0.01750  Biso   1.000  H
  C33      1.0000 0.86160  0.89490  0.50952  Biso   1.000  C
  C34      1.0000 0.13840  0.39490  0.99048  Biso   1.000  C
  C35      1.0000 0.13840  0.10510  0.49048  Biso   1.000  C
  C36      1.0000 0.86160  0.60510  0.00952  Biso   1.000  C
  C37      1.0000 0.43290  0.21610  0.35033  Biso   1.000  C
  C38      1.0000 0.56710  0.71610  0.14967  Biso   1.000  C
  C39      1.0000 0.56710  0.78390  0.64967  Biso   1.000  C
  C40      1.0000 0.43290  0.28390  0.85033  Biso   1.000  C
  H13      1.0000 0.36260  0.28560  0.32940  Biso   1.000  H
  H14      1.0000 0.63740  0.78560  0.17060  Biso   1.000  H
  H15      1.0000 0.63740  0.71440  0.67060  Biso   1.000  H
  H16      1.0000 0.36260  0.21440  0.82940  Biso   1.000  H
  C41      1.0000 0.97350  0.77880  0.51924  Biso   1.000  C
  C42      1.0000 0.02650  0.27880  0.98076  Biso   1.000  C
  C43      1.0000 0.02650  0.22120  0.48076  Biso   1.000  C
  C44      1.0000 0.97350  0.72120  0.01924  Biso   1.000  C
  C45      1.0000 0.05030  0.74100  0.59503  Biso   1.000  C
  C46      1.0000 0.94970  0.24100  0.90497  Biso   1.000  C
  C47      1.0000 0.94970  0.25900  0.40497  Biso   1.000  C
  C48      1.0000 0.05030  0.75900  0.09503  Biso   1.000  C
  H17      1.0000 0.02350  0.78250  0.63810  Biso   1.000  H
  H18      1.0000 0.97650  0.28250  0.86190  Biso   1.000  H
  H19      1.0000 0.97650  0.21750  0.36190  Biso   1.000  H
  H20      1.0000 0.02350  0.71750  0.13810  Biso   1.000  H
  C49      1.0000 0.13090  0.61620  0.47402  Biso   1.000  C
  C50      1.0000 0.86910  0.11620  0.02598  Biso   1.000  C
  C51      1.0000 0.86910  0.38380  0.52598  Biso   1.000  C
  C52      1.0000 0.13090  0.88380  0.97402  Biso   1.000  C
  H21      1.0000 0.15820  0.57200  0.43190  Biso   1.000  H
  H22      1.0000 0.84180  0.07200  0.06810  Biso   1.000  H
  H23      1.0000 0.84180  0.42800  0.56810  Biso   1.000  H
  H24      1.0000 0.15820  0.92800  0.93190  Biso   1.000  H
  C53      1.0000 0.01520  0.71490  0.45766  Biso   1.000  C
  C54      1.0000 0.98480  0.21490  0.04234  Biso   1.000  C
  C55      1.0000 0.98480  0.28510  0.54234  Biso   1.000  C
  C56      1.0000 0.01520  0.78510  0.95766  Biso   1.000  C
  H25      1.0000 0.96530  0.73850  0.40530  Biso   1.000  H
  H26      1.0000 0.03470  0.23850  0.09470  Biso   1.000  H
  H27      1.0000 0.03470  0.26150  0.59470  Biso   1.000  H
  H28      1.0000 0.96530  0.76150  0.90530  Biso   1.000  H
  H29      1.0000 0.74300  0.86000  0.41330  Biso   1.000  H
  H30      1.0000 0.25700  0.36000  0.08670  Biso   1.000  H
  H31      1.0000 0.25700  0.14000  0.58670  Biso   1.000  H
  H32      1.0000 0.74300  0.64000  0.91330  Biso   1.000  H
  C57      1.0000 0.02940  0.54640  0.77400  Biso   1.000  C
  C58      1.0000 0.97060  0.04640  0.72600  Biso   1.000  C
  C59      1.0000 0.97060  0.45360  0.22600  Biso   1.000  C
  C60      1.0000 0.02940  0.95360  0.27400  Biso   1.000  C
  O21      1.0000 0.09640  0.63980  0.79460  Biso   1.000  O
  O22      1.0000 0.90360  0.13980  0.70540  Biso   1.000  O
  O23      1.0000 0.90360  0.36020  0.20540  Biso   1.000  O
  O24      1.0000 0.09640  0.86020  0.29460  Biso   1.000  O
  O25      1.0000 0.97010  0.45390  0.75210  Biso   1.000  O
  O26      1.0000 0.02990  0.95390  0.74790  Biso   1.000  O
  O27      1.0000 0.02990  0.54610  0.24790  Biso   1.000  O
  O28      1.0000 0.97010  0.04610  0.25210  Biso   1.000  O
