data_image0
_cell_length_a       8.1456
_cell_length_b       10.528
_cell_length_c       17.657
_cell_angle_alpha    90
_cell_angle_beta     103.218
_cell_angle_gamma    90

_symmetry_space_group_name_H-M    "P 1"
_symmetry_int_tables_number       1

loop_
  _symmetry_equiv_pos_as_xyz
  'x, y, z'

loop_
  _atom_site_label
  _atom_site_occupancy
  _atom_site_fract_x
  _atom_site_fract_y
  _atom_site_fract_z
  _atom_site_thermal_displace_type
  _atom_site_B_iso_or_equiv
  _atom_site_type_symbol
  O1       1.0000 0.22730  0.46528  0.17677  Biso   1.000  O
  O2       1.0000 0.27270  0.96528  0.32323  Biso   1.000  O
  O3       1.0000 0.77270  0.53472  0.82323  Biso   1.000  O
  O4       1.0000 0.72730  0.03472  0.67677  Biso   1.000  O
  N1       1.0000 0.83950  0.92110  0.54792  Biso   1.000  N
  N2       1.0000 0.66050  0.42110  0.95208  Biso   1.000  N
  N3       1.0000 0.16050  0.07890  0.45208  Biso   1.000  N
  N4       1.0000 0.33950  0.57890  0.04792  Biso   1.000  N
  O5       1.0000 0.57930  0.10127  0.45700  Biso   1.000  O
  O6       1.0000 0.92070  0.60127  0.04300  Biso   1.000  O
  O7       1.0000 0.42070  0.89873  0.54300  Biso   1.000  O
  O8       1.0000 0.07930  0.39873  0.95700  Biso   1.000  O
  C1       1.0000 0.31320  0.37410  0.21564  Biso   1.000  C
  C2       1.0000 0.18680  0.87410  0.28436  Biso   1.000  C
  C3       1.0000 0.68680  0.62590  0.78436  Biso   1.000  C
  C4       1.0000 0.81320  0.12590  0.71564  Biso   1.000  C
  C5       1.0000 0.32960  0.38230  0.30195  Biso   1.000  C
  C6       1.0000 0.17040  0.88230  0.19805  Biso   1.000  C
  C7       1.0000 0.67040  0.61770  0.69805  Biso   1.000  C
  C8       1.0000 0.82960  0.11770  0.80195  Biso   1.000  C
  O9       1.0000 0.37900  0.28603  0.18689  Biso   1.000  O
  O10      1.0000 0.12100  0.78603  0.31311  Biso   1.000  O
  O11      1.0000 0.62100  0.71397  0.81311  Biso   1.000  O
  O12      1.0000 0.87900  0.21397  0.68689  Biso   1.000  O
  C9       1.0000 0.25520  0.48330  0.33292  Biso   1.000  C
  C10      1.0000 0.24480  0.98330  0.16708  Biso   1.000  C
  C11      1.0000 0.74480  0.51670  0.66708  Biso   1.000  C
  C12      1.0000 0.75520  0.01670  0.83292  Biso   1.000  C
  C13      1.0000 0.41580  0.28840  0.35066  Biso   1.000  C
  C14      1.0000 0.08420  0.78840  0.14934  Biso   1.000  C
  C15      1.0000 0.58420  0.71160  0.64934  Biso   1.000  C
  C16      1.0000 0.91580  0.21160  0.85066  Biso   1.000  C
  H1       1.0000 0.19710  0.54730  0.29930  Biso   1.000  H
  H2       1.0000 0.30290  0.04730  0.20070  Biso   1.000  H
  H3       1.0000 0.80290  0.45270  0.70070  Biso   1.000  H
  H4       1.0000 0.69710  0.95270  0.79930  Biso   1.000  H
  C17      1.0000 0.26510  0.49140  0.41244  Biso   1.000  C
  C18      1.0000 0.23490  0.99140  0.08756  Biso   1.000  C
  C19      1.0000 0.73490  0.50860  0.58756  Biso   1.000  C
  C20      1.0000 0.76510  0.00860  0.91244  Biso   1.000  C
  C21      1.0000 0.42670  0.29810  0.43031  Biso   1.000  C
  C22      1.0000 0.07330  0.79810  0.06969  Biso   1.000  C
  C23      1.0000 0.57330  0.70190  0.56969  Biso   1.000  C
  C24      1.0000 0.92670  0.20190  0.93031  Biso   1.000  C
  H5       1.0000 0.46630  0.21910  0.33000  Biso   1.000  H
  H6       1.0000 0.03370  0.71910  0.17000  Biso   1.000  H
  H7       1.0000 0.53370  0.78090  0.67000  Biso   1.000  H
  H8       1.0000 0.96630  0.28090  0.83000  Biso   1.000  H
  C25      1.0000 0.35310  0.39830  0.46235  Biso   1.000  C
  C26      1.0000 0.14690  0.89830  0.03765  Biso   1.000  C
  C27      1.0000 0.64690  0.60170  0.53765  Biso   1.000  C
  C28      1.0000 0.85310  0.10170  0.96235  Biso   1.000  C
  N5       1.0000 0.18460  0.59570  0.43888  Biso   1.000  N
  N6       1.0000 0.31540  0.09570  0.06112  Biso   1.000  N
  N7       1.0000 0.81540  0.40430  0.56112  Biso   1.000  N
  N8       1.0000 0.68460  0.90430  0.93888  Biso   1.000  N
  C29      1.0000 0.51720  0.19920  0.48357  Biso   1.000  C
  C30      1.0000 0.98280  0.69920  0.01643  Biso   1.000  C
  C31      1.0000 0.48280  0.80080  0.51643  Biso   1.000  C
  C32      1.0000 0.01720  0.30080  0.98357  Biso   1.000  C
  H9       1.0000 0.36250  0.40320  0.51690  Biso   1.000  H
  H10      1.0000 0.13750  0.90320  0.98310  Biso   1.000  H
  H11      1.0000 0.63750  0.59680  0.48310  Biso   1.000  H
  H12      1.0000 0.86250  0.09680  0.01690  Biso   1.000  H
  C33      1.0000 0.14500  0.60730  0.50881  Biso   1.000  C
  C34      1.0000 0.35500  0.10730  0.99119  Biso   1.000  C
  C35      1.0000 0.85500  0.39270  0.49119  Biso   1.000  C
  C36      1.0000 0.64500  0.89270  0.00881  Biso   1.000  C
  H13      1.0000 0.15750  0.65980  0.40650  Biso   1.000  H
  H14      1.0000 0.34250  0.15980  0.09350  Biso   1.000  H
  H15      1.0000 0.84250  0.34020  0.59350  Biso   1.000  H
  H16      1.0000 0.65750  0.84020  0.90650  Biso   1.000  H
  O13      1.0000 0.53440  0.20759  0.55630  Biso   1.000  O
  O14      1.0000 0.96560  0.70759  0.94370  Biso   1.000  O
  O15      1.0000 0.46560  0.79241  0.44370  Biso   1.000  O
  O16      1.0000 0.03440  0.29241  0.05630  Biso   1.000  O
  C37      1.0000 0.04280  0.72320  0.51884  Biso   1.000  C
  C38      1.0000 0.45720  0.22320  0.98116  Biso   1.000  C
  C39      1.0000 0.95720  0.27680  0.48116  Biso   1.000  C
  C40      1.0000 0.54280  0.77680  0.01884  Biso   1.000  C
  O17      1.0000 0.18370  0.53117  0.56216  Biso   1.000  O
  O18      1.0000 0.31630  0.03117  0.93784  Biso   1.000  O
  O19      1.0000 0.81630  0.46883  0.43784  Biso   1.000  O
  O20      1.0000 0.68370  0.96883  0.06216  Biso   1.000  O
  C41      1.0000 0.93780  0.78810  0.45811  Biso   1.000  C
  C42      1.0000 0.56220  0.28810  0.04189  Biso   1.000  C
  C43      1.0000 0.06220  0.21190  0.54189  Biso   1.000  C
  C44      1.0000 0.43780  0.71190  0.95811  Biso   1.000  C
  C45      1.0000 0.04500  0.76110  0.59472  Biso   1.000  C
  C46      1.0000 0.45500  0.26110  0.90528  Biso   1.000  C
  C47      1.0000 0.95500  0.23890  0.40528  Biso   1.000  C
  C48      1.0000 0.54500  0.73890  0.09472  Biso   1.000  C
  H17      1.0000 0.93390  0.76530  0.40570  Biso   1.000  H
  H18      1.0000 0.56610  0.26530  0.09430  Biso   1.000  H
  H19      1.0000 0.06610  0.23470  0.59430  Biso   1.000  H
  H20      1.0000 0.43390  0.73470  0.90570  Biso   1.000  H
  C49      1.0000 0.83910  0.88610  0.47488  Biso   1.000  C
  C50      1.0000 0.66090  0.38610  0.02512  Biso   1.000  C
  C51      1.0000 0.16090  0.11390  0.52512  Biso   1.000  C
  C52      1.0000 0.33910  0.61390  0.97488  Biso   1.000  C
  C53      1.0000 0.94240  0.85920  0.60704  Biso   1.000  C
  C54      1.0000 0.55760  0.35920  0.89296  Biso   1.000  C
  C55      1.0000 0.05760  0.14080  0.39296  Biso   1.000  C
  C56      1.0000 0.44240  0.64080  0.10704  Biso   1.000  C
  H21      1.0000 0.11670  0.71950  0.63760  Biso   1.000  H
  H22      1.0000 0.38330  0.21950  0.86240  Biso   1.000  H
  H23      1.0000 0.88330  0.28050  0.36240  Biso   1.000  H
  H24      1.0000 0.61670  0.78050  0.13760  Biso   1.000  H
  H25      1.0000 0.76810  0.93040  0.43300  Biso   1.000  H
  H26      1.0000 0.73190  0.43040  0.06700  Biso   1.000  H
  H27      1.0000 0.23190  0.06960  0.56700  Biso   1.000  H
  H28      1.0000 0.26810  0.56960  0.93300  Biso   1.000  H
  H29      1.0000 0.94430  0.88410  0.65890  Biso   1.000  H
  H30      1.0000 0.55570  0.38410  0.84110  Biso   1.000  H
  H31      1.0000 0.05570  0.11590  0.34110  Biso   1.000  H
  H32      1.0000 0.44430  0.61590  0.15890  Biso   1.000  H
  Cu1      1.0000 0.17872  0.44820  0.06759  Biso   1.000  Cu
  Cu2      1.0000 0.32128  0.94820  0.43241  Biso   1.000  Cu
  Cu3      1.0000 0.82128  0.55180  0.93241  Biso   1.000  Cu
  Cu4      1.0000 0.67872  0.05180  0.56759  Biso   1.000  Cu
