data_image0
_cell_length_a       8.1474
_cell_length_b       10.5098
_cell_length_c       17.662
_cell_angle_alpha    90
_cell_angle_beta     103.064
_cell_angle_gamma    90

_symmetry_space_group_name_H-M    "P 1"
_symmetry_int_tables_number       1

loop_
  _symmetry_equiv_pos_as_xyz
  'x, y, z'

loop_
  _atom_site_label
  _atom_site_occupancy
  _atom_site_fract_x
  _atom_site_fract_y
  _atom_site_fract_z
  _atom_site_thermal_displace_type
  _atom_site_B_iso_or_equiv
  _atom_site_type_symbol
  Cu1      1.0000 0.17792  0.44790  0.56758  Biso   1.000  Cu
  Cu2      1.0000 0.32208  0.94790  0.93242  Biso   1.000  Cu
  Cu3      1.0000 0.82208  0.55210  0.43242  Biso   1.000  Cu
  Cu4      1.0000 0.67792  0.05210  0.06758  Biso   1.000  Cu
  C1       1.0000 0.31250  0.37450  0.71555  Biso   1.000  C
  C2       1.0000 0.18750  0.87450  0.78445  Biso   1.000  C
  C3       1.0000 0.68750  0.62550  0.28445  Biso   1.000  C
  C4       1.0000 0.81250  0.12550  0.21555  Biso   1.000  C
  C5       1.0000 0.32930  0.38300  0.80204  Biso   1.000  C
  C6       1.0000 0.17070  0.88300  0.69796  Biso   1.000  C
  C7       1.0000 0.67070  0.61700  0.19796  Biso   1.000  C
  C8       1.0000 0.82930  0.11700  0.30204  Biso   1.000  C
  C9       1.0000 0.25530  0.48380  0.83313  Biso   1.000  C
  C10      1.0000 0.24470  0.98380  0.66687  Biso   1.000  C
  C11      1.0000 0.74470  0.51620  0.16687  Biso   1.000  C
  C12      1.0000 0.75530  0.01620  0.33313  Biso   1.000  C
  H1       1.0000 0.19750  0.54800  0.79960  Biso   1.000  H
  H2       1.0000 0.30250  0.04800  0.70040  Biso   1.000  H
  H3       1.0000 0.80250  0.45200  0.20040  Biso   1.000  H
  H4       1.0000 0.69750  0.95200  0.29960  Biso   1.000  H
  C13      1.0000 0.26460  0.49200  0.91246  Biso   1.000  C
  C14      1.0000 0.23540  0.99200  0.58754  Biso   1.000  C
  C15      1.0000 0.73540  0.50800  0.08754  Biso   1.000  C
  C16      1.0000 0.76460  0.00800  0.41246  Biso   1.000  C
  C17      1.0000 0.35270  0.39880  0.96224  Biso   1.000  C
  C18      1.0000 0.14730  0.89880  0.53776  Biso   1.000  C
  C19      1.0000 0.64730  0.60120  0.03776  Biso   1.000  C
  C20      1.0000 0.85270  0.10120  0.46224  Biso   1.000  C
  H5       1.0000 0.36210  0.40370  0.01680  Biso   1.000  H
  H6       1.0000 0.13790  0.90370  0.48320  Biso   1.000  H
  H7       1.0000 0.63790  0.59630  0.98320  Biso   1.000  H
  H8       1.0000 0.86210  0.09630  0.51680  Biso   1.000  H
  C21      1.0000 0.42620  0.29880  0.93011  Biso   1.000  C
  C22      1.0000 0.07380  0.79880  0.56989  Biso   1.000  C
  C23      1.0000 0.57380  0.70120  0.06989  Biso   1.000  C
  C24      1.0000 0.92620  0.20120  0.43011  Biso   1.000  C
  C25      1.0000 0.41540  0.28860  0.85067  Biso   1.000  C
  C26      1.0000 0.08460  0.78860  0.64933  Biso   1.000  C
  C27      1.0000 0.58460  0.71140  0.14933  Biso   1.000  C
  C28      1.0000 0.91540  0.21140  0.35067  Biso   1.000  C
  H9       1.0000 0.46550  0.21900  0.83000  Biso   1.000  H
  H10      1.0000 0.03450  0.71900  0.67000  Biso   1.000  H
  H11      1.0000 0.53450  0.78100  0.17000  Biso   1.000  H
  H12      1.0000 0.96550  0.28100  0.33000  Biso   1.000  H
  C29      1.0000 0.51620  0.19990  0.98369  Biso   1.000  C
  C30      1.0000 0.98380  0.69990  0.51631  Biso   1.000  C
  C31      1.0000 0.48380  0.80010  0.01631  Biso   1.000  C
  C32      1.0000 0.01620  0.30010  0.48369  Biso   1.000  C
  C33      1.0000 0.14430  0.60810  0.00856  Biso   1.000  C
  C34      1.0000 0.35570  0.10810  0.49144  Biso   1.000  C
  C35      1.0000 0.85570  0.39190  0.99144  Biso   1.000  C
  C36      1.0000 0.64430  0.89190  0.50856  Biso   1.000  C
  C37      1.0000 0.04240  0.72380  0.01892  Biso   1.000  C
  C38      1.0000 0.45760  0.22380  0.48108  Biso   1.000  C
  C39      1.0000 0.95760  0.27620  0.98108  Biso   1.000  C
  C40      1.0000 0.54240  0.77620  0.51892  Biso   1.000  C
  C41      1.0000 0.93710  0.78850  0.95802  Biso   1.000  C
  C42      1.0000 0.56290  0.28850  0.54198  Biso   1.000  C
  C43      1.0000 0.06290  0.21150  0.04198  Biso   1.000  C
  C44      1.0000 0.43710  0.71150  0.45802  Biso   1.000  C
  H13      1.0000 0.93330  0.76550  0.90560  Biso   1.000  H
  H14      1.0000 0.56670  0.26550  0.59440  Biso   1.000  H
  H15      1.0000 0.06670  0.23450  0.09440  Biso   1.000  H
  H16      1.0000 0.43330  0.73450  0.40560  Biso   1.000  H
  C45      1.0000 0.83840  0.88660  0.97475  Biso   1.000  C
  C46      1.0000 0.66160  0.38660  0.52525  Biso   1.000  C
  C47      1.0000 0.16160  0.11340  0.02525  Biso   1.000  C
  C48      1.0000 0.33840  0.61340  0.47475  Biso   1.000  C
  H17      1.0000 0.76770  0.93100  0.93290  Biso   1.000  H
  H18      1.0000 0.73230  0.43100  0.56710  Biso   1.000  H
  H19      1.0000 0.23230  0.06900  0.06710  Biso   1.000  H
  H20      1.0000 0.26770  0.56900  0.43290  Biso   1.000  H
  C49      1.0000 0.94200  0.85960  0.10688  Biso   1.000  C
  C50      1.0000 0.55800  0.35960  0.39312  Biso   1.000  C
  C51      1.0000 0.05800  0.14040  0.89312  Biso   1.000  C
  C52      1.0000 0.44200  0.64040  0.60688  Biso   1.000  C
  H21      1.0000 0.94420  0.88470  0.15880  Biso   1.000  H
  H22      1.0000 0.55580  0.38470  0.34120  Biso   1.000  H
  H23      1.0000 0.05580  0.11530  0.84120  Biso   1.000  H
  H24      1.0000 0.44420  0.61530  0.65880  Biso   1.000  H
  C53      1.0000 0.04390  0.76180  0.09438  Biso   1.000  C
  C54      1.0000 0.45610  0.26180  0.40562  Biso   1.000  C
  C55      1.0000 0.95610  0.23820  0.90562  Biso   1.000  C
  C56      1.0000 0.54390  0.73820  0.59438  Biso   1.000  C
  H25      1.0000 0.11540  0.72010  0.13720  Biso   1.000  H
  H26      1.0000 0.38460  0.22010  0.36280  Biso   1.000  H
  H27      1.0000 0.88460  0.27990  0.86280  Biso   1.000  H
  H28      1.0000 0.61540  0.77990  0.63720  Biso   1.000  H
  N1       1.0000 0.18440  0.59632  0.93874  Biso   1.000  N
  N2       1.0000 0.31560  0.09632  0.56126  Biso   1.000  N
  N3       1.0000 0.81560  0.40368  0.06126  Biso   1.000  N
  N4       1.0000 0.68440  0.90368  0.43874  Biso   1.000  N
  H29      1.0000 0.15750  0.66050  0.90630  Biso   1.000  H
  H30      1.0000 0.34250  0.16050  0.59370  Biso   1.000  H
  H31      1.0000 0.84250  0.33950  0.09370  Biso   1.000  H
  H32      1.0000 0.65750  0.83950  0.40630  Biso   1.000  H
  N5       1.0000 0.83830  0.92166  0.04772  Biso   1.000  N
  N6       1.0000 0.66170  0.42166  0.45228  Biso   1.000  N
  N7       1.0000 0.16170  0.07834  0.95228  Biso   1.000  N
  N8       1.0000 0.33830  0.57834  0.54772  Biso   1.000  N
  O1       1.0000 0.22620  0.46525  0.67673  Biso   1.000  O
  O2       1.0000 0.27380  0.96525  0.82327  Biso   1.000  O
  O3       1.0000 0.77380  0.53475  0.32327  Biso   1.000  O
  O4       1.0000 0.72620  0.03475  0.17673  Biso   1.000  O
  O5       1.0000 0.37860  0.28665  0.68677  Biso   1.000  O
  O6       1.0000 0.12140  0.78665  0.81323  Biso   1.000  O
  O7       1.0000 0.62140  0.71335  0.31323  Biso   1.000  O
  O8       1.0000 0.87860  0.21335  0.18677  Biso   1.000  O
  O9       1.0000 0.53430  0.20822  0.05616  Biso   1.000  O
  O10      1.0000 0.96570  0.70822  0.44384  Biso   1.000  O
  O11      1.0000 0.46570  0.79178  0.94384  Biso   1.000  O
  O12      1.0000 0.03430  0.29178  0.55616  Biso   1.000  O
  O13      1.0000 0.57870  0.10138  0.95695  Biso   1.000  O
  O14      1.0000 0.92130  0.60138  0.54305  Biso   1.000  O
  O15      1.0000 0.42130  0.89862  0.04305  Biso   1.000  O
  O16      1.0000 0.07870  0.39862  0.45695  Biso   1.000  O
  O17      1.0000 0.18330  0.53186  0.06204  Biso   1.000  O
  O18      1.0000 0.31670  0.03186  0.43796  Biso   1.000  O
  O19      1.0000 0.81670  0.46814  0.93796  Biso   1.000  O
  O20      1.0000 0.68330  0.96814  0.56204  Biso   1.000  O
  C57      1.0000 0.63500  0.85100  0.79320  Biso   1.000  C
  C58      1.0000 0.86500  0.35100  0.70680  Biso   1.000  C
  C59      1.0000 0.36500  0.14900  0.20680  Biso   1.000  C
  C60      1.0000 0.13500  0.64900  0.29320  Biso   1.000  C
  C61      1.0000 0.65700  0.97100  0.78200  Biso   1.000  C
  C62      1.0000 0.84300  0.47100  0.71800  Biso   1.000  C
  C63      1.0000 0.34300  0.02900  0.21800  Biso   1.000  C
  C64      1.0000 0.15700  0.52900  0.28200  Biso   1.000  C
  C65      1.0000 0.78500  0.75200  0.77100  Biso   1.000  C
  C66      1.0000 0.71500  0.25200  0.72900  Biso   1.000  C
  C67      1.0000 0.21500  0.24800  0.22900  Biso   1.000  C
  C68      1.0000 0.28500  0.74800  0.27100  Biso   1.000  C
  C69      1.0000 0.61700  0.69600  0.80300  Biso   1.000  C
  C70      1.0000 0.88300  0.19600  0.69700  Biso   1.000  C
  C71      1.0000 0.38300  0.30400  0.19700  Biso   1.000  C
  C72      1.0000 0.11700  0.80400  0.30300  Biso   1.000  C
  C73      1.0000 0.78300  0.00900  0.72800  Biso   1.000  C
  C74      1.0000 0.71700  0.50900  0.77200  Biso   1.000  C
  C75      1.0000 0.21700  0.99100  0.27200  Biso   1.000  C
  C76      1.0000 0.28300  0.49100  0.22800  Biso   1.000  C
  C77      1.0000 0.69400  0.59400  0.78500  Biso   1.000  C
  C78      1.0000 0.80600  0.09400  0.71500  Biso   1.000  C
  C79      1.0000 0.30600  0.40600  0.21500  Biso   1.000  C
  C80      1.0000 0.19400  0.90600  0.28500  Biso   1.000  C
