data_image0
_cell_length_a       12.347
_cell_length_b       26.54
_cell_length_c       7.1648
_cell_angle_alpha    90
_cell_angle_beta     119.129
_cell_angle_gamma    90

_symmetry_space_group_name_H-M    "P 1"
_symmetry_int_tables_number       1

loop_
  _symmetry_equiv_pos_as_xyz
  'x, y, z'

loop_
  _atom_site_label
  _atom_site_occupancy
  _atom_site_fract_x
  _atom_site_fract_y
  _atom_site_fract_z
  _atom_site_thermal_displace_type
  _atom_site_B_iso_or_equiv
  _atom_site_type_symbol
  N1       1.0000 0.98670  0.88480  0.16200  Biso   1.000  N
  N2       1.0000 0.48670  0.38480  0.16200  Biso   1.000  N
  N3       1.0000 0.01330  0.88480  0.33800  Biso   1.000  N
  N4       1.0000 0.51330  0.38480  0.33800  Biso   1.000  N
  N5       1.0000 0.01330  0.11520  0.83800  Biso   1.000  N
  N6       1.0000 0.51330  0.61520  0.83800  Biso   1.000  N
  N7       1.0000 0.98670  0.11520  0.66200  Biso   1.000  N
  N8       1.0000 0.48670  0.61520  0.66200  Biso   1.000  N
  O1       1.0000 0.87430  0.87320  0.06000  Biso   1.000  O
  O2       1.0000 0.37430  0.37320  0.06000  Biso   1.000  O
  O3       1.0000 0.12570  0.87320  0.44000  Biso   1.000  O
  O4       1.0000 0.62570  0.37320  0.44000  Biso   1.000  O
  O5       1.0000 0.12570  0.12680  0.94000  Biso   1.000  O
  O6       1.0000 0.62570  0.62680  0.94000  Biso   1.000  O
  O7       1.0000 0.87430  0.12680  0.56000  Biso   1.000  O
  O8       1.0000 0.37430  0.62680  0.56000  Biso   1.000  O
  O9       1.0000 0.03740  0.88570  0.35700  Biso   1.000  O
  O10      1.0000 0.53740  0.38570  0.35700  Biso   1.000  O
  O11      1.0000 0.96260  0.88570  0.14300  Biso   1.000  O
  O12      1.0000 0.46260  0.38570  0.14300  Biso   1.000  O
  O13      1.0000 0.96260  0.11430  0.64300  Biso   1.000  O
  O14      1.0000 0.46260  0.61430  0.64300  Biso   1.000  O
  O15      1.0000 0.03740  0.11430  0.85700  Biso   1.000  O
  O16      1.0000 0.53740  0.61430  0.85700  Biso   1.000  O
  O17      1.0000 0.04040  0.89410  0.05900  Biso   1.000  O
  O18      1.0000 0.54040  0.39410  0.05900  Biso   1.000  O
  O19      1.0000 0.95960  0.89410  0.44100  Biso   1.000  O
  O20      1.0000 0.45960  0.39410  0.44100  Biso   1.000  O
  O21      1.0000 0.95960  0.10590  0.94100  Biso   1.000  O
  O22      1.0000 0.45960  0.60590  0.94100  Biso   1.000  O
  O23      1.0000 0.04040  0.10590  0.55900  Biso   1.000  O
  O24      1.0000 0.54040  0.60590  0.55900  Biso   1.000  O
  Cu1      1.0000 0.50000  0.87294  0.25000  Biso   1.000  Cu
  Cu2      1.0000 0.00000  0.37294  0.25000  Biso   1.000  Cu
  Cu3      1.0000 0.50000  0.12706  0.75000  Biso   1.000  Cu
  Cu4      1.0000 0.00000  0.62706  0.75000  Biso   1.000  Cu
  N9       1.0000 0.38270  0.92935  0.10880  Biso   1.000  N
  N10      1.0000 0.88270  0.42935  0.10880  Biso   1.000  N
  N11      1.0000 0.61730  0.92935  0.39120  Biso   1.000  N
  N12      1.0000 0.11730  0.42935  0.39120  Biso   1.000  N
  N13      1.0000 0.61730  0.07065  0.89120  Biso   1.000  N
  N14      1.0000 0.11730  0.57065  0.89120  Biso   1.000  N
  N15      1.0000 0.38270  0.07065  0.60880  Biso   1.000  N
  N16      1.0000 0.88270  0.57065  0.60880  Biso   1.000  N
  C1       1.0000 0.26540  0.92580  0.95230  Biso   1.000  C
  C2       1.0000 0.76540  0.42580  0.95230  Biso   1.000  C
  C3       1.0000 0.73460  0.92580  0.54770  Biso   1.000  C
  C4       1.0000 0.23460  0.42580  0.54770  Biso   1.000  C
  C5       1.0000 0.73460  0.07420  0.04770  Biso   1.000  C
  C6       1.0000 0.23460  0.57420  0.04770  Biso   1.000  C
  C7       1.0000 0.26540  0.07420  0.45230  Biso   1.000  C
  C8       1.0000 0.76540  0.57420  0.45230  Biso   1.000  C
  H1       1.0000 0.23100  0.89390  0.90830  Biso   1.000  H
  H2       1.0000 0.73100  0.39390  0.90830  Biso   1.000  H
  H3       1.0000 0.76900  0.89390  0.59170  Biso   1.000  H
  H4       1.0000 0.26900  0.39390  0.59170  Biso   1.000  H
  H5       1.0000 0.76900  0.10610  0.09170  Biso   1.000  H
  H6       1.0000 0.26900  0.60610  0.09170  Biso   1.000  H
  H7       1.0000 0.23100  0.10610  0.40830  Biso   1.000  H
  H8       1.0000 0.73100  0.60610  0.40830  Biso   1.000  H
  C9       1.0000 0.19230  0.96780  0.85220  Biso   1.000  C
  C10      1.0000 0.69230  0.46780  0.85220  Biso   1.000  C
  C11      1.0000 0.80770  0.96780  0.64780  Biso   1.000  C
  C12      1.0000 0.30770  0.46780  0.64780  Biso   1.000  C
  C13      1.0000 0.80770  0.03220  0.14780  Biso   1.000  C
  C14      1.0000 0.30770  0.53220  0.14780  Biso   1.000  C
  C15      1.0000 0.19230  0.03220  0.35220  Biso   1.000  C
  C16      1.0000 0.69230  0.53220  0.35220  Biso   1.000  C
  H9       1.0000 0.11050  0.96410  0.74460  Biso   1.000  H
  H10      1.0000 0.61050  0.46410  0.74460  Biso   1.000  H
  H11      1.0000 0.88950  0.96410  0.75540  Biso   1.000  H
  H12      1.0000 0.38950  0.46410  0.75540  Biso   1.000  H
  H13      1.0000 0.88950  0.03590  0.25540  Biso   1.000  H
  H14      1.0000 0.38950  0.53590  0.25540  Biso   1.000  H
  H15      1.0000 0.11050  0.03590  0.24460  Biso   1.000  H
  H16      1.0000 0.61050  0.53590  0.24460  Biso   1.000  H
  C17      1.0000 0.24380  0.01460  0.91630  Biso   1.000  C
  C18      1.0000 0.74380  0.51460  0.91630  Biso   1.000  C
  C19      1.0000 0.75620  0.01460  0.58370  Biso   1.000  C
  C20      1.0000 0.25620  0.51460  0.58370  Biso   1.000  C
  C21      1.0000 0.75620  0.98540  0.08370  Biso   1.000  C
  C22      1.0000 0.25620  0.48540  0.08370  Biso   1.000  C
  C23      1.0000 0.24380  0.98540  0.41630  Biso   1.000  C
  C24      1.0000 0.74380  0.48540  0.41630  Biso   1.000  C
  H17      1.0000 0.19650  0.04320  0.85390  Biso   1.000  H
  H18      1.0000 0.69650  0.54320  0.85390  Biso   1.000  H
  H19      1.0000 0.80350  0.04320  0.64610  Biso   1.000  H
  H20      1.0000 0.30350  0.54320  0.64610  Biso   1.000  H
  H21      1.0000 0.80350  0.95680  0.14610  Biso   1.000  H
  H22      1.0000 0.30350  0.45680  0.14610  Biso   1.000  H
  H23      1.0000 0.19650  0.95680  0.35390  Biso   1.000  H
  H24      1.0000 0.69650  0.45680  0.35390  Biso   1.000  H
  C25      1.0000 0.36460  0.01917  0.07200  Biso   1.000  C
  C26      1.0000 0.86460  0.51917  0.07200  Biso   1.000  C
  C27      1.0000 0.63540  0.01917  0.42800  Biso   1.000  C
  C28      1.0000 0.13540  0.51917  0.42800  Biso   1.000  C
  C29      1.0000 0.63540  0.98083  0.92800  Biso   1.000  C
  C30      1.0000 0.13540  0.48083  0.92800  Biso   1.000  C
  C31      1.0000 0.36460  0.98083  0.57200  Biso   1.000  C
  C32      1.0000 0.86460  0.48083  0.57200  Biso   1.000  C
  H25      1.0000 0.39990  0.05100  0.11450  Biso   1.000  H
  H26      1.0000 0.89990  0.55100  0.11450  Biso   1.000  H
  H27      1.0000 0.60010  0.05100  0.38550  Biso   1.000  H
  H28      1.0000 0.10010  0.55100  0.38550  Biso   1.000  H
  H29      1.0000 0.60010  0.94900  0.88550  Biso   1.000  H
  H30      1.0000 0.10010  0.44900  0.88550  Biso   1.000  H
  H31      1.0000 0.39990  0.94900  0.61450  Biso   1.000  H
  H32      1.0000 0.89990  0.44900  0.61450  Biso   1.000  H
  C33      1.0000 0.43570  0.97592  0.16790  Biso   1.000  C
  C34      1.0000 0.93570  0.47592  0.16790  Biso   1.000  C
  C35      1.0000 0.56430  0.97592  0.33210  Biso   1.000  C
  C36      1.0000 0.06430  0.47592  0.33210  Biso   1.000  C
  C37      1.0000 0.56430  0.02408  0.83210  Biso   1.000  C
  C38      1.0000 0.06430  0.52408  0.83210  Biso   1.000  C
  C39      1.0000 0.43570  0.02408  0.66790  Biso   1.000  C
  C40      1.0000 0.93570  0.52408  0.66790  Biso   1.000  C
  N17      1.0000 0.60990  0.81709  0.26530  Biso   1.000  N
  N18      1.0000 0.10990  0.31709  0.26530  Biso   1.000  N
  N19      1.0000 0.39010  0.81709  0.23470  Biso   1.000  N
  N20      1.0000 0.89010  0.31709  0.23470  Biso   1.000  N
  N21      1.0000 0.39010  0.18291  0.73470  Biso   1.000  N
  N22      1.0000 0.89010  0.68291  0.73470  Biso   1.000  N
  N23      1.0000 0.60990  0.18291  0.76530  Biso   1.000  N
  N24      1.0000 0.10990  0.68291  0.76530  Biso   1.000  N
  C41      1.0000 0.71720  0.82050  0.25930  Biso   1.000  C
  C42      1.0000 0.21720  0.32050  0.25930  Biso   1.000  C
  C43      1.0000 0.28280  0.82050  0.24070  Biso   1.000  C
  C44      1.0000 0.78280  0.32050  0.24070  Biso   1.000  C
  C45      1.0000 0.28280  0.17950  0.74070  Biso   1.000  C
  C46      1.0000 0.78280  0.67950  0.74070  Biso   1.000  C
  C47      1.0000 0.71720  0.17950  0.75930  Biso   1.000  C
  C48      1.0000 0.21720  0.67950  0.75930  Biso   1.000  C
  H33      1.0000 0.75070  0.85230  0.26640  Biso   1.000  H
  H34      1.0000 0.25070  0.35230  0.26640  Biso   1.000  H
  H35      1.0000 0.24930  0.85230  0.23360  Biso   1.000  H
  H36      1.0000 0.74930  0.35230  0.23360  Biso   1.000  H
  H37      1.0000 0.24930  0.14770  0.73360  Biso   1.000  H
  H38      1.0000 0.74930  0.64770  0.73360  Biso   1.000  H
  H39      1.0000 0.75070  0.14770  0.76640  Biso   1.000  H
  H40      1.0000 0.25070  0.64770  0.76640  Biso   1.000  H
  C49      1.0000 0.77950  0.77910  0.24310  Biso   1.000  C
  C50      1.0000 0.27950  0.27910  0.24310  Biso   1.000  C
  C51      1.0000 0.22050  0.77910  0.25690  Biso   1.000  C
  C52      1.0000 0.72050  0.27910  0.25690  Biso   1.000  C
  C53      1.0000 0.22050  0.22090  0.75690  Biso   1.000  C
  C54      1.0000 0.72050  0.72090  0.75690  Biso   1.000  C
  C55      1.0000 0.77950  0.22090  0.74310  Biso   1.000  C
  C56      1.0000 0.27950  0.72090  0.74310  Biso   1.000  C
  H41      1.0000 0.85450  0.78270  0.24330  Biso   1.000  H
  H42      1.0000 0.35450  0.28270  0.24330  Biso   1.000  H
  H43      1.0000 0.14550  0.78270  0.25670  Biso   1.000  H
  H44      1.0000 0.64550  0.28270  0.25670  Biso   1.000  H
  H45      1.0000 0.14550  0.21730  0.75670  Biso   1.000  H
  H46      1.0000 0.64550  0.71730  0.75670  Biso   1.000  H
  H47      1.0000 0.85450  0.21730  0.74330  Biso   1.000  H
  H48      1.0000 0.35450  0.71730  0.74330  Biso   1.000  H
  C57      1.0000 0.72720  0.73210  0.22650  Biso   1.000  C
  C58      1.0000 0.22720  0.23210  0.22650  Biso   1.000  C
  C59      1.0000 0.27280  0.73210  0.27350  Biso   1.000  C
  C60      1.0000 0.77280  0.23210  0.27350  Biso   1.000  C
  C61      1.0000 0.27280  0.26790  0.77350  Biso   1.000  C
  C62      1.0000 0.77280  0.76790  0.77350  Biso   1.000  C
  C63      1.0000 0.72720  0.26790  0.72650  Biso   1.000  C
  C64      1.0000 0.22720  0.76790  0.72650  Biso   1.000  C
  H49      1.0000 0.76710  0.70340  0.21570  Biso   1.000  H
  H50      1.0000 0.26710  0.20340  0.21570  Biso   1.000  H
  H51      1.0000 0.23290  0.70340  0.28430  Biso   1.000  H
  H52      1.0000 0.73290  0.20340  0.28430  Biso   1.000  H
  H53      1.0000 0.23290  0.29660  0.78430  Biso   1.000  H
  H54      1.0000 0.73290  0.79660  0.78430  Biso   1.000  H
  H55      1.0000 0.76710  0.29660  0.71570  Biso   1.000  H
  H56      1.0000 0.26710  0.79660  0.71570  Biso   1.000  H
  C65      1.0000 0.61700  0.72795  0.22590  Biso   1.000  C
  C66      1.0000 0.11700  0.22795  0.22590  Biso   1.000  C
  C67      1.0000 0.38300  0.72795  0.27410  Biso   1.000  C
  C68      1.0000 0.88300  0.22795  0.27410  Biso   1.000  C
  C69      1.0000 0.38300  0.27205  0.77410  Biso   1.000  C
  C70      1.0000 0.88300  0.77205  0.77410  Biso   1.000  C
  C71      1.0000 0.61700  0.27205  0.72590  Biso   1.000  C
  C72      1.0000 0.11700  0.77205  0.72590  Biso   1.000  C
  H57      1.0000 0.58060  0.69650  0.21130  Biso   1.000  H
  H58      1.0000 0.08060  0.19650  0.21130  Biso   1.000  H
  H59      1.0000 0.41940  0.69650  0.28870  Biso   1.000  H
  H60      1.0000 0.91940  0.19650  0.28870  Biso   1.000  H
  H61      1.0000 0.41940  0.30350  0.78870  Biso   1.000  H
  H62      1.0000 0.91940  0.80350  0.78870  Biso   1.000  H
  H63      1.0000 0.58060  0.30350  0.71130  Biso   1.000  H
  H64      1.0000 0.08060  0.80350  0.71130  Biso   1.000  H
  C73      1.0000 0.55850  0.77104  0.24720  Biso   1.000  C
  C74      1.0000 0.05850  0.27104  0.24720  Biso   1.000  C
  C75      1.0000 0.44150  0.77104  0.25280  Biso   1.000  C
  C76      1.0000 0.94150  0.27104  0.25280  Biso   1.000  C
  C77      1.0000 0.44150  0.22896  0.75280  Biso   1.000  C
  C78      1.0000 0.94150  0.72896  0.75280  Biso   1.000  C
  C79      1.0000 0.55850  0.22896  0.74720  Biso   1.000  C
  C80      1.0000 0.05850  0.72896  0.74720  Biso   1.000  C
  N25      1.0000 0.50000  0.84520  0.75000  Biso   1.000  N
  N26      1.0000 0.00000  0.34520  0.75000  Biso   1.000  N
  N27      1.0000 0.50000  0.15480  0.25000  Biso   1.000  N
  N28      1.0000 0.00000  0.65480  0.25000  Biso   1.000  N
  O25      1.0000 0.50000  0.79903  0.75000  Biso   1.000  O
  O26      1.0000 0.00000  0.29903  0.75000  Biso   1.000  O
  O27      1.0000 0.50000  0.20097  0.25000  Biso   1.000  O
  O28      1.0000 0.00000  0.70097  0.25000  Biso   1.000  O
  O29      1.0000 0.45040  0.86910  0.83990  Biso   1.000  O
  O30      1.0000 0.95040  0.36910  0.83990  Biso   1.000  O
  O31      1.0000 0.54960  0.86910  0.66010  Biso   1.000  O
  O32      1.0000 0.04960  0.36910  0.66010  Biso   1.000  O
  O33      1.0000 0.54960  0.13090  0.16010  Biso   1.000  O
  O34      1.0000 0.04960  0.63090  0.16010  Biso   1.000  O
  O35      1.0000 0.45040  0.13090  0.33990  Biso   1.000  O
  O36      1.0000 0.95040  0.63090  0.33990  Biso   1.000  O
