data_image0
_cell_length_a       18.5893
_cell_length_b       19.1188
_cell_length_c       29.1839
_cell_angle_alpha    90
_cell_angle_beta     90
_cell_angle_gamma    90

_symmetry_space_group_name_H-M    "P 1"
_symmetry_int_tables_number       1

loop_
  _symmetry_equiv_pos_as_xyz
  'x, y, z'

loop_
  _atom_site_label
  _atom_site_occupancy
  _atom_site_fract_x
  _atom_site_fract_y
  _atom_site_fract_z
  _atom_site_thermal_displace_type
  _atom_site_B_iso_or_equiv
  _atom_site_type_symbol
  Cu1      1.0000 0.32433  0.05679  0.62445  Biso   1.000  Cu
  Cu2      1.0000 0.17567  0.94321  0.62445  Biso   1.000  Cu
  Cu3      1.0000 0.17567  0.55679  0.87555  Biso   1.000  Cu
  Cu4      1.0000 0.32433  0.44321  0.87555  Biso   1.000  Cu
  Cu5      1.0000 0.67567  0.94321  0.37555  Biso   1.000  Cu
  Cu6      1.0000 0.82433  0.05679  0.37555  Biso   1.000  Cu
  Cu7      1.0000 0.82433  0.44321  0.12445  Biso   1.000  Cu
  Cu8      1.0000 0.67567  0.55679  0.12445  Biso   1.000  Cu
  Cu9      1.0000 0.67493  0.55727  0.74112  Biso   1.000  Cu
  Cu10     1.0000 0.82507  0.44273  0.74112  Biso   1.000  Cu
  Cu11     1.0000 0.82507  0.05727  0.75888  Biso   1.000  Cu
  Cu12     1.0000 0.67493  0.94273  0.75888  Biso   1.000  Cu
  Cu13     1.0000 0.32507  0.44273  0.25888  Biso   1.000  Cu
  Cu14     1.0000 0.17493  0.55727  0.25888  Biso   1.000  Cu
  Cu15     1.0000 0.17493  0.94273  0.24112  Biso   1.000  Cu
  Cu16     1.0000 0.32507  0.05727  0.24112  Biso   1.000  Cu
  N1       1.0000 0.72366  0.41427  0.72605  Biso   1.000  N
  N2       1.0000 0.77634  0.58573  0.72605  Biso   1.000  N
  N3       1.0000 0.77634  0.91427  0.77395  Biso   1.000  N
  N4       1.0000 0.72366  0.08573  0.77395  Biso   1.000  N
  N5       1.0000 0.27634  0.58573  0.27395  Biso   1.000  N
  N6       1.0000 0.22366  0.41427  0.27395  Biso   1.000  N
  N7       1.0000 0.22366  0.08573  0.22605  Biso   1.000  N
  N8       1.0000 0.27634  0.91427  0.22605  Biso   1.000  N
  N9       1.0000 0.32989  0.06321  0.31204  Biso   1.000  N
  N10      1.0000 0.17011  0.93679  0.31204  Biso   1.000  N
  N11      1.0000 0.17011  0.56321  0.18796  Biso   1.000  N
  N12      1.0000 0.32989  0.43679  0.18796  Biso   1.000  N
  N13      1.0000 0.67011  0.93679  0.68796  Biso   1.000  N
  N14      1.0000 0.82989  0.06321  0.68796  Biso   1.000  N
  N15      1.0000 0.82989  0.43679  0.81204  Biso   1.000  N
  N16      1.0000 0.67011  0.56321  0.81204  Biso   1.000  N
  N17      1.0000 0.66543  0.45658  0.72718  Biso   1.000  N
  N18      1.0000 0.83457  0.54342  0.72718  Biso   1.000  N
  N19      1.0000 0.83457  0.95658  0.77282  Biso   1.000  N
  N20      1.0000 0.66543  0.04342  0.77282  Biso   1.000  N
  N21      1.0000 0.33457  0.54342  0.27282  Biso   1.000  N
  N22      1.0000 0.16543  0.45658  0.27282  Biso   1.000  N
  N23      1.0000 0.16543  0.04342  0.22718  Biso   1.000  N
  N24      1.0000 0.33457  0.95658  0.22718  Biso   1.000  N
  N25      1.0000 0.33396  0.95670  0.63936  Biso   1.000  N
  N26      1.0000 0.16604  0.04330  0.63936  Biso   1.000  N
  N27      1.0000 0.16604  0.45670  0.86064  Biso   1.000  N
  N28      1.0000 0.33396  0.54330  0.86064  Biso   1.000  N
  N29      1.0000 0.66604  0.04330  0.36064  Biso   1.000  N
  N30      1.0000 0.83396  0.95670  0.36064  Biso   1.000  N
  N31      1.0000 0.83396  0.54330  0.13936  Biso   1.000  N
  N32      1.0000 0.66604  0.45670  0.13936  Biso   1.000  N
  N33      1.0000 0.27608  0.91353  0.63966  Biso   1.000  N
  N34      1.0000 0.22392  0.08647  0.63966  Biso   1.000  N
  N35      1.0000 0.22392  0.41353  0.86034  Biso   1.000  N
  N36      1.0000 0.27608  0.58647  0.86034  Biso   1.000  N
  N37      1.0000 0.72392  0.08647  0.36034  Biso   1.000  N
  N38      1.0000 0.77608  0.91353  0.36034  Biso   1.000  N
  N39      1.0000 0.77608  0.58647  0.13966  Biso   1.000  N
  N40      1.0000 0.72392  0.41353  0.13966  Biso   1.000  N
  O1       1.0000 0.62478  0.63566  0.71419  Biso   1.000  O
  O2       1.0000 0.87522  0.36434  0.71419  Biso   1.000  O
  O3       1.0000 0.87522  0.13566  0.78581  Biso   1.000  O
  O4       1.0000 0.62478  0.86434  0.78581  Biso   1.000  O
  O5       1.0000 0.37522  0.36434  0.28581  Biso   1.000  O
  O6       1.0000 0.12478  0.63566  0.28581  Biso   1.000  O
  O7       1.0000 0.12478  0.86434  0.21419  Biso   1.000  O
  O8       1.0000 0.37522  0.13566  0.21419  Biso   1.000  O
  O9       1.0000 0.38056  0.13207  0.64960  Biso   1.000  O
  O10      1.0000 0.11944  0.86793  0.64960  Biso   1.000  O
  O11      1.0000 0.11944  0.63207  0.85040  Biso   1.000  O
  O12      1.0000 0.38056  0.36793  0.85040  Biso   1.000  O
  O13      1.0000 0.61944  0.86793  0.35040  Biso   1.000  O
  O14      1.0000 0.88056  0.13207  0.35040  Biso   1.000  O
  O15      1.0000 0.88056  0.36793  0.14960  Biso   1.000  O
  O16      1.0000 0.61944  0.63207  0.14960  Biso   1.000  O
  O17      1.0000 0.47420  0.06841  0.63011  Biso   1.000  O
  O18      1.0000 0.02580  0.93159  0.63011  Biso   1.000  O
  O19      1.0000 0.02580  0.56841  0.86989  Biso   1.000  O
  O20      1.0000 0.47420  0.43159  0.86989  Biso   1.000  O
  O21      1.0000 0.52580  0.93159  0.36989  Biso   1.000  O
  O22      1.0000 0.97420  0.06841  0.36989  Biso   1.000  O
  O23      1.0000 0.97420  0.43159  0.13011  Biso   1.000  O
  O24      1.0000 0.52580  0.56841  0.13011  Biso   1.000  O
  O25      1.0000 0.53254  0.57045  0.73522  Biso   1.000  O
  O26      1.0000 0.96746  0.42955  0.73522  Biso   1.000  O
  O27      1.0000 0.96746  0.07045  0.76478  Biso   1.000  O
  O28      1.0000 0.53254  0.92955  0.76478  Biso   1.000  O
  O29      1.0000 0.46746  0.42955  0.26478  Biso   1.000  O
  O30      1.0000 0.03254  0.57045  0.26478  Biso   1.000  O
  O31      1.0000 0.03254  0.92955  0.23522  Biso   1.000  O
  O32      1.0000 0.46746  0.07045  0.23522  Biso   1.000  O
  N41      1.0000 0.32994  0.06209  0.55349  Biso   1.000  N
  N42      1.0000 0.17006  0.93791  0.55349  Biso   1.000  N
  N43      1.0000 0.17006  0.56209  0.94651  Biso   1.000  N
  N44      1.0000 0.32994  0.43791  0.94651  Biso   1.000  N
  N45      1.0000 0.67006  0.93791  0.44651  Biso   1.000  N
  N46      1.0000 0.82994  0.06209  0.44651  Biso   1.000  N
  N47      1.0000 0.82994  0.43791  0.05349  Biso   1.000  N
  N48      1.0000 0.67006  0.56209  0.05349  Biso   1.000  N
  C1       1.0000 0.41926  0.79146  0.67289  Biso   1.000  C
  C2       1.0000 0.08074  0.20854  0.67289  Biso   1.000  C
  C3       1.0000 0.08074  0.29146  0.82711  Biso   1.000  C
  C4       1.0000 0.41926  0.70854  0.82711  Biso   1.000  C
  C5       1.0000 0.58074  0.20854  0.32711  Biso   1.000  C
  C6       1.0000 0.91926  0.79146  0.32711  Biso   1.000  C
  C7       1.0000 0.91926  0.70854  0.17289  Biso   1.000  C
  C8       1.0000 0.58074  0.29146  0.17289  Biso   1.000  C
  C9       1.0000 0.38580  0.03210  0.38221  Biso   1.000  C
  C10      1.0000 0.11420  0.96790  0.38221  Biso   1.000  C
  C11      1.0000 0.11420  0.53210  0.11779  Biso   1.000  C
  C12      1.0000 0.38580  0.46790  0.11779  Biso   1.000  C
  C13      1.0000 0.61420  0.96790  0.61779  Biso   1.000  C
  C14      1.0000 0.88580  0.03210  0.61779  Biso   1.000  C
  C15      1.0000 0.88580  0.46790  0.88221  Biso   1.000  C
  C16      1.0000 0.61420  0.53210  0.88221  Biso   1.000  C
  H1       1.0000 0.42355  0.00961  0.39709  Biso   1.000  H
  H2       1.0000 0.07645  0.99039  0.39709  Biso   1.000  H
  H3       1.0000 0.07645  0.50961  0.10291  Biso   1.000  H
  H4       1.0000 0.42355  0.49039  0.10291  Biso   1.000  H
  H5       1.0000 0.57645  0.99039  0.60291  Biso   1.000  H
  H6       1.0000 0.92355  0.00961  0.60291  Biso   1.000  H
  H7       1.0000 0.92355  0.49039  0.89709  Biso   1.000  H
  H8       1.0000 0.57645  0.50961  0.89709  Biso   1.000  H
  C17      1.0000 0.49448  0.17969  0.66350  Biso   1.000  C
  C18      1.0000 0.00552  0.82031  0.66350  Biso   1.000  C
  C19      1.0000 0.00552  0.67969  0.83650  Biso   1.000  C
  C20      1.0000 0.49448  0.32031  0.83650  Biso   1.000  C
  C21      1.0000 0.50552  0.82031  0.33650  Biso   1.000  C
  C22      1.0000 0.99448  0.17969  0.33650  Biso   1.000  C
  C23      1.0000 0.99448  0.32031  0.16350  Biso   1.000  C
  C24      1.0000 0.50552  0.67969  0.16350  Biso   1.000  C
  C25      1.0000 0.60746  0.41854  0.71510  Biso   1.000  C
  C26      1.0000 0.89254  0.58146  0.71510  Biso   1.000  C
  C27      1.0000 0.89254  0.91854  0.78490  Biso   1.000  C
  C28      1.0000 0.60746  0.08146  0.78490  Biso   1.000  C
  C29      1.0000 0.39254  0.58146  0.28490  Biso   1.000  C
  C30      1.0000 0.10746  0.41854  0.28490  Biso   1.000  C
  C31      1.0000 0.10746  0.08146  0.21510  Biso   1.000  C
  C32      1.0000 0.39254  0.91854  0.21510  Biso   1.000  C
  H9       1.0000 0.56074  0.43562  0.71290  Biso   1.000  H
  H10      1.0000 0.93926  0.56438  0.71290  Biso   1.000  H
  H11      1.0000 0.93926  0.93562  0.78710  Biso   1.000  H
  H12      1.0000 0.56074  0.06438  0.78710  Biso   1.000  H
  H13      1.0000 0.43926  0.56438  0.28710  Biso   1.000  H
  H14      1.0000 0.06074  0.43562  0.28710  Biso   1.000  H
  H15      1.0000 0.06074  0.06438  0.21290  Biso   1.000  H
  H16      1.0000 0.43926  0.93562  0.21290  Biso   1.000  H
  C33      1.0000 0.62805  0.34989  0.70641  Biso   1.000  C
  C34      1.0000 0.87195  0.65011  0.70641  Biso   1.000  C
  C35      1.0000 0.87195  0.84989  0.79359  Biso   1.000  C
  C36      1.0000 0.62805  0.15011  0.79359  Biso   1.000  C
  C37      1.0000 0.37195  0.65011  0.29359  Biso   1.000  C
  C38      1.0000 0.12805  0.34989  0.29359  Biso   1.000  C
  C39      1.0000 0.12805  0.15011  0.20641  Biso   1.000  C
  C40      1.0000 0.37195  0.84989  0.20641  Biso   1.000  C
  C41      1.0000 0.37196  0.84942  0.65933  Biso   1.000  C
  C42      1.0000 0.12804  0.15058  0.65933  Biso   1.000  C
  C43      1.0000 0.12804  0.34942  0.84067  Biso   1.000  C
  C44      1.0000 0.37196  0.65058  0.84067  Biso   1.000  C
  C45      1.0000 0.62804  0.15058  0.34067  Biso   1.000  C
  C46      1.0000 0.87196  0.84942  0.34067  Biso   1.000  C
  C47      1.0000 0.87196  0.65058  0.15933  Biso   1.000  C
  C48      1.0000 0.62804  0.34942  0.15933  Biso   1.000  C
  C49      1.0000 0.33287  0.06570  0.40724  Biso   1.000  C
  C50      1.0000 0.16713  0.93430  0.40724  Biso   1.000  C
  C51      1.0000 0.16713  0.56570  0.09276  Biso   1.000  C
  C52      1.0000 0.33287  0.43430  0.09276  Biso   1.000  C
  C53      1.0000 0.66713  0.93430  0.59276  Biso   1.000  C
  C54      1.0000 0.83287  0.06570  0.59276  Biso   1.000  C
  C55      1.0000 0.83287  0.43430  0.90724  Biso   1.000  C
  C56      1.0000 0.66713  0.56570  0.90724  Biso   1.000  C
  C57      1.0000 0.39161  0.91910  0.65136  Biso   1.000  C
  C58      1.0000 0.10839  0.08090  0.65136  Biso   1.000  C
  C59      1.0000 0.10839  0.41910  0.84864  Biso   1.000  C
  C60      1.0000 0.39161  0.58090  0.84864  Biso   1.000  C
  C61      1.0000 0.60839  0.08090  0.34864  Biso   1.000  C
  C62      1.0000 0.89161  0.91910  0.34864  Biso   1.000  C
  C63      1.0000 0.89161  0.58090  0.15136  Biso   1.000  C
  C64      1.0000 0.60839  0.41910  0.15136  Biso   1.000  C
  H17      1.0000 0.43807  0.93667  0.65402  Biso   1.000  H
  H18      1.0000 0.06193  0.06333  0.65402  Biso   1.000  H
  H19      1.0000 0.06193  0.43667  0.84598  Biso   1.000  H
  H20      1.0000 0.43807  0.56333  0.84598  Biso   1.000  H
  H21      1.0000 0.56193  0.06333  0.34598  Biso   1.000  H
  H22      1.0000 0.93807  0.93667  0.34598  Biso   1.000  H
  H23      1.0000 0.93807  0.56333  0.15402  Biso   1.000  H
  H24      1.0000 0.56193  0.43667  0.15402  Biso   1.000  H
  C65      1.0000 0.58216  0.29150  0.69197  Biso   1.000  C
  C66      1.0000 0.91784  0.70850  0.69197  Biso   1.000  C
  C67      1.0000 0.91784  0.79150  0.80803  Biso   1.000  C
  C68      1.0000 0.58216  0.20850  0.80803  Biso   1.000  C
  C69      1.0000 0.41784  0.70850  0.30803  Biso   1.000  C
  C70      1.0000 0.08216  0.29150  0.30803  Biso   1.000  C
  C71      1.0000 0.08216  0.20850  0.19197  Biso   1.000  C
  C72      1.0000 0.41784  0.79150  0.19197  Biso   1.000  C
  C73      1.0000 0.70130  0.35022  0.71410  Biso   1.000  C
  C74      1.0000 0.79870  0.64978  0.71410  Biso   1.000  C
  C75      1.0000 0.79870  0.85022  0.78590  Biso   1.000  C
  C76      1.0000 0.70130  0.14978  0.78590  Biso   1.000  C
  C77      1.0000 0.29870  0.64978  0.28590  Biso   1.000  C
  C78      1.0000 0.20130  0.35022  0.28590  Biso   1.000  C
  C79      1.0000 0.20130  0.14978  0.21410  Biso   1.000  C
  C80      1.0000 0.29870  0.85022  0.21410  Biso   1.000  C
  H25      1.0000 0.73104  0.31133  0.71136  Biso   1.000  H
  H26      1.0000 0.76896  0.68867  0.71136  Biso   1.000  H
  H27      1.0000 0.76896  0.81133  0.78864  Biso   1.000  H
  H28      1.0000 0.73104  0.18867  0.78864  Biso   1.000  H
  H29      1.0000 0.26896  0.68867  0.28864  Biso   1.000  H
  H30      1.0000 0.23104  0.31133  0.28864  Biso   1.000  H
  H31      1.0000 0.23104  0.18867  0.21136  Biso   1.000  H
  H32      1.0000 0.26896  0.81133  0.21136  Biso   1.000  H
  C81      1.0000 0.38208  0.03210  0.33544  Biso   1.000  C
  C82      1.0000 0.11792  0.96790  0.33544  Biso   1.000  C
  C83      1.0000 0.11792  0.53210  0.16456  Biso   1.000  C
  C84      1.0000 0.38208  0.46790  0.16456  Biso   1.000  C
  C85      1.0000 0.61792  0.96790  0.66456  Biso   1.000  C
  C86      1.0000 0.88208  0.03210  0.66456  Biso   1.000  C
  C87      1.0000 0.88208  0.46790  0.83544  Biso   1.000  C
  C88      1.0000 0.61792  0.53210  0.83544  Biso   1.000  C
  H33      1.0000 0.41800  0.00909  0.31916  Biso   1.000  H
  H34      1.0000 0.08200  0.99091  0.31916  Biso   1.000  H
  H35      1.0000 0.08200  0.50909  0.18084  Biso   1.000  H
  H36      1.0000 0.41800  0.49091  0.18084  Biso   1.000  H
  H37      1.0000 0.58200  0.99091  0.68084  Biso   1.000  H
  H38      1.0000 0.91800  0.00909  0.68084  Biso   1.000  H
  H39      1.0000 0.91800  0.49091  0.81916  Biso   1.000  H
  H40      1.0000 0.58200  0.50909  0.81916  Biso   1.000  H
  C89      1.0000 0.27820  0.09470  0.33610  Biso   1.000  C
  C90      1.0000 0.22180  0.90530  0.33610  Biso   1.000  C
  C91      1.0000 0.22180  0.59470  0.16390  Biso   1.000  C
  C92      1.0000 0.27820  0.40530  0.16390  Biso   1.000  C
  C93      1.0000 0.72180  0.90530  0.66390  Biso   1.000  C
  C94      1.0000 0.77820  0.09470  0.66390  Biso   1.000  C
  C95      1.0000 0.77820  0.40530  0.83610  Biso   1.000  C
  C96      1.0000 0.72180  0.59470  0.83610  Biso   1.000  C
  H41      1.0000 0.24050  0.11566  0.32031  Biso   1.000  H
  H42      1.0000 0.25950  0.88434  0.32031  Biso   1.000  H
  H43      1.0000 0.25950  0.61566  0.17969  Biso   1.000  H
  H44      1.0000 0.24050  0.38434  0.17969  Biso   1.000  H
  H45      1.0000 0.75950  0.88434  0.67969  Biso   1.000  H
  H46      1.0000 0.74050  0.11566  0.67969  Biso   1.000  H
  H47      1.0000 0.74050  0.38434  0.82031  Biso   1.000  H
  H48      1.0000 0.75950  0.61566  0.82031  Biso   1.000  H
  C97      1.0000 0.56854  0.17445  0.66251  Biso   1.000  C
  C98      1.0000 0.93146  0.82555  0.66251  Biso   1.000  C
  C99      1.0000 0.93146  0.67445  0.83749  Biso   1.000  C
  C100     1.0000 0.56854  0.32555  0.83749  Biso   1.000  C
  C101     1.0000 0.43146  0.82555  0.33749  Biso   1.000  C
  C102     1.0000 0.06854  0.17445  0.33749  Biso   1.000  C
  C103     1.0000 0.06854  0.32555  0.16251  Biso   1.000  C
  C104     1.0000 0.43146  0.67445  0.16251  Biso   1.000  C
  H49      1.0000 0.58991  0.13334  0.65226  Biso   1.000  H
  H50      1.0000 0.91009  0.86666  0.65226  Biso   1.000  H
  H51      1.0000 0.91009  0.63334  0.84774  Biso   1.000  H
  H52      1.0000 0.58991  0.36666  0.84774  Biso   1.000  H
  H53      1.0000 0.41009  0.86666  0.34774  Biso   1.000  H
  H54      1.0000 0.08991  0.13334  0.34774  Biso   1.000  H
  H55      1.0000 0.08991  0.36666  0.15226  Biso   1.000  H
  H56      1.0000 0.41009  0.63334  0.15226  Biso   1.000  H
  C105     1.0000 0.33311  0.06480  0.45840  Biso   1.000  C
  C106     1.0000 0.16689  0.93520  0.45840  Biso   1.000  C
  C107     1.0000 0.16689  0.56480  0.04160  Biso   1.000  C
  C108     1.0000 0.33311  0.43520  0.04160  Biso   1.000  C
  C109     1.0000 0.66689  0.93520  0.54160  Biso   1.000  C
  C110     1.0000 0.83311  0.06480  0.54160  Biso   1.000  C
  C111     1.0000 0.83311  0.43520  0.95840  Biso   1.000  C
  C112     1.0000 0.66689  0.56480  0.95840  Biso   1.000  C
  C113     1.0000 0.50917  0.68156  0.70094  Biso   1.000  C
  C114     1.0000 0.99083  0.31844  0.70094  Biso   1.000  C
  C115     1.0000 0.99083  0.18156  0.79906  Biso   1.000  C
  C116     1.0000 0.50917  0.81844  0.79906  Biso   1.000  C
  C117     1.0000 0.49083  0.31844  0.29906  Biso   1.000  C
  C118     1.0000 0.00917  0.68156  0.29906  Biso   1.000  C
  C119     1.0000 0.00917  0.81844  0.20094  Biso   1.000  C
  C120     1.0000 0.49083  0.18156  0.20094  Biso   1.000  C
  C121     1.0000 0.55710  0.62430  0.71780  Biso   1.000  C
  C122     1.0000 0.94290  0.37570  0.71780  Biso   1.000  C
  C123     1.0000 0.94290  0.12430  0.78220  Biso   1.000  C
  C124     1.0000 0.55710  0.87570  0.78220  Biso   1.000  C
  C125     1.0000 0.44290  0.37570  0.28220  Biso   1.000  C
  C126     1.0000 0.05710  0.62430  0.28220  Biso   1.000  C
  C127     1.0000 0.05710  0.87570  0.21780  Biso   1.000  C
  C128     1.0000 0.44290  0.12430  0.21780  Biso   1.000  C
  C129     1.0000 0.29879  0.84914  0.65103  Biso   1.000  C
  C130     1.0000 0.20121  0.15086  0.65103  Biso   1.000  C
  C131     1.0000 0.20121  0.34914  0.84897  Biso   1.000  C
  C132     1.0000 0.29879  0.65086  0.84897  Biso   1.000  C
  C133     1.0000 0.70121  0.15086  0.34897  Biso   1.000  C
  C134     1.0000 0.79879  0.84914  0.34897  Biso   1.000  C
  C135     1.0000 0.79879  0.65086  0.15103  Biso   1.000  C
  C136     1.0000 0.70121  0.34914  0.15103  Biso   1.000  C
  H57      1.0000 0.26940  0.80990  0.65302  Biso   1.000  H
  H58      1.0000 0.23060  0.19010  0.65302  Biso   1.000  H
  H59      1.0000 0.23060  0.30990  0.84698  Biso   1.000  H
  H60      1.0000 0.26940  0.69010  0.84698  Biso   1.000  H
  H61      1.0000 0.73060  0.19010  0.34698  Biso   1.000  H
  H62      1.0000 0.76940  0.80990  0.34698  Biso   1.000  H
  H63      1.0000 0.76940  0.69010  0.15302  Biso   1.000  H
  H64      1.0000 0.73060  0.30990  0.15302  Biso   1.000  H
  C137     1.0000 0.49331  0.79730  0.67053  Biso   1.000  C
  C138     1.0000 0.00669  0.20270  0.67053  Biso   1.000  C
  C139     1.0000 0.00669  0.29730  0.82947  Biso   1.000  C
  C140     1.0000 0.49331  0.70270  0.82947  Biso   1.000  C
  C141     1.0000 0.50669  0.20270  0.32947  Biso   1.000  C
  C142     1.0000 0.99331  0.79730  0.32947  Biso   1.000  C
  C143     1.0000 0.99331  0.70270  0.17053  Biso   1.000  C
  C144     1.0000 0.50669  0.29730  0.17053  Biso   1.000  C
  H65      1.0000 0.51346  0.83823  0.65905  Biso   1.000  H
  H66      1.0000 0.98654  0.16177  0.65905  Biso   1.000  H
  H67      1.0000 0.98654  0.33823  0.84095  Biso   1.000  H
  H68      1.0000 0.51346  0.66177  0.84095  Biso   1.000  H
  H69      1.0000 0.48654  0.16177  0.34095  Biso   1.000  H
  H70      1.0000 0.01346  0.83823  0.34095  Biso   1.000  H
  H71      1.0000 0.01346  0.66177  0.15905  Biso   1.000  H
  H72      1.0000 0.48654  0.33823  0.15905  Biso   1.000  H
  C145     1.0000 0.61097  0.22910  0.67646  Biso   1.000  C
  C146     1.0000 0.88903  0.77090  0.67646  Biso   1.000  C
  C147     1.0000 0.88903  0.72910  0.82354  Biso   1.000  C
  C148     1.0000 0.61097  0.27090  0.82354  Biso   1.000  C
  C149     1.0000 0.38903  0.77090  0.32354  Biso   1.000  C
  C150     1.0000 0.11097  0.22910  0.32354  Biso   1.000  C
  C151     1.0000 0.11097  0.27090  0.17646  Biso   1.000  C
  C152     1.0000 0.38903  0.72910  0.17646  Biso   1.000  C
  H73      1.0000 0.66070  0.22414  0.67546  Biso   1.000  H
  H74      1.0000 0.83930  0.77586  0.67546  Biso   1.000  H
  H75      1.0000 0.83930  0.72414  0.82454  Biso   1.000  H
  H76      1.0000 0.66070  0.27586  0.82454  Biso   1.000  H
  H77      1.0000 0.33930  0.77586  0.32454  Biso   1.000  H
  H78      1.0000 0.16070  0.22414  0.32454  Biso   1.000  H
  H79      1.0000 0.16070  0.27586  0.17546  Biso   1.000  H
  H80      1.0000 0.33930  0.72414  0.17546  Biso   1.000  H
  C153     1.0000 0.27820  0.09760  0.38258  Biso   1.000  C
  C154     1.0000 0.22180  0.90240  0.38258  Biso   1.000  C
  C155     1.0000 0.22180  0.59760  0.11742  Biso   1.000  C
  C156     1.0000 0.27820  0.40240  0.11742  Biso   1.000  C
  C157     1.0000 0.72180  0.90240  0.61742  Biso   1.000  C
  C158     1.0000 0.77820  0.09760  0.61742  Biso   1.000  C
  C159     1.0000 0.77820  0.40240  0.88258  Biso   1.000  C
  C160     1.0000 0.72180  0.59760  0.88258  Biso   1.000  C
  H81      1.0000 0.24142  0.12090  0.39788  Biso   1.000  H
  H82      1.0000 0.25858  0.87910  0.39788  Biso   1.000  H
  H83      1.0000 0.25858  0.62090  0.10212  Biso   1.000  H
  H84      1.0000 0.24142  0.37910  0.10212  Biso   1.000  H
  H85      1.0000 0.75858  0.87910  0.60212  Biso   1.000  H
  H86      1.0000 0.74142  0.12090  0.60212  Biso   1.000  H
  H87      1.0000 0.74142  0.37910  0.89788  Biso   1.000  H
  H88      1.0000 0.75858  0.62090  0.89788  Biso   1.000  H
  C161     1.0000 0.39171  0.72960  0.68894  Biso   1.000  C
  C162     1.0000 0.10829  0.27040  0.68894  Biso   1.000  C
  C163     1.0000 0.10829  0.22960  0.81106  Biso   1.000  C
  C164     1.0000 0.39171  0.77040  0.81106  Biso   1.000  C
  C165     1.0000 0.60829  0.27040  0.31106  Biso   1.000  C
  C166     1.0000 0.89171  0.72960  0.31106  Biso   1.000  C
  C167     1.0000 0.89171  0.77040  0.18894  Biso   1.000  C
  C168     1.0000 0.60829  0.22960  0.18894  Biso   1.000  C
  H89      1.0000 0.34203  0.72421  0.69015  Biso   1.000  H
  H90      1.0000 0.15797  0.27579  0.69015  Biso   1.000  H
  H91      1.0000 0.15797  0.22421  0.80985  Biso   1.000  H
  H92      1.0000 0.34203  0.77579  0.80985  Biso   1.000  H
  H93      1.0000 0.65797  0.27579  0.30985  Biso   1.000  H
  H94      1.0000 0.84203  0.72421  0.30985  Biso   1.000  H
  H95      1.0000 0.84203  0.77579  0.19015  Biso   1.000  H
  H96      1.0000 0.65797  0.22421  0.19015  Biso   1.000  H
  C169     1.0000 0.44812  0.12116  0.64660  Biso   1.000  C
  C170     1.0000 0.05188  0.87884  0.64660  Biso   1.000  C
  C171     1.0000 0.05188  0.62116  0.85340  Biso   1.000  C
  C172     1.0000 0.44812  0.37884  0.85340  Biso   1.000  C
  C173     1.0000 0.55188  0.87884  0.35340  Biso   1.000  C
  C174     1.0000 0.94812  0.12116  0.35340  Biso   1.000  C
  C175     1.0000 0.94812  0.37884  0.14660  Biso   1.000  C
  C176     1.0000 0.55188  0.62116  0.14660  Biso   1.000  C
  C177     1.0000 0.53780  0.74440  0.68468  Biso   1.000  C
  C178     1.0000 0.96220  0.25560  0.68468  Biso   1.000  C
  C179     1.0000 0.96220  0.24440  0.81532  Biso   1.000  C
  C180     1.0000 0.53780  0.75560  0.81532  Biso   1.000  C
  C181     1.0000 0.46220  0.25560  0.31532  Biso   1.000  C
  C182     1.0000 0.03780  0.74440  0.31532  Biso   1.000  C
  C183     1.0000 0.03780  0.75560  0.18468  Biso   1.000  C
  C184     1.0000 0.46220  0.24440  0.18468  Biso   1.000  C
  H97      1.0000 0.58742  0.75030  0.68343  Biso   1.000  H
  H98      1.0000 0.91258  0.24970  0.68343  Biso   1.000  H
  H99      1.0000 0.91258  0.25030  0.81657  Biso   1.000  H
  H100     1.0000 0.58742  0.74970  0.81657  Biso   1.000  H
  H101     1.0000 0.41258  0.24970  0.31657  Biso   1.000  H
  H102     1.0000 0.08742  0.75030  0.31657  Biso   1.000  H
  H103     1.0000 0.08742  0.74970  0.18343  Biso   1.000  H
  H104     1.0000 0.41258  0.25030  0.18343  Biso   1.000  H
  C185     1.0000 0.46549  0.24050  0.67910  Biso   1.000  C
  C186     1.0000 0.03451  0.75950  0.67910  Biso   1.000  C
  C187     1.0000 0.03451  0.74050  0.82090  Biso   1.000  C
  C188     1.0000 0.46549  0.25950  0.82090  Biso   1.000  C
  C189     1.0000 0.53451  0.75950  0.32090  Biso   1.000  C
  C190     1.0000 0.96549  0.24050  0.32090  Biso   1.000  C
  C191     1.0000 0.96549  0.25950  0.17910  Biso   1.000  C
  C192     1.0000 0.53451  0.74050  0.17910  Biso   1.000  C
  H105     1.0000 0.41572  0.24515  0.68004  Biso   1.000  H
  H106     1.0000 0.08428  0.75485  0.68004  Biso   1.000  H
  H107     1.0000 0.08428  0.74515  0.81996  Biso   1.000  H
  H108     1.0000 0.41572  0.25485  0.81996  Biso   1.000  H
  H109     1.0000 0.58428  0.75485  0.31996  Biso   1.000  H
  H110     1.0000 0.91572  0.24515  0.31996  Biso   1.000  H
  H111     1.0000 0.91572  0.25485  0.18004  Biso   1.000  H
  H112     1.0000 0.58428  0.74515  0.18004  Biso   1.000  H
  C193     1.0000 0.43480  0.67470  0.70343  Biso   1.000  C
  C194     1.0000 0.06520  0.32530  0.70343  Biso   1.000  C
  C195     1.0000 0.06520  0.17470  0.79657  Biso   1.000  C
  C196     1.0000 0.43480  0.82530  0.79657  Biso   1.000  C
  C197     1.0000 0.56520  0.32530  0.29657  Biso   1.000  C
  C198     1.0000 0.93480  0.67470  0.29657  Biso   1.000  C
  C199     1.0000 0.93480  0.82530  0.20343  Biso   1.000  C
  C200     1.0000 0.56520  0.17470  0.20343  Biso   1.000  C
  H113     1.0000 0.41428  0.63383  0.71468  Biso   1.000  H
  H114     1.0000 0.08572  0.36617  0.71468  Biso   1.000  H
  H115     1.0000 0.08572  0.13383  0.78532  Biso   1.000  H
  H116     1.0000 0.41428  0.86617  0.78532  Biso   1.000  H
  H117     1.0000 0.58572  0.36617  0.28532  Biso   1.000  H
  H118     1.0000 0.91428  0.63383  0.28532  Biso   1.000  H
  H119     1.0000 0.91428  0.86617  0.21468  Biso   1.000  H
  H120     1.0000 0.58572  0.13383  0.21468  Biso   1.000  H
  C201     1.0000 0.50796  0.29550  0.69350  Biso   1.000  C
  C202     1.0000 0.99204  0.70450  0.69350  Biso   1.000  C
  C203     1.0000 0.99204  0.79550  0.80650  Biso   1.000  C
  C204     1.0000 0.50796  0.20450  0.80650  Biso   1.000  C
  C205     1.0000 0.49204  0.70450  0.30650  Biso   1.000  C
  C206     1.0000 0.00796  0.29550  0.30650  Biso   1.000  C
  C207     1.0000 0.00796  0.20450  0.19350  Biso   1.000  C
  C208     1.0000 0.49204  0.79550  0.19350  Biso   1.000  C
  H121     1.0000 0.48622  0.33598  0.70440  Biso   1.000  H
  H122     1.0000 0.01378  0.66402  0.70440  Biso   1.000  H
  H123     1.0000 0.01378  0.83598  0.79560  Biso   1.000  H
  H124     1.0000 0.48622  0.16402  0.79560  Biso   1.000  H
  H125     1.0000 0.51378  0.66402  0.29560  Biso   1.000  H
  H126     1.0000 0.98622  0.33598  0.29560  Biso   1.000  H
  H127     1.0000 0.98622  0.16402  0.20440  Biso   1.000  H
  H128     1.0000 0.51378  0.83598  0.20440  Biso   1.000  H
  C209     1.0000 0.37000  0.01960  0.53020  Biso   1.000  C
  C210     1.0000 0.13000  0.98040  0.53020  Biso   1.000  C
  C211     1.0000 0.13000  0.51960  0.96980  Biso   1.000  C
  C212     1.0000 0.37000  0.48040  0.96980  Biso   1.000  C
  C213     1.0000 0.63000  0.98040  0.46980  Biso   1.000  C
  C214     1.0000 0.87000  0.01960  0.46980  Biso   1.000  C
  C215     1.0000 0.87000  0.48040  0.03020  Biso   1.000  C
  C216     1.0000 0.63000  0.51960  0.03020  Biso   1.000  C
  H129     1.0000 0.39782  0.98720  0.54611  Biso   1.000  H
  H130     1.0000 0.10218  0.01280  0.54611  Biso   1.000  H
  H131     1.0000 0.10218  0.48720  0.95389  Biso   1.000  H
  H132     1.0000 0.39782  0.51280  0.95389  Biso   1.000  H
  H133     1.0000 0.60218  0.01280  0.45389  Biso   1.000  H
  H134     1.0000 0.89782  0.98720  0.45389  Biso   1.000  H
  H135     1.0000 0.89782  0.51280  0.04611  Biso   1.000  H
  H136     1.0000 0.60218  0.48720  0.04611  Biso   1.000  H
  C217     1.0000 0.28960  0.10360  0.53060  Biso   1.000  C
  C218     1.0000 0.21040  0.89640  0.53060  Biso   1.000  C
  C219     1.0000 0.21040  0.60360  0.96940  Biso   1.000  C
  C220     1.0000 0.28960  0.39640  0.96940  Biso   1.000  C
  C221     1.0000 0.71040  0.89640  0.46940  Biso   1.000  C
  C222     1.0000 0.78960  0.10360  0.46940  Biso   1.000  C
  C223     1.0000 0.78960  0.39640  0.03060  Biso   1.000  C
  C224     1.0000 0.71040  0.60360  0.03060  Biso   1.000  C
  H137     1.0000 0.25760  0.13195  0.54659  Biso   1.000  H
  H138     1.0000 0.24240  0.86805  0.54659  Biso   1.000  H
  H139     1.0000 0.24240  0.63195  0.95341  Biso   1.000  H
  H140     1.0000 0.25760  0.36805  0.95341  Biso   1.000  H
  H141     1.0000 0.74240  0.86805  0.45341  Biso   1.000  H
  H142     1.0000 0.75760  0.13195  0.45341  Biso   1.000  H
  H143     1.0000 0.75760  0.36805  0.04659  Biso   1.000  H
  H144     1.0000 0.74240  0.63195  0.04659  Biso   1.000  H
  C225     1.0000 0.29110  0.10850  0.48340  Biso   1.000  C
  C226     1.0000 0.20890  0.89150  0.48340  Biso   1.000  C
  C227     1.0000 0.20890  0.60850  0.01660  Biso   1.000  C
  C228     1.0000 0.29110  0.39150  0.01660  Biso   1.000  C
  C229     1.0000 0.70890  0.89150  0.51660  Biso   1.000  C
  C230     1.0000 0.79110  0.10850  0.51660  Biso   1.000  C
  C231     1.0000 0.79110  0.39150  0.98340  Biso   1.000  C
  C232     1.0000 0.70890  0.60850  0.98340  Biso   1.000  C
  H145     1.0000 0.26309  0.14196  0.46867  Biso   1.000  H
  H146     1.0000 0.23691  0.85804  0.46867  Biso   1.000  H
  H147     1.0000 0.23691  0.64196  0.03133  Biso   1.000  H
  H148     1.0000 0.26309  0.35804  0.03133  Biso   1.000  H
  H149     1.0000 0.73691  0.85804  0.53133  Biso   1.000  H
  H150     1.0000 0.76309  0.14196  0.53133  Biso   1.000  H
  H151     1.0000 0.76309  0.35804  0.96867  Biso   1.000  H
  H152     1.0000 0.73691  0.64196  0.96867  Biso   1.000  H
  C233     1.0000 0.37340  0.02010  0.48290  Biso   1.000  C
  C234     1.0000 0.12660  0.97990  0.48290  Biso   1.000  C
  C235     1.0000 0.12660  0.52010  0.01710  Biso   1.000  C
  C236     1.0000 0.37340  0.47990  0.01710  Biso   1.000  C
  C237     1.0000 0.62660  0.97990  0.51710  Biso   1.000  C
  C238     1.0000 0.87340  0.02010  0.51710  Biso   1.000  C
  C239     1.0000 0.87340  0.47990  0.98290  Biso   1.000  C
  C240     1.0000 0.62660  0.52010  0.98290  Biso   1.000  C
  H153     1.0000 0.40388  0.98909  0.46788  Biso   1.000  H
  H154     1.0000 0.09612  0.01091  0.46788  Biso   1.000  H
  H155     1.0000 0.09612  0.48909  0.03212  Biso   1.000  H
  H156     1.0000 0.40388  0.51091  0.03212  Biso   1.000  H
  H157     1.0000 0.59612  0.01091  0.53212  Biso   1.000  H
  H158     1.0000 0.90388  0.98909  0.53212  Biso   1.000  H
  H159     1.0000 0.90388  0.51091  0.96788  Biso   1.000  H
  H160     1.0000 0.59612  0.48909  0.96788  Biso   1.000  H
