data_image0
_cell_length_a       6.2058
_cell_length_b       11.4263
_cell_length_c       17.959
_cell_angle_alpha    90
_cell_angle_beta     90
_cell_angle_gamma    90

_symmetry_space_group_name_H-M    "P 1"
_symmetry_int_tables_number       1

loop_
  _symmetry_equiv_pos_as_xyz
  'x, y, z'

loop_
  _atom_site_label
  _atom_site_occupancy
  _atom_site_fract_x
  _atom_site_fract_y
  _atom_site_fract_z
  _atom_site_thermal_displace_type
  _atom_site_B_iso_or_equiv
  _atom_site_type_symbol
  Cu1      1.0000 0.91509  0.77550  0.40903  Biso   1.000  Cu
  Cu2      1.0000 0.58491  0.22450  0.90903  Biso   1.000  Cu
  Cu3      1.0000 0.08491  0.27550  0.09097  Biso   1.000  Cu
  Cu4      1.0000 0.41509  0.72450  0.59097  Biso   1.000  Cu
  S1       1.0000 0.54755  0.08009  0.29172  Biso   1.000  S
  S2       1.0000 0.95245  0.91991  0.79172  Biso   1.000  S
  S3       1.0000 0.45245  0.58009  0.20828  Biso   1.000  S
  S4       1.0000 0.04755  0.41991  0.70828  Biso   1.000  S
  O1       1.0000 0.16730  0.74190  0.46959  Biso   1.000  O
  O2       1.0000 0.33270  0.25810  0.96959  Biso   1.000  O
  O3       1.0000 0.83270  0.24190  0.03041  Biso   1.000  O
  O4       1.0000 0.66730  0.75810  0.53041  Biso   1.000  O
  O5       1.0000 0.63040  0.78530  0.36148  Biso   1.000  O
  O6       1.0000 0.86960  0.21470  0.86148  Biso   1.000  O
  O7       1.0000 0.36960  0.28530  0.13852  Biso   1.000  O
  O8       1.0000 0.13040  0.71470  0.63852  Biso   1.000  O
  C1       1.0000 0.20590  0.63470  0.47610  Biso   1.000  C
  C2       1.0000 0.29410  0.36530  0.97610  Biso   1.000  C
  C3       1.0000 0.79410  0.13470  0.02390  Biso   1.000  C
  C4       1.0000 0.70590  0.86530  0.52390  Biso   1.000  C
  O9       1.0000 0.45560  0.99730  0.34488  Biso   1.000  O
  O10      1.0000 0.04440  0.00270  0.84488  Biso   1.000  O
  O11      1.0000 0.54440  0.49730  0.15512  Biso   1.000  O
  O12      1.0000 0.95560  0.50270  0.65512  Biso   1.000  O
  C5       1.0000 0.08670  0.54890  0.42572  Biso   1.000  C
  C6       1.0000 0.41330  0.45110  0.92572  Biso   1.000  C
  C7       1.0000 0.91330  0.04890  0.07428  Biso   1.000  C
  C8       1.0000 0.58670  0.95110  0.57428  Biso   1.000  C
  H1       1.0000 0.19020  0.49480  0.40310  Biso   1.000  H
  H2       1.0000 0.30980  0.50520  0.90310  Biso   1.000  H
  H3       1.0000 0.80980  0.99480  0.09690  Biso   1.000  H
  H4       1.0000 0.69020  0.00520  0.59690  Biso   1.000  H
  N1       1.0000 0.98030  0.61790  0.36703  Biso   1.000  N
  N2       1.0000 0.51970  0.38210  0.86703  Biso   1.000  N
  N3       1.0000 0.01970  0.11790  0.13297  Biso   1.000  N
  N4       1.0000 0.48030  0.88210  0.63297  Biso   1.000  N
  H5       1.0000 0.85790  0.58240  0.35250  Biso   1.000  H
  H6       1.0000 0.64210  0.41760  0.85250  Biso   1.000  H
  H7       1.0000 0.14210  0.08240  0.14750  Biso   1.000  H
  H8       1.0000 0.35790  0.91760  0.64750  Biso   1.000  H
  H9       1.0000 0.06760  0.62470  0.32720  Biso   1.000  H
  H10      1.0000 0.43240  0.37530  0.82720  Biso   1.000  H
  H11      1.0000 0.93240  0.12470  0.17280  Biso   1.000  H
  H12      1.0000 0.56760  0.87530  0.67280  Biso   1.000  H
  O13      1.0000 0.06050  0.88260  0.31840  Biso   1.000  O
  O14      1.0000 0.43950  0.11740  0.81840  Biso   1.000  O
  O15      1.0000 0.93950  0.38260  0.18160  Biso   1.000  O
  O16      1.0000 0.56050  0.61740  0.68160  Biso   1.000  O
  O17      1.0000 0.72570  0.03010  0.25089  Biso   1.000  O
  O18      1.0000 0.77430  0.96990  0.75089  Biso   1.000  O
  O19      1.0000 0.27430  0.53010  0.24911  Biso   1.000  O
  O20      1.0000 0.22570  0.46990  0.74911  Biso   1.000  O
  C9       1.0000 0.65540  0.19680  0.34490  Biso   1.000  C
  C10      1.0000 0.84460  0.80320  0.84490  Biso   1.000  C
  C11      1.0000 0.34460  0.69680  0.15510  Biso   1.000  C
  C12      1.0000 0.15540  0.30320  0.65510  Biso   1.000  C
  C13      1.0000 0.92440  0.48010  0.47190  Biso   1.000  C
  C14      1.0000 0.57560  0.51990  0.97190  Biso   1.000  C
  C15      1.0000 0.07560  0.98010  0.02810  Biso   1.000  C
  C16      1.0000 0.42440  0.01990  0.52810  Biso   1.000  C
  H13      1.0000 0.99530  0.44930  0.51590  Biso   1.000  H
  H14      1.0000 0.50470  0.55070  0.01590  Biso   1.000  H
  H15      1.0000 0.00470  0.94930  0.98410  Biso   1.000  H
  H16      1.0000 0.49530  0.05070  0.48410  Biso   1.000  H
  H17      1.0000 0.81020  0.53210  0.48820  Biso   1.000  H
  H18      1.0000 0.68980  0.46790  0.98820  Biso   1.000  H
  H19      1.0000 0.18980  0.03210  0.01180  Biso   1.000  H
  H20      1.0000 0.31020  0.96790  0.51180  Biso   1.000  H
  O21      1.0000 0.38040  0.12910  0.24584  Biso   1.000  O
  O22      1.0000 0.11960  0.87090  0.74584  Biso   1.000  O
  O23      1.0000 0.61960  0.62910  0.25416  Biso   1.000  O
  O24      1.0000 0.88040  0.37090  0.75416  Biso   1.000  O
  C17      1.0000 0.82730  0.37950  0.42770  Biso   1.000  C
  C18      1.0000 0.67270  0.62050  0.92770  Biso   1.000  C
  C19      1.0000 0.17270  0.87950  0.07230  Biso   1.000  C
  C20      1.0000 0.32730  0.12050  0.57230  Biso   1.000  C
  C21      1.0000 0.84390  0.18100  0.38310  Biso   1.000  C
  C22      1.0000 0.65610  0.81900  0.88310  Biso   1.000  C
  C23      1.0000 0.15610  0.68100  0.11690  Biso   1.000  C
  C24      1.0000 0.34390  0.31900  0.61690  Biso   1.000  C
  H21      1.0000 0.91360  0.10900  0.38160  Biso   1.000  H
  H22      1.0000 0.58640  0.89100  0.88160  Biso   1.000  H
  H23      1.0000 0.08640  0.60900  0.11840  Biso   1.000  H
  H24      1.0000 0.41360  0.39100  0.61840  Biso   1.000  H
  C25      1.0000 0.63740  0.39250  0.38980  Biso   1.000  C
  C26      1.0000 0.86260  0.60750  0.88980  Biso   1.000  C
  C27      1.0000 0.36260  0.89250  0.11020  Biso   1.000  C
  C28      1.0000 0.13740  0.10750  0.61020  Biso   1.000  C
  H25      1.0000 0.56500  0.46370  0.39170  Biso   1.000  H
  H26      1.0000 0.93500  0.53630  0.89170  Biso   1.000  H
  H27      1.0000 0.43500  0.96370  0.10830  Biso   1.000  H
  H28      1.0000 0.06500  0.03630  0.60830  Biso   1.000  H
  C29      1.0000 0.93100  0.27250  0.42390  Biso   1.000  C
  C30      1.0000 0.56900  0.72750  0.92390  Biso   1.000  C
  C31      1.0000 0.06900  0.77250  0.07610  Biso   1.000  C
  C32      1.0000 0.43100  0.22750  0.57610  Biso   1.000  C
  H29      1.0000 0.06060  0.26180  0.44910  Biso   1.000  H
  H30      1.0000 0.43940  0.73820  0.94910  Biso   1.000  H
  H31      1.0000 0.93940  0.76180  0.05090  Biso   1.000  H
  H32      1.0000 0.56060  0.23820  0.55090  Biso   1.000  H
  C33      1.0000 0.55190  0.30120  0.34880  Biso   1.000  C
  C34      1.0000 0.94810  0.69880  0.84880  Biso   1.000  C
  C35      1.0000 0.44810  0.80120  0.15120  Biso   1.000  C
  C36      1.0000 0.05190  0.19880  0.65120  Biso   1.000  C
  H33      1.0000 0.42240  0.31150  0.32360  Biso   1.000  H
  H34      1.0000 0.07760  0.68850  0.82360  Biso   1.000  H
  H35      1.0000 0.57760  0.81150  0.17640  Biso   1.000  H
  H36      1.0000 0.92240  0.18850  0.67640  Biso   1.000  H
  O25      1.0000 0.33250  0.59390  0.52411  Biso   1.000  O
  O26      1.0000 0.16750  0.40610  0.02411  Biso   1.000  O
  O27      1.0000 0.66750  0.09390  0.97589  Biso   1.000  O
  O28      1.0000 0.83250  0.90610  0.47589  Biso   1.000  O
