data_image0
_cell_length_a       8.2905
_cell_length_b       10.099
_cell_length_c       10.939
_cell_angle_alpha    90
_cell_angle_beta     95.132
_cell_angle_gamma    90

_symmetry_space_group_name_H-M    "P 1"
_symmetry_int_tables_number       1

loop_
  _symmetry_equiv_pos_as_xyz
  'x, y, z'

loop_
  _atom_site_label
  _atom_site_occupancy
  _atom_site_fract_x
  _atom_site_fract_y
  _atom_site_fract_z
  _atom_site_thermal_displace_type
  _atom_site_B_iso_or_equiv
  _atom_site_type_symbol
  Cu1      1.0000 0.36494  0.17514  0.13732  Biso   1.000  Cu
  Cu2      1.0000 0.36494  0.32486  0.63732  Biso   1.000  Cu
  Cu3      1.0000 0.63506  0.82486  0.86268  Biso   1.000  Cu
  Cu4      1.0000 0.63506  0.67514  0.36268  Biso   1.000  Cu
  O1       1.0000 0.30000  0.06436  0.98567  Biso   1.000  O
  O2       1.0000 0.30000  0.43564  0.48567  Biso   1.000  O
  O3       1.0000 0.70000  0.93564  0.01433  Biso   1.000  O
  O4       1.0000 0.70000  0.56436  0.51433  Biso   1.000  O
  O5       1.0000 0.28250  0.99720  0.25560  Biso   1.000  O
  O6       1.0000 0.28250  0.50280  0.75560  Biso   1.000  O
  O7       1.0000 0.71750  0.00280  0.74440  Biso   1.000  O
  O8       1.0000 0.71750  0.49720  0.24440  Biso   1.000  O
  H1       1.0000 0.21800  0.96800  0.22800  Biso   1.000  H
  H2       1.0000 0.21800  0.53200  0.72800  Biso   1.000  H
  H3       1.0000 0.78200  0.03200  0.77200  Biso   1.000  H
  H4       1.0000 0.78200  0.46800  0.27200  Biso   1.000  H
  H5       1.0000 0.26800  0.04000  0.32500  Biso   1.000  H
  H6       1.0000 0.26800  0.46000  0.82500  Biso   1.000  H
  H7       1.0000 0.73200  0.96000  0.67500  Biso   1.000  H
  H8       1.0000 0.73200  0.54000  0.17500  Biso   1.000  H
  O9       1.0000 0.16510  0.27530  0.13269  Biso   1.000  O
  O10      1.0000 0.16510  0.22470  0.63269  Biso   1.000  O
  O11      1.0000 0.83490  0.72470  0.86731  Biso   1.000  O
  O12      1.0000 0.83490  0.77530  0.36731  Biso   1.000  O
  O13      1.0000 0.99850  0.35910  0.34030  Biso   1.000  O
  O14      1.0000 0.99850  0.14090  0.84030  Biso   1.000  O
  O15      1.0000 0.00150  0.64090  0.65970  Biso   1.000  O
  O16      1.0000 0.00150  0.85910  0.15970  Biso   1.000  O
  H9       1.0000 0.04400  0.32600  0.29500  Biso   1.000  H
  H10      1.0000 0.04400  0.17400  0.79500  Biso   1.000  H
  H11      1.0000 0.95600  0.67400  0.70500  Biso   1.000  H
  H12      1.0000 0.95600  0.82600  0.20500  Biso   1.000  H
  H13      1.0000 0.05300  0.39000  0.39400  Biso   1.000  H
  H14      1.0000 0.05300  0.11000  0.89400  Biso   1.000  H
  H15      1.0000 0.94700  0.61000  0.60600  Biso   1.000  H
  H16      1.0000 0.94700  0.89000  0.10600  Biso   1.000  H
  O17      1.0000 0.26740  0.38090  0.98060  Biso   1.000  O
  O18      1.0000 0.26740  0.11910  0.48060  Biso   1.000  O
  O19      1.0000 0.73260  0.61910  0.01940  Biso   1.000  O
  O20      1.0000 0.73260  0.88090  0.51940  Biso   1.000  O
  N1       1.0000 0.42590  0.90140  0.87900  Biso   1.000  N
  N2       1.0000 0.42590  0.59860  0.37900  Biso   1.000  N
  N3       1.0000 0.57410  0.09860  0.12100  Biso   1.000  N
  N4       1.0000 0.57410  0.40140  0.62100  Biso   1.000  N
  N5       1.0000 0.51770  0.73660  0.71430  Biso   1.000  N
  N6       1.0000 0.51770  0.76340  0.21430  Biso   1.000  N
  N7       1.0000 0.48230  0.26340  0.28570  Biso   1.000  N
  N8       1.0000 0.48230  0.23660  0.78570  Biso   1.000  N
  H17      1.0000 0.48600  0.65800  0.73400  Biso   1.000  H
  H18      1.0000 0.48600  0.84200  0.23400  Biso   1.000  H
  H19      1.0000 0.51400  0.34200  0.26600  Biso   1.000  H
  H20      1.0000 0.51400  0.15800  0.76600  Biso   1.000  H
  H21      1.0000 0.56700  0.72600  0.65500  Biso   1.000  H
  H22      1.0000 0.56700  0.77400  0.15500  Biso   1.000  H
  H23      1.0000 0.43300  0.27400  0.34500  Biso   1.000  H
  H24      1.0000 0.43300  0.22600  0.84500  Biso   1.000  H
  C1       1.0000 0.41860  0.99130  0.96200  Biso   1.000  C
  C2       1.0000 0.41860  0.50870  0.46200  Biso   1.000  C
  C3       1.0000 0.58140  0.00870  0.03800  Biso   1.000  C
  C4       1.0000 0.58140  0.49130  0.53800  Biso   1.000  C
  C5       1.0000 0.29480  0.86460  0.78750  Biso   1.000  C
  C6       1.0000 0.29480  0.63540  0.28750  Biso   1.000  C
  C7       1.0000 0.70520  0.13540  0.21250  Biso   1.000  C
  C8       1.0000 0.70520  0.36460  0.71250  Biso   1.000  C
  H25      1.0000 0.22800  0.79800  0.82200  Biso   1.000  H
  H26      1.0000 0.22800  0.70200  0.32200  Biso   1.000  H
  H27      1.0000 0.77200  0.20200  0.17800  Biso   1.000  H
  H28      1.0000 0.77200  0.29800  0.67800  Biso   1.000  H
  H29      1.0000 0.23100  0.93400  0.77100  Biso   1.000  H
  H30      1.0000 0.23100  0.56600  0.27100  Biso   1.000  H
  H31      1.0000 0.76900  0.06600  0.22900  Biso   1.000  H
  H32      1.0000 0.76900  0.43400  0.72900  Biso   1.000  H
  C9       1.0000 0.37360  0.81980  0.67430  Biso   1.000  C
  C10      1.0000 0.37360  0.68020  0.17430  Biso   1.000  C
  C11      1.0000 0.62640  0.18020  0.32570  Biso   1.000  C
  C12      1.0000 0.62640  0.31980  0.82570  Biso   1.000  C
  H33      1.0000 0.30100  0.76700  0.62800  Biso   1.000  H
  H34      1.0000 0.30100  0.73300  0.12800  Biso   1.000  H
  H35      1.0000 0.69900  0.23300  0.37200  Biso   1.000  H
  H36      1.0000 0.69900  0.26700  0.87200  Biso   1.000  H
  H37      1.0000 0.39900  0.89800  0.63000  Biso   1.000  H
  H38      1.0000 0.39900  0.60200  0.13000  Biso   1.000  H
  H39      1.0000 0.60100  0.10200  0.37000  Biso   1.000  H
  H40      1.0000 0.60100  0.39800  0.87000  Biso   1.000  H
  C13      1.0000 0.15720  0.36130  0.04620  Biso   1.000  C
  C14      1.0000 0.15720  0.13870  0.54620  Biso   1.000  C
  C15      1.0000 0.84280  0.63870  0.95380  Biso   1.000  C
  C16      1.0000 0.84280  0.86130  0.45380  Biso   1.000  C
  C17      1.0000 0.99980  0.43720  0.03010  Biso   1.000  C
  C18      1.0000 0.99980  0.06280  0.53010  Biso   1.000  C
  C19      1.0000 0.00020  0.56280  0.96990  Biso   1.000  C
  C20      1.0000 0.00020  0.93720  0.46990  Biso   1.000  C
  H41      1.0000 0.92030  0.38160  0.98440  Biso   1.000  H
  H42      1.0000 0.92030  0.11840  0.48440  Biso   1.000  H
  H43      1.0000 0.07970  0.61840  0.01560  Biso   1.000  H
  H44      1.0000 0.07970  0.88160  0.51560  Biso   1.000  H
  H45      1.0000 0.96270  0.45090  0.11070  Biso   1.000  H
  H46      1.0000 0.96270  0.04910  0.61070  Biso   1.000  H
  H47      1.0000 0.03730  0.54910  0.88930  Biso   1.000  H
  H48      1.0000 0.03730  0.95090  0.38930  Biso   1.000  H
