data_image0
_cell_length_a       5.962
_cell_length_b       11.361
_cell_length_c       15.187
_cell_angle_alpha    90
_cell_angle_beta     99.35
_cell_angle_gamma    90

_symmetry_space_group_name_H-M    "P 1"
_symmetry_int_tables_number       1

loop_
  _symmetry_equiv_pos_as_xyz
  'x, y, z'

loop_
  _atom_site_label
  _atom_site_occupancy
  _atom_site_fract_x
  _atom_site_fract_y
  _atom_site_fract_z
  _atom_site_thermal_displace_type
  _atom_site_B_iso_or_equiv
  _atom_site_type_symbol
  Cu1      1.0000 0.77514  0.65697  0.07866  Biso   1.000  Cu
  Cu2      1.0000 0.77514  0.84303  0.57866  Biso   1.000  Cu
  Cu3      1.0000 0.22486  0.34303  0.92134  Biso   1.000  Cu
  Cu4      1.0000 0.22486  0.15697  0.42134  Biso   1.000  Cu
  O1       1.0000 0.96400  0.65350  0.97892  Biso   1.000  O
  O2       1.0000 0.96400  0.84650  0.47892  Biso   1.000  O
  O3       1.0000 0.03600  0.34650  0.02108  Biso   1.000  O
  O4       1.0000 0.03600  0.15350  0.52108  Biso   1.000  O
  O5       1.0000 0.66000  0.81090  0.05010  Biso   1.000  O
  O6       1.0000 0.66000  0.68910  0.55010  Biso   1.000  O
  O7       1.0000 0.34000  0.18910  0.94990  Biso   1.000  O
  O8       1.0000 0.34000  0.31090  0.44990  Biso   1.000  O
  O9       1.0000 0.94540  0.92770  0.10960  Biso   1.000  O
  O10      1.0000 0.94540  0.57230  0.60960  Biso   1.000  O
  O11      1.0000 0.05460  0.07230  0.89040  Biso   1.000  O
  O12      1.0000 0.05460  0.42770  0.39040  Biso   1.000  O
  O13      1.0000 0.10020  0.71620  0.18160  Biso   1.000  O
  O14      1.0000 0.10020  0.78380  0.68160  Biso   1.000  O
  O15      1.0000 0.89980  0.28380  0.81840  Biso   1.000  O
  O16      1.0000 0.89980  0.21620  0.31840  Biso   1.000  O
  O17      1.0000 0.07570  0.15940  0.15800  Biso   1.000  O
  O18      1.0000 0.07570  0.34060  0.65800  Biso   1.000  O
  O19      1.0000 0.92430  0.84060  0.84200  Biso   1.000  O
  O20      1.0000 0.92430  0.65940  0.34200  Biso   1.000  O
  N1       1.0000 0.17320  0.50970  0.92040  Biso   1.000  N
  N2       1.0000 0.17320  0.99030  0.42040  Biso   1.000  N
  N3       1.0000 0.82680  0.49030  0.07960  Biso   1.000  N
  N4       1.0000 0.82680  0.00970  0.57960  Biso   1.000  N
  N5       1.0000 0.42460  0.38470  0.82960  Biso   1.000  N
  N6       1.0000 0.42460  0.11530  0.32960  Biso   1.000  N
  N7       1.0000 0.57540  0.61530  0.17040  Biso   1.000  N
  N8       1.0000 0.57540  0.88470  0.67040  Biso   1.000  N
  C1       1.0000 0.03810  0.54870  0.97140  Biso   1.000  C
  C2       1.0000 0.03810  0.95130  0.47140  Biso   1.000  C
  C3       1.0000 0.96190  0.45130  0.02860  Biso   1.000  C
  C4       1.0000 0.96190  0.04870  0.52860  Biso   1.000  C
  C5       1.0000 0.27690  0.57850  0.85640  Biso   1.000  C
  C6       1.0000 0.27690  0.92150  0.35640  Biso   1.000  C
  C7       1.0000 0.72310  0.42150  0.14360  Biso   1.000  C
  C8       1.0000 0.72310  0.07850  0.64360  Biso   1.000  C
  C9       1.0000 0.47950  0.51140  0.83840  Biso   1.000  C
  C10      1.0000 0.47950  0.98860  0.33840  Biso   1.000  C
  C11      1.0000 0.52050  0.48860  0.16160  Biso   1.000  C
  C12      1.0000 0.52050  0.01140  0.66160  Biso   1.000  C
  C13      1.0000 0.58100  0.56090  0.76170  Biso   1.000  C
  C14      1.0000 0.58100  0.93910  0.26170  Biso   1.000  C
  C15      1.0000 0.41900  0.43910  0.23830  Biso   1.000  C
  C16      1.0000 0.41900  0.06090  0.73830  Biso   1.000  C
  C17      1.0000 0.75500  0.91060  0.06470  Biso   1.000  C
  C18      1.0000 0.75500  0.58940  0.56470  Biso   1.000  C
  C19      1.0000 0.24500  0.08940  0.93530  Biso   1.000  C
  C20      1.0000 0.24500  0.41060  0.43530  Biso   1.000  C
  C21      1.0000 0.61790  0.01470  0.02290  Biso   1.000  C
  C22      1.0000 0.61790  0.48530  0.52290  Biso   1.000  C
  C23      1.0000 0.38210  0.98530  0.97710  Biso   1.000  C
  C24      1.0000 0.38210  0.51470  0.47710  Biso   1.000  C
  H1       1.0000 0.07030  0.70300  0.23020  Biso   1.000  H
  H2       1.0000 0.07030  0.79700  0.73020  Biso   1.000  H
  H3       1.0000 0.92970  0.29700  0.76980  Biso   1.000  H
  H4       1.0000 0.92970  0.20300  0.26980  Biso   1.000  H
  H5       1.0000 0.08580  0.78000  0.16890  Biso   1.000  H
  H6       1.0000 0.08580  0.72000  0.66890  Biso   1.000  H
  H7       1.0000 0.91420  0.22000  0.83110  Biso   1.000  H
  H8       1.0000 0.91420  0.28000  0.33110  Biso   1.000  H
  H9       1.0000 0.05520  0.20340  0.11610  Biso   1.000  H
  H10      1.0000 0.05520  0.29660  0.61610  Biso   1.000  H
  H11      1.0000 0.94480  0.79660  0.88390  Biso   1.000  H
  H12      1.0000 0.94480  0.70340  0.38390  Biso   1.000  H
  H13      1.0000 0.06180  0.09840  0.13640  Biso   1.000  H
  H14      1.0000 0.06180  0.40160  0.63640  Biso   1.000  H
  H15      1.0000 0.93820  0.90160  0.86360  Biso   1.000  H
  H16      1.0000 0.93820  0.59840  0.36360  Biso   1.000  H
  H17      1.0000 0.54590  0.34990  0.83670  Biso   1.000  H
  H18      1.0000 0.54590  0.15010  0.33670  Biso   1.000  H
  H19      1.0000 0.45410  0.65010  0.16330  Biso   1.000  H
  H20      1.0000 0.45410  0.84990  0.66330  Biso   1.000  H
  H21      1.0000 0.33470  0.37780  0.77730  Biso   1.000  H
  H22      1.0000 0.33470  0.12220  0.27730  Biso   1.000  H
  H23      1.0000 0.66530  0.62220  0.22270  Biso   1.000  H
  H24      1.0000 0.66530  0.87780  0.72270  Biso   1.000  H
  H25      1.0000 0.15910  0.57920  0.79160  Biso   1.000  H
  H26      1.0000 0.15910  0.92080  0.29160  Biso   1.000  H
  H27      1.0000 0.84090  0.42080  0.20840  Biso   1.000  H
  H28      1.0000 0.84090  0.07920  0.70840  Biso   1.000  H
  H29      1.0000 0.33200  0.65980  0.87840  Biso   1.000  H
  H30      1.0000 0.33200  0.84020  0.37840  Biso   1.000  H
  H31      1.0000 0.66800  0.34020  0.12160  Biso   1.000  H
  H32      1.0000 0.66800  0.15980  0.62160  Biso   1.000  H
  H33      1.0000 0.60270  0.51660  0.90110  Biso   1.000  H
  H34      1.0000 0.60270  0.98340  0.40110  Biso   1.000  H
  H35      1.0000 0.39730  0.48340  0.09890  Biso   1.000  H
  H36      1.0000 0.39730  0.01660  0.59890  Biso   1.000  H
  H37      1.0000 0.45100  0.54820  0.71200  Biso   1.000  H
  H38      1.0000 0.45100  0.95180  0.21200  Biso   1.000  H
  H39      1.0000 0.54900  0.45180  0.28800  Biso   1.000  H
  H40      1.0000 0.54900  0.04820  0.78800  Biso   1.000  H
  H41      1.0000 0.73660  0.52430  0.75790  Biso   1.000  H
  H42      1.0000 0.73660  0.97570  0.25790  Biso   1.000  H
  H43      1.0000 0.26340  0.47570  0.24210  Biso   1.000  H
  H44      1.0000 0.26340  0.02430  0.74210  Biso   1.000  H
  H45      1.0000 0.61930  0.64740  0.76830  Biso   1.000  H
  H46      1.0000 0.61930  0.85260  0.26830  Biso   1.000  H
  H47      1.0000 0.38070  0.35260  0.23170  Biso   1.000  H
  H48      1.0000 0.38070  0.14740  0.73170  Biso   1.000  H
  H49      1.0000 0.68930  0.04610  0.98180  Biso   1.000  H
  H50      1.0000 0.68930  0.45390  0.48180  Biso   1.000  H
  H51      1.0000 0.31070  0.95390  0.01820  Biso   1.000  H
  H52      1.0000 0.31070  0.54610  0.51820  Biso   1.000  H
  H53      1.0000 0.60820  0.06580  0.06490  Biso   1.000  H
  H54      1.0000 0.60820  0.43420  0.56490  Biso   1.000  H
  H55      1.0000 0.39180  0.93420  0.93510  Biso   1.000  H
  H56      1.0000 0.39180  0.56580  0.43510  Biso   1.000  H
