data_image0
_cell_length_a       6.1781
_cell_length_b       12.7298
_cell_length_c       23.6346
_cell_angle_alpha    90
_cell_angle_beta     90.02
_cell_angle_gamma    90

_symmetry_space_group_name_H-M    "P 1"
_symmetry_int_tables_number       1

loop_
  _symmetry_equiv_pos_as_xyz
  'x, y, z'

loop_
  _atom_site_label
  _atom_site_occupancy
  _atom_site_fract_x
  _atom_site_fract_y
  _atom_site_fract_z
  _atom_site_thermal_displace_type
  _atom_site_B_iso_or_equiv
  _atom_site_type_symbol
  Cu1      1.0000 0.50000  0.29586  0.25000  Biso   1.000  Cu
  Cu2      1.0000 0.00000  0.79586  0.25000  Biso   1.000  Cu
  Cu3      1.0000 0.50000  0.70414  0.75000  Biso   1.000  Cu
  Cu4      1.0000 0.00000  0.20414  0.75000  Biso   1.000  Cu
  O1       1.0000 0.21180  0.45295  0.94873  Biso   1.000  O
  O2       1.0000 0.78820  0.45295  0.55127  Biso   1.000  O
  O3       1.0000 0.71180  0.95295  0.94873  Biso   1.000  O
  O4       1.0000 0.28820  0.95295  0.55127  Biso   1.000  O
  O5       1.0000 0.78820  0.54705  0.05127  Biso   1.000  O
  O6       1.0000 0.21180  0.54705  0.44873  Biso   1.000  O
  O7       1.0000 0.28820  0.04705  0.05127  Biso   1.000  O
  O8       1.0000 0.71180  0.04705  0.44873  Biso   1.000  O
  H1       1.0000 0.17500  0.46400  0.91580  Biso   1.000  H
  H2       1.0000 0.82500  0.46400  0.58420  Biso   1.000  H
  H3       1.0000 0.67500  0.96400  0.91580  Biso   1.000  H
  H4       1.0000 0.32500  0.96400  0.58420  Biso   1.000  H
  H5       1.0000 0.82500  0.53600  0.08420  Biso   1.000  H
  H6       1.0000 0.17500  0.53600  0.41580  Biso   1.000  H
  H7       1.0000 0.32500  0.03600  0.08420  Biso   1.000  H
  H8       1.0000 0.67500  0.03600  0.41580  Biso   1.000  H
  O9       1.0000 0.92360  0.34791  0.95015  Biso   1.000  O
  O10      1.0000 0.07640  0.34791  0.54985  Biso   1.000  O
  O11      1.0000 0.42360  0.84791  0.95015  Biso   1.000  O
  O12      1.0000 0.57640  0.84791  0.54985  Biso   1.000  O
  O13      1.0000 0.07640  0.65209  0.04985  Biso   1.000  O
  O14      1.0000 0.92360  0.65209  0.45015  Biso   1.000  O
  O15      1.0000 0.57640  0.15209  0.04985  Biso   1.000  O
  O16      1.0000 0.42360  0.15209  0.45015  Biso   1.000  O
  O17      1.0000 0.26890  0.27660  0.19408  Biso   1.000  O
  O18      1.0000 0.73110  0.27660  0.30592  Biso   1.000  O
  O19      1.0000 0.76890  0.77660  0.19408  Biso   1.000  O
  O20      1.0000 0.23110  0.77660  0.30592  Biso   1.000  O
  O21      1.0000 0.73110  0.72340  0.80592  Biso   1.000  O
  O22      1.0000 0.26890  0.72340  0.69408  Biso   1.000  O
  O23      1.0000 0.23110  0.22340  0.80592  Biso   1.000  O
  O24      1.0000 0.76890  0.22340  0.69408  Biso   1.000  O
  O25      1.0000 0.70610  0.11917  0.20836  Biso   1.000  O
  O26      1.0000 0.29390  0.11917  0.29164  Biso   1.000  O
  O27      1.0000 0.20610  0.61917  0.20836  Biso   1.000  O
  O28      1.0000 0.79390  0.61917  0.29164  Biso   1.000  O
  O29      1.0000 0.29390  0.88083  0.79164  Biso   1.000  O
  O30      1.0000 0.70610  0.88083  0.70836  Biso   1.000  O
  O31      1.0000 0.79390  0.38083  0.79164  Biso   1.000  O
  O32      1.0000 0.20610  0.38083  0.70836  Biso   1.000  O
  O33      1.0000 0.73100  0.29043  0.19097  Biso   1.000  O
  O34      1.0000 0.26900  0.29043  0.30903  Biso   1.000  O
  O35      1.0000 0.23100  0.79043  0.19097  Biso   1.000  O
  O36      1.0000 0.76900  0.79043  0.30903  Biso   1.000  O
  O37      1.0000 0.26900  0.70957  0.80903  Biso   1.000  O
  O38      1.0000 0.73100  0.70957  0.69097  Biso   1.000  O
  O39      1.0000 0.76900  0.20957  0.80903  Biso   1.000  O
  O40      1.0000 0.23100  0.20957  0.69097  Biso   1.000  O
  O41      1.0000 0.50000  0.47078  0.25000  Biso   1.000  O
  O42      1.0000 0.00000  0.97078  0.25000  Biso   1.000  O
  O43      1.0000 0.50000  0.52922  0.75000  Biso   1.000  O
  O44      1.0000 0.00000  0.02922  0.75000  Biso   1.000  O
  H9       1.0000 0.59500  0.50900  0.26210  Biso   1.000  H
  H10      1.0000 0.40500  0.50900  0.23790  Biso   1.000  H
  H11      1.0000 0.09500  0.00900  0.26210  Biso   1.000  H
  H12      1.0000 0.90500  0.00900  0.23790  Biso   1.000  H
  H13      1.0000 0.40500  0.49100  0.73790  Biso   1.000  H
  H14      1.0000 0.59500  0.49100  0.76210  Biso   1.000  H
  H15      1.0000 0.90500  0.99100  0.73790  Biso   1.000  H
  H16      1.0000 0.09500  0.99100  0.76210  Biso   1.000  H
  N1       1.0000 0.07560  0.25856  0.11423  Biso   1.000  N
  N2       1.0000 0.92440  0.25856  0.38577  Biso   1.000  N
  N3       1.0000 0.57560  0.75856  0.11423  Biso   1.000  N
  N4       1.0000 0.42440  0.75856  0.38577  Biso   1.000  N
  N5       1.0000 0.92440  0.74144  0.88577  Biso   1.000  N
  N6       1.0000 0.07560  0.74144  0.61423  Biso   1.000  N
  N7       1.0000 0.42440  0.24144  0.88577  Biso   1.000  N
  N8       1.0000 0.57560  0.24144  0.61423  Biso   1.000  N
  C1       1.0000 0.02530  0.28656  0.06069  Biso   1.000  C
  C2       1.0000 0.97470  0.28656  0.43931  Biso   1.000  C
  C3       1.0000 0.52530  0.78656  0.06069  Biso   1.000  C
  C4       1.0000 0.47470  0.78656  0.43931  Biso   1.000  C
  C5       1.0000 0.97470  0.71344  0.93931  Biso   1.000  C
  C6       1.0000 0.02530  0.71344  0.56069  Biso   1.000  C
  C7       1.0000 0.47470  0.21344  0.93931  Biso   1.000  C
  C8       1.0000 0.52530  0.21344  0.56069  Biso   1.000  C
  H17      1.0000 0.90880  0.25430  0.04280  Biso   1.000  H
  H18      1.0000 0.09120  0.25430  0.45720  Biso   1.000  H
  H19      1.0000 0.40880  0.75430  0.04280  Biso   1.000  H
  H20      1.0000 0.59120  0.75430  0.45720  Biso   1.000  H
  H21      1.0000 0.09120  0.74570  0.95720  Biso   1.000  H
  H22      1.0000 0.90880  0.74570  0.54280  Biso   1.000  H
  H23      1.0000 0.59120  0.24570  0.95720  Biso   1.000  H
  H24      1.0000 0.40880  0.24570  0.54280  Biso   1.000  H
  C9       1.0000 0.14100  0.36080  0.03222  Biso   1.000  C
  C10      1.0000 0.85900  0.36080  0.46778  Biso   1.000  C
  C11      1.0000 0.64100  0.86080  0.03222  Biso   1.000  C
  C12      1.0000 0.35900  0.86080  0.46778  Biso   1.000  C
  C13      1.0000 0.85900  0.63920  0.96778  Biso   1.000  C
  C14      1.0000 0.14100  0.63920  0.53222  Biso   1.000  C
  C15      1.0000 0.35900  0.13920  0.96778  Biso   1.000  C
  C16      1.0000 0.64100  0.13920  0.53222  Biso   1.000  C
  C17      1.0000 0.31670  0.40872  0.06025  Biso   1.000  C
  C18      1.0000 0.68330  0.40872  0.43975  Biso   1.000  C
  C19      1.0000 0.81670  0.90872  0.06025  Biso   1.000  C
  C20      1.0000 0.18330  0.90872  0.43975  Biso   1.000  C
  C21      1.0000 0.68330  0.59128  0.93975  Biso   1.000  C
  C22      1.0000 0.31670  0.59128  0.56025  Biso   1.000  C
  C23      1.0000 0.18330  0.09128  0.93975  Biso   1.000  C
  C24      1.0000 0.81670  0.09128  0.56025  Biso   1.000  C
  H25      1.0000 0.40030  0.45830  0.04130  Biso   1.000  H
  H26      1.0000 0.59970  0.45830  0.45870  Biso   1.000  H
  H27      1.0000 0.90030  0.95830  0.04130  Biso   1.000  H
  H28      1.0000 0.09970  0.95830  0.45870  Biso   1.000  H
  H29      1.0000 0.59970  0.54170  0.95870  Biso   1.000  H
  H30      1.0000 0.40030  0.54170  0.54130  Biso   1.000  H
  H31      1.0000 0.09970  0.04170  0.95870  Biso   1.000  H
  H32      1.0000 0.90030  0.04170  0.54130  Biso   1.000  H
  C25      1.0000 0.36470  0.38335  0.11427  Biso   1.000  C
  C26      1.0000 0.63530  0.38335  0.38573  Biso   1.000  C
  C27      1.0000 0.86470  0.88335  0.11427  Biso   1.000  C
  C28      1.0000 0.13530  0.88335  0.38573  Biso   1.000  C
  C29      1.0000 0.63530  0.61665  0.88573  Biso   1.000  C
  C30      1.0000 0.36470  0.61665  0.61427  Biso   1.000  C
  C31      1.0000 0.13530  0.11665  0.88573  Biso   1.000  C
  C32      1.0000 0.86470  0.11665  0.61427  Biso   1.000  C
  H33      1.0000 0.47930  0.41680  0.13240  Biso   1.000  H
  H34      1.0000 0.52070  0.41680  0.36760  Biso   1.000  H
  H35      1.0000 0.97930  0.91680  0.13240  Biso   1.000  H
  H36      1.0000 0.02070  0.91680  0.36760  Biso   1.000  H
  H37      1.0000 0.52070  0.58320  0.86760  Biso   1.000  H
  H38      1.0000 0.47930  0.58320  0.63240  Biso   1.000  H
  H39      1.0000 0.02070  0.08320  0.86760  Biso   1.000  H
  H40      1.0000 0.97930  0.08320  0.63240  Biso   1.000  H
  C33      1.0000 0.24190  0.30578  0.14404  Biso   1.000  C
  C34      1.0000 0.75810  0.30578  0.35596  Biso   1.000  C
  C35      1.0000 0.74190  0.80578  0.14404  Biso   1.000  C
  C36      1.0000 0.25810  0.80578  0.35596  Biso   1.000  C
  C37      1.0000 0.75810  0.69422  0.85596  Biso   1.000  C
  C38      1.0000 0.24190  0.69422  0.64404  Biso   1.000  C
  C39      1.0000 0.25810  0.19422  0.85596  Biso   1.000  C
  C40      1.0000 0.74190  0.19422  0.64404  Biso   1.000  C
  C41      1.0000 0.07880  0.38547  0.97341  Biso   1.000  C
  C42      1.0000 0.92120  0.38547  0.52659  Biso   1.000  C
  C43      1.0000 0.57880  0.88547  0.97341  Biso   1.000  C
  C44      1.0000 0.42120  0.88547  0.52659  Biso   1.000  C
  C45      1.0000 0.92120  0.61453  0.02659  Biso   1.000  C
  C46      1.0000 0.07880  0.61453  0.47341  Biso   1.000  C
  C47      1.0000 0.42120  0.11453  0.02659  Biso   1.000  C
  C48      1.0000 0.57880  0.11453  0.47341  Biso   1.000  C
  C49      1.0000 0.96400  0.16965  0.14116  Biso   1.000  C
  C50      1.0000 0.03600  0.16965  0.35884  Biso   1.000  C
  C51      1.0000 0.46400  0.66965  0.14116  Biso   1.000  C
  C52      1.0000 0.53600  0.66965  0.35884  Biso   1.000  C
  C53      1.0000 0.03600  0.83035  0.85884  Biso   1.000  C
  C54      1.0000 0.96400  0.83035  0.64116  Biso   1.000  C
  C55      1.0000 0.53600  0.33035  0.85884  Biso   1.000  C
  C56      1.0000 0.46400  0.33035  0.64116  Biso   1.000  C
  H41      1.0000 0.07200  0.12670  0.16000  Biso   1.000  H
  H42      1.0000 0.92800  0.12670  0.34000  Biso   1.000  H
  H43      1.0000 0.57200  0.62670  0.16000  Biso   1.000  H
  H44      1.0000 0.42800  0.62670  0.34000  Biso   1.000  H
  H45      1.0000 0.92800  0.87330  0.84000  Biso   1.000  H
  H46      1.0000 0.07200  0.87330  0.66000  Biso   1.000  H
  H47      1.0000 0.42800  0.37330  0.84000  Biso   1.000  H
  H48      1.0000 0.57200  0.37330  0.66000  Biso   1.000  H
  H49      1.0000 0.89990  0.12710  0.11150  Biso   1.000  H
  H50      1.0000 0.10010  0.12710  0.38850  Biso   1.000  H
  H51      1.0000 0.39990  0.62710  0.11150  Biso   1.000  H
  H52      1.0000 0.60010  0.62710  0.38850  Biso   1.000  H
  H53      1.0000 0.10010  0.87290  0.88850  Biso   1.000  H
  H54      1.0000 0.89990  0.87290  0.61150  Biso   1.000  H
  H55      1.0000 0.60010  0.37290  0.88850  Biso   1.000  H
  H56      1.0000 0.39990  0.37290  0.61150  Biso   1.000  H
  C57      1.0000 0.78870  0.19547  0.18381  Biso   1.000  C
  C58      1.0000 0.21130  0.19547  0.31619  Biso   1.000  C
  C59      1.0000 0.28870  0.69547  0.18381  Biso   1.000  C
  C60      1.0000 0.71130  0.69547  0.31619  Biso   1.000  C
  C61      1.0000 0.21130  0.80453  0.81619  Biso   1.000  C
  C62      1.0000 0.78870  0.80453  0.68381  Biso   1.000  C
  C63      1.0000 0.71130  0.30453  0.81619  Biso   1.000  C
  C64      1.0000 0.28870  0.30453  0.68381  Biso   1.000  C
  O45      1.0000 0.38780  0.99519  0.15469  Biso   1.000  O
  O46      1.0000 0.61220  0.99519  0.34531  Biso   1.000  O
  O47      1.0000 0.88780  0.49519  0.15469  Biso   1.000  O
  O48      1.0000 0.11220  0.49519  0.34531  Biso   1.000  O
  O49      1.0000 0.61220  0.00481  0.84531  Biso   1.000  O
  O50      1.0000 0.38780  0.00481  0.65469  Biso   1.000  O
  O51      1.0000 0.11220  0.50481  0.84531  Biso   1.000  O
  O52      1.0000 0.88780  0.50481  0.65469  Biso   1.000  O
  H57      1.0000 0.36300  0.94020  0.17120  Biso   1.000  H
  H58      1.0000 0.63700  0.94020  0.32880  Biso   1.000  H
  H59      1.0000 0.86300  0.44020  0.17120  Biso   1.000  H
  H60      1.0000 0.13700  0.44020  0.32880  Biso   1.000  H
  H61      1.0000 0.63700  0.05980  0.82880  Biso   1.000  H
  H62      1.0000 0.36300  0.05980  0.67120  Biso   1.000  H
  H63      1.0000 0.13700  0.55980  0.82880  Biso   1.000  H
  H64      1.0000 0.86300  0.55980  0.67120  Biso   1.000  H
  H65      1.0000 0.47800  0.02400  0.17480  Biso   1.000  H
  H66      1.0000 0.52200  0.02400  0.32520  Biso   1.000  H
  H67      1.0000 0.97800  0.52400  0.17480  Biso   1.000  H
  H68      1.0000 0.02200  0.52400  0.32520  Biso   1.000  H
  H69      1.0000 0.52200  0.97600  0.82520  Biso   1.000  H
  H70      1.0000 0.47800  0.97600  0.67480  Biso   1.000  H
  H71      1.0000 0.02200  0.47600  0.82520  Biso   1.000  H
  H72      1.0000 0.97800  0.47600  0.67480  Biso   1.000  H
