data_image0
_cell_length_a       10.553
_cell_length_b       7.1312
_cell_length_c       15.791
_cell_angle_alpha    90
_cell_angle_beta     105.07
_cell_angle_gamma    90

_symmetry_space_group_name_H-M    "P 1"
_symmetry_int_tables_number       1

loop_
  _symmetry_equiv_pos_as_xyz
  'x, y, z'

loop_
  _atom_site_label
  _atom_site_occupancy
  _atom_site_fract_x
  _atom_site_fract_y
  _atom_site_fract_z
  _atom_site_thermal_displace_type
  _atom_site_B_iso_or_equiv
  _atom_site_type_symbol
  Cu1      1.0000 0.82890  0.68693  0.59499  Biso   1.000  Cu
  Cu2      1.0000 0.67110  0.18693  0.90501  Biso   1.000  Cu
  Cu3      1.0000 0.17110  0.31307  0.40501  Biso   1.000  Cu
  Cu4      1.0000 0.32890  0.81307  0.09499  Biso   1.000  Cu
  Cu5      1.0000 0.74829  0.43431  0.74762  Biso   1.000  Cu
  Cu6      1.0000 0.75171  0.93431  0.75238  Biso   1.000  Cu
  Cu7      1.0000 0.25171  0.56569  0.25238  Biso   1.000  Cu
  Cu8      1.0000 0.24829  0.06569  0.24762  Biso   1.000  Cu
  P1       1.0000 0.55820  0.69233  0.62006  Biso   1.000  P
  P2       1.0000 0.94180  0.19233  0.87994  Biso   1.000  P
  P3       1.0000 0.44180  0.30767  0.37994  Biso   1.000  P
  P4       1.0000 0.05820  0.80767  0.12006  Biso   1.000  P
  O1       1.0000 0.58050  0.50790  0.67215  Biso   1.000  O
  O2       1.0000 0.91950  0.00790  0.82785  Biso   1.000  O
  O3       1.0000 0.41950  0.49210  0.32785  Biso   1.000  O
  O4       1.0000 0.08050  0.99210  0.17215  Biso   1.000  O
  O5       1.0000 0.57960  0.86480  0.68088  Biso   1.000  O
  O6       1.0000 0.92040  0.36480  0.81912  Biso   1.000  O
  O7       1.0000 0.42040  0.13520  0.31912  Biso   1.000  O
  O8       1.0000 0.07960  0.63520  0.18088  Biso   1.000  O
  O9       1.0000 0.64140  0.70480  0.55453  Biso   1.000  O
  O10      1.0000 0.85860  0.20480  0.94547  Biso   1.000  O
  O11      1.0000 0.35860  0.29520  0.44547  Biso   1.000  O
  O12      1.0000 0.14140  0.79520  0.05453  Biso   1.000  O
  S1       1.0000 0.18276  0.82114  0.43204  Biso   1.000  S
  S2       1.0000 0.31724  0.32114  0.06796  Biso   1.000  S
  S3       1.0000 0.81724  0.17886  0.56796  Biso   1.000  S
  S4       1.0000 0.68276  0.67886  0.93204  Biso   1.000  S
  O13      1.0000 0.15260  0.98480  0.37393  Biso   1.000  O
  O14      1.0000 0.34740  0.48480  0.12607  Biso   1.000  O
  O15      1.0000 0.84740  0.01520  0.62607  Biso   1.000  O
  O16      1.0000 0.65260  0.51520  0.87393  Biso   1.000  O
  O17      1.0000 0.18330  0.64810  0.38242  Biso   1.000  O
  O18      1.0000 0.31670  0.14810  0.11758  Biso   1.000  O
  O19      1.0000 0.81670  0.35190  0.61758  Biso   1.000  O
  O20      1.0000 0.68330  0.85190  0.88242  Biso   1.000  O
  O21      1.0000 0.09580  0.80960  0.49057  Biso   1.000  O
  O22      1.0000 0.40420  0.30960  0.00943  Biso   1.000  O
  O23      1.0000 0.90420  0.19040  0.50943  Biso   1.000  O
  O24      1.0000 0.59580  0.69040  0.99057  Biso   1.000  O
  C1       1.0000 0.38850  0.68620  0.56008  Biso   1.000  C
  C2       1.0000 0.11150  0.18620  0.93992  Biso   1.000  C
  C3       1.0000 0.61150  0.31380  0.43992  Biso   1.000  C
  C4       1.0000 0.88850  0.81380  0.06008  Biso   1.000  C
  H1       1.0000 0.37250  0.57170  0.52580  Biso   1.000  H
  H2       1.0000 0.12750  0.07170  0.97420  Biso   1.000  H
  H3       1.0000 0.62750  0.42830  0.47420  Biso   1.000  H
  H4       1.0000 0.87250  0.92830  0.02580  Biso   1.000  H
  H5       1.0000 0.33500  0.68200  0.60150  Biso   1.000  H
  H6       1.0000 0.16500  0.18200  0.89850  Biso   1.000  H
  H7       1.0000 0.66500  0.31800  0.39850  Biso   1.000  H
  H8       1.0000 0.83500  0.81800  0.10150  Biso   1.000  H
  C5       1.0000 0.34480  0.85320  0.49860  Biso   1.000  C
  C6       1.0000 0.15520  0.35320  0.00140  Biso   1.000  C
  C7       1.0000 0.65520  0.14680  0.50140  Biso   1.000  C
  C8       1.0000 0.84480  0.64680  0.99860  Biso   1.000  C
  H9       1.0000 0.40440  0.86790  0.46150  Biso   1.000  H
  H10      1.0000 0.09560  0.36790  0.03850  Biso   1.000  H
  H11      1.0000 0.59560  0.13210  0.53850  Biso   1.000  H
  H12      1.0000 0.90440  0.63210  0.96150  Biso   1.000  H
  H13      1.0000 0.34860  0.96670  0.53300  Biso   1.000  H
  H14      1.0000 0.15140  0.46670  0.96700  Biso   1.000  H
  H15      1.0000 0.65140  0.03330  0.46700  Biso   1.000  H
  H16      1.0000 0.84860  0.53330  0.03300  Biso   1.000  H
  O25      1.0000 0.82540  0.68400  0.72394  Biso   1.000  O
  O26      1.0000 0.67460  0.18400  0.77606  Biso   1.000  O
  O27      1.0000 0.17460  0.31600  0.27606  Biso   1.000  O
  O28      1.0000 0.32540  0.81600  0.22394  Biso   1.000  O
  H17      1.0000 0.90310  0.66540  0.74820  Biso   1.000  H
  H18      1.0000 0.59690  0.16540  0.75180  Biso   1.000  H
  H19      1.0000 0.09690  0.33460  0.25180  Biso   1.000  H
  H20      1.0000 0.40310  0.83460  0.24820  Biso   1.000  H
  O29      1.0000 0.83520  0.69680  0.47036  Biso   1.000  O
  O30      1.0000 0.66480  0.19680  0.02964  Biso   1.000  O
  O31      1.0000 0.16480  0.30320  0.52964  Biso   1.000  O
  O32      1.0000 0.33520  0.80320  0.97036  Biso   1.000  O
  H21      1.0000 0.89320  0.75730  0.45690  Biso   1.000  H
  H22      1.0000 0.60680  0.25730  0.04310  Biso   1.000  H
  H23      1.0000 0.10680  0.24270  0.54310  Biso   1.000  H
  H24      1.0000 0.39320  0.74270  0.95690  Biso   1.000  H
  H25      1.0000 0.05980  0.70330  0.59190  Biso   1.000  H
  H26      1.0000 0.44020  0.20330  0.90810  Biso   1.000  H
  H27      1.0000 0.94020  0.29670  0.40810  Biso   1.000  H
  H28      1.0000 0.55980  0.79670  0.09190  Biso   1.000  H
  O33      1.0000 0.02090  0.66270  0.62678  Biso   1.000  O
  O34      1.0000 0.47910  0.16270  0.87322  Biso   1.000  O
  O35      1.0000 0.97910  0.33730  0.37322  Biso   1.000  O
  O36      1.0000 0.52090  0.83730  0.12678  Biso   1.000  O
  H29      1.0000 0.76330  0.70170  0.43470  Biso   1.000  H
  H30      1.0000 0.73670  0.20170  0.06530  Biso   1.000  H
  H31      1.0000 0.23670  0.29830  0.56530  Biso   1.000  H
  H32      1.0000 0.26330  0.79830  0.93470  Biso   1.000  H
  H33      1.0000 0.04030  0.55900  0.64870  Biso   1.000  H
  H34      1.0000 0.45970  0.05900  0.85130  Biso   1.000  H
  H35      1.0000 0.95970  0.44100  0.35130  Biso   1.000  H
  H36      1.0000 0.54030  0.94100  0.14870  Biso   1.000  H
  O37      1.0000 0.38400  0.26170  0.66291  Biso   1.000  O
  O38      1.0000 0.11600  0.76170  0.83709  Biso   1.000  O
  O39      1.0000 0.61600  0.73830  0.33709  Biso   1.000  O
  O40      1.0000 0.88400  0.23830  0.16291  Biso   1.000  O
  H37      1.0000 0.43950  0.33680  0.65640  Biso   1.000  H
  H38      1.0000 0.06050  0.83680  0.84360  Biso   1.000  H
  H39      1.0000 0.56050  0.66320  0.34360  Biso   1.000  H
  H40      1.0000 0.93950  0.16320  0.15640  Biso   1.000  H
  H41      1.0000 0.37520  0.31950  0.70590  Biso   1.000  H
  H42      1.0000 0.12480  0.81950  0.79410  Biso   1.000  H
  H43      1.0000 0.62480  0.68050  0.29410  Biso   1.000  H
  H44      1.0000 0.87520  0.18050  0.20590  Biso   1.000  H
  O41      1.0000 0.11120  0.38110  0.73327  Biso   1.000  O
  O42      1.0000 0.38880  0.88110  0.76673  Biso   1.000  O
  O43      1.0000 0.88880  0.61890  0.26673  Biso   1.000  O
  O44      1.0000 0.61120  0.11890  0.23327  Biso   1.000  O
  H45      1.0000 0.16390  0.45690  0.76170  Biso   1.000  H
  H46      1.0000 0.33610  0.95690  0.73830  Biso   1.000  H
  H47      1.0000 0.83610  0.54310  0.23830  Biso   1.000  H
  H48      1.0000 0.66390  0.04310  0.26170  Biso   1.000  H
  H49      1.0000 0.05120  0.38400  0.75740  Biso   1.000  H
  H50      1.0000 0.44880  0.88400  0.74260  Biso   1.000  H
  H51      1.0000 0.94880  0.61600  0.24260  Biso   1.000  H
  H52      1.0000 0.55120  0.11600  0.25740  Biso   1.000  H
  O45      1.0000 0.14760  0.01440  0.69470  Biso   1.000  O
  O46      1.0000 0.35240  0.51440  0.80530  Biso   1.000  O
  O47      1.0000 0.85240  0.98560  0.30530  Biso   1.000  O
  O48      1.0000 0.64760  0.48560  0.19470  Biso   1.000  O
  H53      1.0000 0.08000  0.97140  0.66260  Biso   1.000  H
  H54      1.0000 0.42000  0.47140  0.83740  Biso   1.000  H
  H55      1.0000 0.92000  0.02860  0.33740  Biso   1.000  H
  H56      1.0000 0.58000  0.52860  0.16260  Biso   1.000  H
  H57      1.0000 0.12510  0.11960  0.70590  Biso   1.000  H
  H58      1.0000 0.37490  0.61960  0.79410  Biso   1.000  H
  H59      1.0000 0.87490  0.88040  0.29410  Biso   1.000  H
  H60      1.0000 0.62510  0.38040  0.20590  Biso   1.000  H
