data_image0
_cell_length_a       17.04
_cell_length_b       11.149
_cell_length_c       17.531
_cell_angle_alpha    90
_cell_angle_beta     100.684
_cell_angle_gamma    90

_symmetry_space_group_name_H-M    "P 1"
_symmetry_int_tables_number       1

loop_
  _symmetry_equiv_pos_as_xyz
  'x, y, z'

loop_
  _atom_site_label
  _atom_site_occupancy
  _atom_site_fract_x
  _atom_site_fract_y
  _atom_site_fract_z
  _atom_site_thermal_displace_type
  _atom_site_B_iso_or_equiv
  _atom_site_type_symbol
  Cu1      1.0000 0.09774  0.61759  0.30205  Biso   1.000  Cu
  Cu2      1.0000 0.59774  0.11759  0.30205  Biso   1.000  Cu
  Cu3      1.0000 0.90226  0.61759  0.19795  Biso   1.000  Cu
  Cu4      1.0000 0.40226  0.11759  0.19795  Biso   1.000  Cu
  Cu5      1.0000 0.90226  0.38241  0.69795  Biso   1.000  Cu
  Cu6      1.0000 0.40226  0.88241  0.69795  Biso   1.000  Cu
  Cu7      1.0000 0.09774  0.38241  0.80205  Biso   1.000  Cu
  Cu8      1.0000 0.59774  0.88241  0.80205  Biso   1.000  Cu
  O1       1.0000 0.04640  0.61610  0.19190  Biso   1.000  O
  O2       1.0000 0.54640  0.11610  0.19190  Biso   1.000  O
  O3       1.0000 0.95360  0.61610  0.30810  Biso   1.000  O
  O4       1.0000 0.45360  0.11610  0.30810  Biso   1.000  O
  O5       1.0000 0.95360  0.38390  0.80810  Biso   1.000  O
  O6       1.0000 0.45360  0.88390  0.80810  Biso   1.000  O
  O7       1.0000 0.04640  0.38390  0.69190  Biso   1.000  O
  O8       1.0000 0.54640  0.88390  0.69190  Biso   1.000  O
  O9       1.0000 0.16840  0.62720  0.16590  Biso   1.000  O
  O10      1.0000 0.66840  0.12720  0.16590  Biso   1.000  O
  O11      1.0000 0.83160  0.62720  0.33410  Biso   1.000  O
  O12      1.0000 0.33160  0.12720  0.33410  Biso   1.000  O
  O13      1.0000 0.83160  0.37280  0.83410  Biso   1.000  O
  O14      1.0000 0.33160  0.87280  0.83410  Biso   1.000  O
  O15      1.0000 0.16840  0.37280  0.66590  Biso   1.000  O
  O16      1.0000 0.66840  0.87280  0.66590  Biso   1.000  O
  O17      1.0000 0.13390  0.61460  0.41470  Biso   1.000  O
  O18      1.0000 0.63390  0.11460  0.41470  Biso   1.000  O
  O19      1.0000 0.86610  0.61460  0.08530  Biso   1.000  O
  O20      1.0000 0.36610  0.11460  0.08530  Biso   1.000  O
  O21      1.0000 0.86610  0.38540  0.58530  Biso   1.000  O
  O22      1.0000 0.36610  0.88540  0.58530  Biso   1.000  O
  O23      1.0000 0.13390  0.38540  0.91470  Biso   1.000  O
  O24      1.0000 0.63390  0.88540  0.91470  Biso   1.000  O
  O25      1.0000 0.25570  0.60960  0.38640  Biso   1.000  O
  O26      1.0000 0.75570  0.10960  0.38640  Biso   1.000  O
  O27      1.0000 0.74430  0.60960  0.11360  Biso   1.000  O
  O28      1.0000 0.24430  0.10960  0.11360  Biso   1.000  O
  O29      1.0000 0.74430  0.39040  0.61360  Biso   1.000  O
  O30      1.0000 0.24430  0.89040  0.61360  Biso   1.000  O
  O31      1.0000 0.25570  0.39040  0.88640  Biso   1.000  O
  O32      1.0000 0.75570  0.89040  0.88640  Biso   1.000  O
  O33      1.0000 0.28100  0.29680  0.43970  Biso   1.000  O
  O34      1.0000 0.78100  0.79680  0.43970  Biso   1.000  O
  O35      1.0000 0.71900  0.29680  0.06030  Biso   1.000  O
  O36      1.0000 0.21900  0.79680  0.06030  Biso   1.000  O
  O37      1.0000 0.71900  0.70320  0.56030  Biso   1.000  O
  O38      1.0000 0.21900  0.20320  0.56030  Biso   1.000  O
  O39      1.0000 0.28100  0.70320  0.93970  Biso   1.000  O
  O40      1.0000 0.78100  0.20320  0.93970  Biso   1.000  O
  H1       1.0000 0.26580  0.23700  0.41060  Biso   1.000  H
  H2       1.0000 0.76580  0.73700  0.41060  Biso   1.000  H
  H3       1.0000 0.73420  0.23700  0.08940  Biso   1.000  H
  H4       1.0000 0.23420  0.73700  0.08940  Biso   1.000  H
  H5       1.0000 0.73420  0.76300  0.58940  Biso   1.000  H
  H6       1.0000 0.23420  0.26300  0.58940  Biso   1.000  H
  H7       1.0000 0.26580  0.76300  0.91060  Biso   1.000  H
  H8       1.0000 0.76580  0.26300  0.91060  Biso   1.000  H
  H9       1.0000 0.30650  0.35710  0.42730  Biso   1.000  H
  H10      1.0000 0.80650  0.85710  0.42730  Biso   1.000  H
  H11      1.0000 0.69350  0.35710  0.07270  Biso   1.000  H
  H12      1.0000 0.19350  0.85710  0.07270  Biso   1.000  H
  H13      1.0000 0.69350  0.64290  0.57270  Biso   1.000  H
  H14      1.0000 0.19350  0.14290  0.57270  Biso   1.000  H
  H15      1.0000 0.30650  0.64290  0.92730  Biso   1.000  H
  H16      1.0000 0.80650  0.14290  0.92730  Biso   1.000  H
  O41      1.0000 0.07720  0.93690  0.04120  Biso   1.000  O
  O42      1.0000 0.57720  0.43690  0.04120  Biso   1.000  O
  O43      1.0000 0.92280  0.93690  0.45880  Biso   1.000  O
  O44      1.0000 0.42280  0.43690  0.45880  Biso   1.000  O
  O45      1.0000 0.92280  0.06310  0.95880  Biso   1.000  O
  O46      1.0000 0.42280  0.56310  0.95880  Biso   1.000  O
  O47      1.0000 0.07720  0.06310  0.54120  Biso   1.000  O
  O48      1.0000 0.57720  0.56310  0.54120  Biso   1.000  O
  H17      1.0000 0.04820  0.98570  0.01100  Biso   1.000  H
  H18      1.0000 0.54820  0.48570  0.01100  Biso   1.000  H
  H19      1.0000 0.95180  0.98570  0.48900  Biso   1.000  H
  H20      1.0000 0.45180  0.48570  0.48900  Biso   1.000  H
  H21      1.0000 0.95180  0.01430  0.98900  Biso   1.000  H
  H22      1.0000 0.45180  0.51430  0.98900  Biso   1.000  H
  H23      1.0000 0.04820  0.01430  0.51100  Biso   1.000  H
  H24      1.0000 0.54820  0.51430  0.51100  Biso   1.000  H
  H25      1.0000 0.09770  0.96990  0.08390  Biso   1.000  H
  H26      1.0000 0.59770  0.46990  0.08390  Biso   1.000  H
  H27      1.0000 0.90230  0.96990  0.41610  Biso   1.000  H
  H28      1.0000 0.40230  0.46990  0.41610  Biso   1.000  H
  H29      1.0000 0.90230  0.03010  0.91610  Biso   1.000  H
  H30      1.0000 0.40230  0.53010  0.91610  Biso   1.000  H
  H31      1.0000 0.09770  0.03010  0.58390  Biso   1.000  H
  H32      1.0000 0.59770  0.53010  0.58390  Biso   1.000  H
  O49      1.0000 0.91340  0.18040  0.44700  Biso   1.000  O
  O50      1.0000 0.41340  0.68040  0.44700  Biso   1.000  O
  O51      1.0000 0.08660  0.18040  0.05300  Biso   1.000  O
  O52      1.0000 0.58660  0.68040  0.05300  Biso   1.000  O
  O53      1.0000 0.08660  0.81960  0.55300  Biso   1.000  O
  O54      1.0000 0.58660  0.31960  0.55300  Biso   1.000  O
  O55      1.0000 0.91340  0.81960  0.94700  Biso   1.000  O
  O56      1.0000 0.41340  0.31960  0.94700  Biso   1.000  O
  H33      1.0000 0.87850  0.15460  0.47180  Biso   1.000  H
  H34      1.0000 0.37850  0.65460  0.47180  Biso   1.000  H
  H35      1.0000 0.12150  0.15460  0.02820  Biso   1.000  H
  H36      1.0000 0.62150  0.65460  0.02820  Biso   1.000  H
  H37      1.0000 0.12150  0.84540  0.52820  Biso   1.000  H
  H38      1.0000 0.62150  0.34540  0.52820  Biso   1.000  H
  H39      1.0000 0.87850  0.84540  0.97180  Biso   1.000  H
  H40      1.0000 0.37850  0.34540  0.97180  Biso   1.000  H
  H41      1.0000 0.91710  0.25600  0.45280  Biso   1.000  H
  H42      1.0000 0.41710  0.75600  0.45280  Biso   1.000  H
  H43      1.0000 0.08290  0.25600  0.04720  Biso   1.000  H
  H44      1.0000 0.58290  0.75600  0.04720  Biso   1.000  H
  H45      1.0000 0.08290  0.74400  0.54720  Biso   1.000  H
  H46      1.0000 0.58290  0.24400  0.54720  Biso   1.000  H
  H47      1.0000 0.91710  0.74400  0.95280  Biso   1.000  H
  H48      1.0000 0.41710  0.24400  0.95280  Biso   1.000  H
  N1       1.0000 0.10370  0.43560  0.30060  Biso   1.000  N
  N2       1.0000 0.60370  0.93560  0.30060  Biso   1.000  N
  N3       1.0000 0.89630  0.43560  0.19940  Biso   1.000  N
  N4       1.0000 0.39630  0.93560  0.19940  Biso   1.000  N
  N5       1.0000 0.89630  0.56440  0.69940  Biso   1.000  N
  N6       1.0000 0.39630  0.06440  0.69940  Biso   1.000  N
  N7       1.0000 0.10370  0.56440  0.80060  Biso   1.000  N
  N8       1.0000 0.60370  0.06440  0.80060  Biso   1.000  N
  N9       1.0000 0.10340  0.79910  0.30260  Biso   1.000  N
  N10      1.0000 0.60340  0.29910  0.30260  Biso   1.000  N
  N11      1.0000 0.89660  0.79910  0.19740  Biso   1.000  N
  N12      1.0000 0.39660  0.29910  0.19740  Biso   1.000  N
  N13      1.0000 0.89660  0.20090  0.69740  Biso   1.000  N
  N14      1.0000 0.39660  0.70090  0.69740  Biso   1.000  N
  N15      1.0000 0.10340  0.20090  0.80260  Biso   1.000  N
  N16      1.0000 0.60340  0.70090  0.80260  Biso   1.000  N
  C1       1.0000 0.09490  0.62150  0.14430  Biso   1.000  C
  C2       1.0000 0.59490  0.12150  0.14430  Biso   1.000  C
  C3       1.0000 0.90510  0.62150  0.35570  Biso   1.000  C
  C4       1.0000 0.40510  0.12150  0.35570  Biso   1.000  C
  C5       1.0000 0.90510  0.37850  0.85570  Biso   1.000  C
  C6       1.0000 0.40510  0.87850  0.85570  Biso   1.000  C
  C7       1.0000 0.09490  0.37850  0.64430  Biso   1.000  C
  C8       1.0000 0.59490  0.87850  0.64430  Biso   1.000  C
  C9       1.0000 0.06100  0.61780  0.05960  Biso   1.000  C
  C10      1.0000 0.56100  0.11780  0.05960  Biso   1.000  C
  C11      1.0000 0.93900  0.61780  0.44040  Biso   1.000  C
  C12      1.0000 0.43900  0.11780  0.44040  Biso   1.000  C
  C13      1.0000 0.93900  0.38220  0.94040  Biso   1.000  C
  C14      1.0000 0.43900  0.88220  0.94040  Biso   1.000  C
  C15      1.0000 0.06100  0.38220  0.55960  Biso   1.000  C
  C16      1.0000 0.56100  0.88220  0.55960  Biso   1.000  C
  H49      1.0000 0.08860  0.55800  0.03510  Biso   1.000  H
  H50      1.0000 0.58860  0.05800  0.03510  Biso   1.000  H
  H51      1.0000 0.91140  0.55800  0.46490  Biso   1.000  H
  H52      1.0000 0.41140  0.05800  0.46490  Biso   1.000  H
  H53      1.0000 0.91140  0.44200  0.96490  Biso   1.000  H
  H54      1.0000 0.41140  0.94200  0.96490  Biso   1.000  H
  H55      1.0000 0.08860  0.44200  0.53510  Biso   1.000  H
  H56      1.0000 0.58860  0.94200  0.53510  Biso   1.000  H
  H57      1.0000 0.06740  0.69470  0.03700  Biso   1.000  H
  H58      1.0000 0.56740  0.19470  0.03700  Biso   1.000  H
  H59      1.0000 0.93260  0.69470  0.46300  Biso   1.000  H
  H60      1.0000 0.43260  0.19470  0.46300  Biso   1.000  H
  H61      1.0000 0.93260  0.30530  0.96300  Biso   1.000  H
  H62      1.0000 0.43260  0.80530  0.96300  Biso   1.000  H
  H63      1.0000 0.06740  0.30530  0.53700  Biso   1.000  H
  H64      1.0000 0.56740  0.80530  0.53700  Biso   1.000  H
  H65      1.0000 0.00530  0.59800  0.05210  Biso   1.000  H
  H66      1.0000 0.50530  0.09800  0.05210  Biso   1.000  H
  H67      1.0000 0.99470  0.59800  0.44790  Biso   1.000  H
  H68      1.0000 0.49470  0.09800  0.44790  Biso   1.000  H
  H69      1.0000 0.99470  0.40200  0.94790  Biso   1.000  H
  H70      1.0000 0.49470  0.90200  0.94790  Biso   1.000  H
  H71      1.0000 0.00530  0.40200  0.55210  Biso   1.000  H
  H72      1.0000 0.50530  0.90200  0.55210  Biso   1.000  H
  C17      1.0000 0.21020  0.60500  0.43320  Biso   1.000  C
  C18      1.0000 0.71020  0.10500  0.43320  Biso   1.000  C
  C19      1.0000 0.78980  0.60500  0.06680  Biso   1.000  C
  C20      1.0000 0.28980  0.10500  0.06680  Biso   1.000  C
  C21      1.0000 0.78980  0.39500  0.56680  Biso   1.000  C
  C22      1.0000 0.28980  0.89500  0.56680  Biso   1.000  C
  C23      1.0000 0.21020  0.39500  0.93320  Biso   1.000  C
  C24      1.0000 0.71020  0.89500  0.93320  Biso   1.000  C
  C25      1.0000 0.24150  0.58530  0.52030  Biso   1.000  C
  C26      1.0000 0.74150  0.08530  0.52030  Biso   1.000  C
  C27      1.0000 0.75850  0.58530  0.97970  Biso   1.000  C
  C28      1.0000 0.25850  0.08530  0.97970  Biso   1.000  C
  C29      1.0000 0.75850  0.41470  0.47970  Biso   1.000  C
  C30      1.0000 0.25850  0.91470  0.47970  Biso   1.000  C
  C31      1.0000 0.24150  0.41470  0.02030  Biso   1.000  C
  C32      1.0000 0.74150  0.91470  0.02030  Biso   1.000  C
  H73      1.0000 0.29440  0.61770  0.53410  Biso   1.000  H
  H74      1.0000 0.79440  0.11770  0.53410  Biso   1.000  H
  H75      1.0000 0.70560  0.61770  0.96590  Biso   1.000  H
  H76      1.0000 0.20560  0.11770  0.96590  Biso   1.000  H
  H77      1.0000 0.70560  0.38230  0.46590  Biso   1.000  H
  H78      1.0000 0.20560  0.88230  0.46590  Biso   1.000  H
  H79      1.0000 0.29440  0.38230  0.03410  Biso   1.000  H
  H80      1.0000 0.79440  0.88230  0.03410  Biso   1.000  H
  H81      1.0000 0.24270  0.50100  0.53150  Biso   1.000  H
  H82      1.0000 0.74270  0.00100  0.53150  Biso   1.000  H
  H83      1.0000 0.75730  0.50100  0.96850  Biso   1.000  H
  H84      1.0000 0.25730  0.00100  0.96850  Biso   1.000  H
  H85      1.0000 0.75730  0.49900  0.46850  Biso   1.000  H
  H86      1.0000 0.25730  0.99900  0.46850  Biso   1.000  H
  H87      1.0000 0.24270  0.49900  0.03150  Biso   1.000  H
  H88      1.0000 0.74270  0.99900  0.03150  Biso   1.000  H
  H89      1.0000 0.20690  0.62500  0.54970  Biso   1.000  H
  H90      1.0000 0.70690  0.12500  0.54970  Biso   1.000  H
  H91      1.0000 0.79310  0.62500  0.95030  Biso   1.000  H
  H92      1.0000 0.29310  0.12500  0.95030  Biso   1.000  H
  H93      1.0000 0.79310  0.37500  0.45030  Biso   1.000  H
  H94      1.0000 0.29310  0.87500  0.45030  Biso   1.000  H
  H95      1.0000 0.20690  0.37500  0.04970  Biso   1.000  H
  H96      1.0000 0.70690  0.87500  0.04970  Biso   1.000  H
  C33      1.0000 0.06840  0.37300  0.34840  Biso   1.000  C
  C34      1.0000 0.56840  0.87300  0.34840  Biso   1.000  C
  C35      1.0000 0.93160  0.37300  0.15160  Biso   1.000  C
  C36      1.0000 0.43160  0.87300  0.15160  Biso   1.000  C
  C37      1.0000 0.93160  0.62700  0.65160  Biso   1.000  C
  C38      1.0000 0.43160  0.12700  0.65160  Biso   1.000  C
  C39      1.0000 0.06840  0.62700  0.84840  Biso   1.000  C
  C40      1.0000 0.56840  0.12700  0.84840  Biso   1.000  C
  H97      1.0000 0.04110  0.41500  0.38130  Biso   1.000  H
  H98      1.0000 0.54110  0.91500  0.38130  Biso   1.000  H
  H99      1.0000 0.95890  0.41500  0.11870  Biso   1.000  H
  H100     1.0000 0.45890  0.91500  0.11870  Biso   1.000  H
  H101     1.0000 0.95890  0.58500  0.61870  Biso   1.000  H
  H102     1.0000 0.45890  0.08500  0.61870  Biso   1.000  H
  H103     1.0000 0.04110  0.58500  0.88130  Biso   1.000  H
  H104     1.0000 0.54110  0.08500  0.88130  Biso   1.000  H
  C41      1.0000 0.06910  0.24920  0.35300  Biso   1.000  C
  C42      1.0000 0.56910  0.74920  0.35300  Biso   1.000  C
  C43      1.0000 0.93090  0.24920  0.14700  Biso   1.000  C
  C44      1.0000 0.43090  0.74920  0.14700  Biso   1.000  C
  C45      1.0000 0.93090  0.75080  0.64700  Biso   1.000  C
  C46      1.0000 0.43090  0.25080  0.64700  Biso   1.000  C
  C47      1.0000 0.06910  0.75080  0.85300  Biso   1.000  C
  C48      1.0000 0.56910  0.25080  0.85300  Biso   1.000  C
  H105     1.0000 0.04440  0.21220  0.38990  Biso   1.000  H
  H106     1.0000 0.54440  0.71220  0.38990  Biso   1.000  H
  H107     1.0000 0.95560  0.21220  0.11010  Biso   1.000  H
  H108     1.0000 0.45560  0.71220  0.11010  Biso   1.000  H
  H109     1.0000 0.95560  0.78780  0.61010  Biso   1.000  H
  H110     1.0000 0.45560  0.28780  0.61010  Biso   1.000  H
  H111     1.0000 0.04440  0.78780  0.88990  Biso   1.000  H
  H112     1.0000 0.54440  0.28780  0.88990  Biso   1.000  H
  C49      1.0000 0.10570  0.17750  0.30390  Biso   1.000  C
  C50      1.0000 0.60570  0.67750  0.30390  Biso   1.000  C
  C51      1.0000 0.89430  0.17750  0.19610  Biso   1.000  C
  C52      1.0000 0.39430  0.67750  0.19610  Biso   1.000  C
  C53      1.0000 0.89430  0.82250  0.69610  Biso   1.000  C
  C54      1.0000 0.39430  0.32250  0.69610  Biso   1.000  C
  C55      1.0000 0.10570  0.82250  0.80390  Biso   1.000  C
  C56      1.0000 0.60570  0.32250  0.80390  Biso   1.000  C
  C57      1.0000 0.14280  0.25020  0.25340  Biso   1.000  C
  C58      1.0000 0.64280  0.75020  0.25340  Biso   1.000  C
  C59      1.0000 0.85720  0.25020  0.24660  Biso   1.000  C
  C60      1.0000 0.35720  0.75020  0.24660  Biso   1.000  C
  C61      1.0000 0.85720  0.74980  0.74660  Biso   1.000  C
  C62      1.0000 0.35720  0.24980  0.74660  Biso   1.000  C
  C63      1.0000 0.14280  0.74980  0.75340  Biso   1.000  C
  C64      1.0000 0.64280  0.24980  0.75340  Biso   1.000  C
  H113     1.0000 0.17010  0.21210  0.21900  Biso   1.000  H
  H114     1.0000 0.67010  0.71210  0.21900  Biso   1.000  H
  H115     1.0000 0.82990  0.21210  0.28100  Biso   1.000  H
  H116     1.0000 0.32990  0.71210  0.28100  Biso   1.000  H
  H117     1.0000 0.82990  0.78790  0.78100  Biso   1.000  H
  H118     1.0000 0.32990  0.28790  0.78100  Biso   1.000  H
  H119     1.0000 0.17010  0.78790  0.71900  Biso   1.000  H
  H120     1.0000 0.67010  0.28790  0.71900  Biso   1.000  H
  C65      1.0000 0.14020  0.37330  0.25310  Biso   1.000  C
  C66      1.0000 0.64020  0.87330  0.25310  Biso   1.000  C
  C67      1.0000 0.85980  0.37330  0.24690  Biso   1.000  C
  C68      1.0000 0.35980  0.87330  0.24690  Biso   1.000  C
  C69      1.0000 0.85980  0.62670  0.74690  Biso   1.000  C
  C70      1.0000 0.35980  0.12670  0.74690  Biso   1.000  C
  C71      1.0000 0.14020  0.62670  0.75310  Biso   1.000  C
  C72      1.0000 0.64020  0.12670  0.75310  Biso   1.000  C
  H121     1.0000 0.16500  0.41460  0.21800  Biso   1.000  H
  H122     1.0000 0.66500  0.91460  0.21800  Biso   1.000  H
  H123     1.0000 0.83500  0.41460  0.28200  Biso   1.000  H
  H124     1.0000 0.33500  0.91460  0.28200  Biso   1.000  H
  H125     1.0000 0.83500  0.58540  0.78200  Biso   1.000  H
  H126     1.0000 0.33500  0.08540  0.78200  Biso   1.000  H
  H127     1.0000 0.16500  0.58540  0.71800  Biso   1.000  H
  H128     1.0000 0.66500  0.08540  0.71800  Biso   1.000  H
  C73      1.0000 0.10750  0.05190  0.30440  Biso   1.000  C
  C74      1.0000 0.60750  0.55190  0.30440  Biso   1.000  C
  C75      1.0000 0.89250  0.05190  0.19560  Biso   1.000  C
  C76      1.0000 0.39250  0.55190  0.19560  Biso   1.000  C
  C77      1.0000 0.89250  0.94810  0.69560  Biso   1.000  C
  C78      1.0000 0.39250  0.44810  0.69560  Biso   1.000  C
  C79      1.0000 0.10750  0.94810  0.80440  Biso   1.000  C
  C80      1.0000 0.60750  0.44810  0.80440  Biso   1.000  C
  C81      1.0000 0.05790  0.86270  0.34280  Biso   1.000  C
  C82      1.0000 0.55790  0.36270  0.34280  Biso   1.000  C
  C83      1.0000 0.94210  0.86270  0.15720  Biso   1.000  C
  C84      1.0000 0.44210  0.36270  0.15720  Biso   1.000  C
  C85      1.0000 0.94210  0.13730  0.65720  Biso   1.000  C
  C86      1.0000 0.44210  0.63730  0.65720  Biso   1.000  C
  C87      1.0000 0.05790  0.13730  0.84280  Biso   1.000  C
  C88      1.0000 0.55790  0.63730  0.84280  Biso   1.000  C
  H129     1.0000 0.02490  0.82210  0.37080  Biso   1.000  H
  H130     1.0000 0.52490  0.32210  0.37080  Biso   1.000  H
  H131     1.0000 0.97510  0.82210  0.12920  Biso   1.000  H
  H132     1.0000 0.47510  0.32210  0.12920  Biso   1.000  H
  H133     1.0000 0.97510  0.17790  0.62920  Biso   1.000  H
  H134     1.0000 0.47510  0.67790  0.62920  Biso   1.000  H
  H135     1.0000 0.02490  0.17790  0.87080  Biso   1.000  H
  H136     1.0000 0.52490  0.67790  0.87080  Biso   1.000  H
  C89      1.0000 0.05860  0.98530  0.34390  Biso   1.000  C
  C90      1.0000 0.55860  0.48530  0.34390  Biso   1.000  C
  C91      1.0000 0.94140  0.98530  0.15610  Biso   1.000  C
  C92      1.0000 0.44140  0.48530  0.15610  Biso   1.000  C
  C93      1.0000 0.94140  0.01470  0.65610  Biso   1.000  C
  C94      1.0000 0.44140  0.51470  0.65610  Biso   1.000  C
  C95      1.0000 0.05860  0.01470  0.84390  Biso   1.000  C
  C96      1.0000 0.55860  0.51470  0.84390  Biso   1.000  C
  H137     1.0000 0.02530  0.02540  0.37190  Biso   1.000  H
  H138     1.0000 0.52530  0.52540  0.37190  Biso   1.000  H
  H139     1.0000 0.97470  0.02540  0.12810  Biso   1.000  H
  H140     1.0000 0.47470  0.52540  0.12810  Biso   1.000  H
  H141     1.0000 0.97470  0.97460  0.62810  Biso   1.000  H
  H142     1.0000 0.47470  0.47460  0.62810  Biso   1.000  H
  H143     1.0000 0.02530  0.97460  0.87190  Biso   1.000  H
  H144     1.0000 0.52530  0.47460  0.87190  Biso   1.000  H
  C97      1.0000 0.15270  0.86050  0.26600  Biso   1.000  C
  C98      1.0000 0.65270  0.36050  0.26600  Biso   1.000  C
  C99      1.0000 0.84730  0.86050  0.23400  Biso   1.000  C
  C100     1.0000 0.34730  0.36050  0.23400  Biso   1.000  C
  C101     1.0000 0.84730  0.13950  0.73400  Biso   1.000  C
  C102     1.0000 0.34730  0.63950  0.73400  Biso   1.000  C
  C103     1.0000 0.15270  0.13950  0.76600  Biso   1.000  C
  C104     1.0000 0.65270  0.63950  0.76600  Biso   1.000  C
  H145     1.0000 0.18650  0.81770  0.24000  Biso   1.000  H
  H146     1.0000 0.68650  0.31770  0.24000  Biso   1.000  H
  H147     1.0000 0.81350  0.81770  0.26000  Biso   1.000  H
  H148     1.0000 0.31350  0.31770  0.26000  Biso   1.000  H
  H149     1.0000 0.81350  0.18230  0.76000  Biso   1.000  H
  H150     1.0000 0.31350  0.68230  0.76000  Biso   1.000  H
  H151     1.0000 0.18650  0.18230  0.74000  Biso   1.000  H
  H152     1.0000 0.68650  0.68230  0.74000  Biso   1.000  H
  C105     1.0000 0.15590  0.98370  0.26470  Biso   1.000  C
  C106     1.0000 0.65590  0.48370  0.26470  Biso   1.000  C
  C107     1.0000 0.84410  0.98370  0.23530  Biso   1.000  C
  C108     1.0000 0.34410  0.48370  0.23530  Biso   1.000  C
  C109     1.0000 0.84410  0.01630  0.73530  Biso   1.000  C
  C110     1.0000 0.34410  0.51630  0.73530  Biso   1.000  C
  C111     1.0000 0.15590  0.01630  0.76470  Biso   1.000  C
  C112     1.0000 0.65590  0.51630  0.76470  Biso   1.000  C
  H153     1.0000 0.19050  0.02190  0.23730  Biso   1.000  H
  H154     1.0000 0.69050  0.52190  0.23730  Biso   1.000  H
  H155     1.0000 0.80950  0.02190  0.26270  Biso   1.000  H
  H156     1.0000 0.30950  0.52190  0.26270  Biso   1.000  H
  H157     1.0000 0.80950  0.97810  0.76270  Biso   1.000  H
  H158     1.0000 0.30950  0.47810  0.76270  Biso   1.000  H
  H159     1.0000 0.19050  0.97810  0.73730  Biso   1.000  H
  H160     1.0000 0.69050  0.47810  0.73730  Biso   1.000  H
