data_image0
_cell_length_a       17.0148
_cell_length_b       11.1494
_cell_length_c       17.5724
_cell_angle_alpha    90
_cell_angle_beta     100.987
_cell_angle_gamma    90

_symmetry_space_group_name_H-M    "P 1"
_symmetry_int_tables_number       1

loop_
  _symmetry_equiv_pos_as_xyz
  'x, y, z'

loop_
  _atom_site_label
  _atom_site_occupancy
  _atom_site_fract_x
  _atom_site_fract_y
  _atom_site_fract_z
  _atom_site_thermal_displace_type
  _atom_site_B_iso_or_equiv
  _atom_site_type_symbol
  Cu1      1.0000 0.40078  0.11713  0.19957  Biso   1.000  Cu
  Cu2      1.0000 0.90078  0.61713  0.19957  Biso   1.000  Cu
  Cu3      1.0000 0.40078  0.88287  0.69957  Biso   1.000  Cu
  Cu4      1.0000 0.90078  0.38287  0.69957  Biso   1.000  Cu
  Cu5      1.0000 0.59922  0.88287  0.80043  Biso   1.000  Cu
  Cu6      1.0000 0.09922  0.38287  0.80043  Biso   1.000  Cu
  Cu7      1.0000 0.59922  0.11713  0.30043  Biso   1.000  Cu
  Cu8      1.0000 0.09922  0.61713  0.30043  Biso   1.000  Cu
  O1       1.0000 0.45440  0.11710  0.31060  Biso   1.000  O
  O2       1.0000 0.95440  0.61710  0.31060  Biso   1.000  O
  O3       1.0000 0.45440  0.88290  0.81060  Biso   1.000  O
  O4       1.0000 0.95440  0.38290  0.81060  Biso   1.000  O
  O5       1.0000 0.54560  0.88290  0.68940  Biso   1.000  O
  O6       1.0000 0.04560  0.38290  0.68940  Biso   1.000  O
  O7       1.0000 0.54560  0.11710  0.18940  Biso   1.000  O
  O8       1.0000 0.04560  0.61710  0.18940  Biso   1.000  O
  O9       1.0000 0.33160  0.12440  0.33130  Biso   1.000  O
  O10      1.0000 0.83160  0.62440  0.33130  Biso   1.000  O
  O11      1.0000 0.33160  0.87560  0.83130  Biso   1.000  O
  O12      1.0000 0.83160  0.37560  0.83130  Biso   1.000  O
  O13      1.0000 0.66840  0.87560  0.66870  Biso   1.000  O
  O14      1.0000 0.16840  0.37560  0.66870  Biso   1.000  O
  O15      1.0000 0.66840  0.12440  0.16870  Biso   1.000  O
  O16      1.0000 0.16840  0.62440  0.16870  Biso   1.000  O
  O17      1.0000 0.36520  0.11260  0.08710  Biso   1.000  O
  O18      1.0000 0.86520  0.61260  0.08710  Biso   1.000  O
  O19      1.0000 0.36520  0.88740  0.58710  Biso   1.000  O
  O20      1.0000 0.86520  0.38740  0.58710  Biso   1.000  O
  O21      1.0000 0.63480  0.88740  0.91290  Biso   1.000  O
  O22      1.0000 0.13480  0.38740  0.91290  Biso   1.000  O
  O23      1.0000 0.63480  0.11260  0.41290  Biso   1.000  O
  O24      1.0000 0.13480  0.61260  0.41290  Biso   1.000  O
  O25      1.0000 0.24290  0.10900  0.11260  Biso   1.000  O
  O26      1.0000 0.74290  0.60900  0.11260  Biso   1.000  O
  O27      1.0000 0.24290  0.89100  0.61260  Biso   1.000  O
  O28      1.0000 0.74290  0.39100  0.61260  Biso   1.000  O
  O29      1.0000 0.75710  0.89100  0.88740  Biso   1.000  O
  O30      1.0000 0.25710  0.39100  0.88740  Biso   1.000  O
  O31      1.0000 0.75710  0.10900  0.38740  Biso   1.000  O
  O32      1.0000 0.25710  0.60900  0.38740  Biso   1.000  O
  N1       1.0000 0.39590  0.93590  0.20110  Biso   1.000  N
  N2       1.0000 0.89590  0.43590  0.20110  Biso   1.000  N
  N3       1.0000 0.39590  0.06410  0.70110  Biso   1.000  N
  N4       1.0000 0.89590  0.56410  0.70110  Biso   1.000  N
  N5       1.0000 0.60410  0.06410  0.79890  Biso   1.000  N
  N6       1.0000 0.10410  0.56410  0.79890  Biso   1.000  N
  N7       1.0000 0.60410  0.93590  0.29890  Biso   1.000  N
  N8       1.0000 0.10410  0.43590  0.29890  Biso   1.000  N
  N9       1.0000 0.39520  0.29900  0.19880  Biso   1.000  N
  N10      1.0000 0.89520  0.79900  0.19880  Biso   1.000  N
  N11      1.0000 0.39520  0.70100  0.69880  Biso   1.000  N
  N12      1.0000 0.89520  0.20100  0.69880  Biso   1.000  N
  N13      1.0000 0.60480  0.70100  0.80120  Biso   1.000  N
  N14      1.0000 0.10480  0.20100  0.80120  Biso   1.000  N
  N15      1.0000 0.60480  0.29900  0.30120  Biso   1.000  N
  N16      1.0000 0.10480  0.79900  0.30120  Biso   1.000  N
  C1       1.0000 0.43330  0.87300  0.15320  Biso   1.000  C
  C2       1.0000 0.93330  0.37300  0.15320  Biso   1.000  C
  C3       1.0000 0.43330  0.12700  0.65320  Biso   1.000  C
  C4       1.0000 0.93330  0.62700  0.65320  Biso   1.000  C
  C5       1.0000 0.56670  0.12700  0.84680  Biso   1.000  C
  C6       1.0000 0.06670  0.62700  0.84680  Biso   1.000  C
  C7       1.0000 0.56670  0.87300  0.34680  Biso   1.000  C
  C8       1.0000 0.06670  0.37300  0.34680  Biso   1.000  C
  H1       1.0000 0.46130  0.91420  0.12080  Biso   1.000  H
  H2       1.0000 0.96130  0.41420  0.12080  Biso   1.000  H
  H3       1.0000 0.46130  0.08580  0.62080  Biso   1.000  H
  H4       1.0000 0.96130  0.58580  0.62080  Biso   1.000  H
  H5       1.0000 0.53870  0.08580  0.87920  Biso   1.000  H
  H6       1.0000 0.03870  0.58580  0.87920  Biso   1.000  H
  H7       1.0000 0.53870  0.91420  0.37920  Biso   1.000  H
  H8       1.0000 0.03870  0.41420  0.37920  Biso   1.000  H
  C9       1.0000 0.43150  0.75030  0.14940  Biso   1.000  C
  C10      1.0000 0.93150  0.25030  0.14940  Biso   1.000  C
  C11      1.0000 0.43150  0.24970  0.64940  Biso   1.000  C
  C12      1.0000 0.93150  0.74970  0.64940  Biso   1.000  C
  C13      1.0000 0.56850  0.24970  0.85060  Biso   1.000  C
  C14      1.0000 0.06850  0.74970  0.85060  Biso   1.000  C
  C15      1.0000 0.56850  0.75030  0.35060  Biso   1.000  C
  C16      1.0000 0.06850  0.25030  0.35060  Biso   1.000  C
  H9       1.0000 0.45660  0.71210  0.11350  Biso   1.000  H
  H10      1.0000 0.95660  0.21210  0.11350  Biso   1.000  H
  H11      1.0000 0.45660  0.28790  0.61350  Biso   1.000  H
  H12      1.0000 0.95660  0.78790  0.61350  Biso   1.000  H
  H13      1.0000 0.54340  0.28790  0.88650  Biso   1.000  H
  H14      1.0000 0.04340  0.78790  0.88650  Biso   1.000  H
  H15      1.0000 0.54340  0.71210  0.38650  Biso   1.000  H
  H16      1.0000 0.04340  0.21210  0.38650  Biso   1.000  H
  C17      1.0000 0.39360  0.68020  0.19770  Biso   1.000  C
  C18      1.0000 0.89360  0.18020  0.19770  Biso   1.000  C
  C19      1.0000 0.39360  0.31980  0.69770  Biso   1.000  C
  C20      1.0000 0.89360  0.81980  0.69770  Biso   1.000  C
  C21      1.0000 0.60640  0.31980  0.80230  Biso   1.000  C
  C22      1.0000 0.10640  0.81980  0.80230  Biso   1.000  C
  C23      1.0000 0.60640  0.68020  0.30230  Biso   1.000  C
  C24      1.0000 0.10640  0.18020  0.30230  Biso   1.000  C
  C25      1.0000 0.35420  0.74850  0.24780  Biso   1.000  C
  C26      1.0000 0.85420  0.24850  0.24780  Biso   1.000  C
  C27      1.0000 0.35420  0.25150  0.74780  Biso   1.000  C
  C28      1.0000 0.85420  0.75150  0.74780  Biso   1.000  C
  C29      1.0000 0.64580  0.25150  0.75220  Biso   1.000  C
  C30      1.0000 0.14580  0.75150  0.75220  Biso   1.000  C
  C31      1.0000 0.64580  0.74850  0.25220  Biso   1.000  C
  C32      1.0000 0.14580  0.24850  0.25220  Biso   1.000  C
  H17      1.0000 0.32610  0.70990  0.28120  Biso   1.000  H
  H18      1.0000 0.82610  0.20990  0.28120  Biso   1.000  H
  H19      1.0000 0.32610  0.29010  0.78120  Biso   1.000  H
  H20      1.0000 0.82610  0.79010  0.78120  Biso   1.000  H
  H21      1.0000 0.67390  0.29010  0.71880  Biso   1.000  H
  H22      1.0000 0.17390  0.79010  0.71880  Biso   1.000  H
  H23      1.0000 0.67390  0.70990  0.21880  Biso   1.000  H
  H24      1.0000 0.17390  0.20990  0.21880  Biso   1.000  H
  C33      1.0000 0.35860  0.87230  0.24680  Biso   1.000  C
  C34      1.0000 0.85860  0.37230  0.24680  Biso   1.000  C
  C35      1.0000 0.35860  0.12770  0.74680  Biso   1.000  C
  C36      1.0000 0.85860  0.62770  0.74680  Biso   1.000  C
  C37      1.0000 0.64140  0.12770  0.75320  Biso   1.000  C
  C38      1.0000 0.14140  0.62770  0.75320  Biso   1.000  C
  C39      1.0000 0.64140  0.87230  0.25320  Biso   1.000  C
  C40      1.0000 0.14140  0.37230  0.25320  Biso   1.000  C
  H25      1.0000 0.33270  0.91420  0.28060  Biso   1.000  H
  H26      1.0000 0.83270  0.41420  0.28060  Biso   1.000  H
  H27      1.0000 0.33270  0.08580  0.78060  Biso   1.000  H
  H28      1.0000 0.83270  0.58580  0.78060  Biso   1.000  H
  H29      1.0000 0.66730  0.08580  0.71940  Biso   1.000  H
  H30      1.0000 0.16730  0.58580  0.71940  Biso   1.000  H
  H31      1.0000 0.66730  0.91420  0.21940  Biso   1.000  H
  H32      1.0000 0.16730  0.41420  0.21940  Biso   1.000  H
  C41      1.0000 0.43910  0.36220  0.15780  Biso   1.000  C
  C42      1.0000 0.93910  0.86220  0.15780  Biso   1.000  C
  C43      1.0000 0.43910  0.63780  0.65780  Biso   1.000  C
  C44      1.0000 0.93910  0.13780  0.65780  Biso   1.000  C
  C45      1.0000 0.56090  0.63780  0.84220  Biso   1.000  C
  C46      1.0000 0.06090  0.13780  0.84220  Biso   1.000  C
  C47      1.0000 0.56090  0.36220  0.34220  Biso   1.000  C
  C48      1.0000 0.06090  0.86220  0.34220  Biso   1.000  C
  H33      1.0000 0.47090  0.32080  0.12910  Biso   1.000  H
  H34      1.0000 0.97090  0.82080  0.12910  Biso   1.000  H
  H35      1.0000 0.47090  0.67920  0.62910  Biso   1.000  H
  H36      1.0000 0.97090  0.17920  0.62910  Biso   1.000  H
  H37      1.0000 0.52910  0.67920  0.87090  Biso   1.000  H
  H38      1.0000 0.02910  0.17920  0.87090  Biso   1.000  H
  H39      1.0000 0.52910  0.32080  0.37090  Biso   1.000  H
  H40      1.0000 0.02910  0.82080  0.37090  Biso   1.000  H
  C49      1.0000 0.43980  0.48560  0.15610  Biso   1.000  C
  C50      1.0000 0.93980  0.98560  0.15610  Biso   1.000  C
  C51      1.0000 0.43980  0.51440  0.65610  Biso   1.000  C
  C52      1.0000 0.93980  0.01440  0.65610  Biso   1.000  C
  C53      1.0000 0.56020  0.51440  0.84390  Biso   1.000  C
  C54      1.0000 0.06020  0.01440  0.84390  Biso   1.000  C
  C55      1.0000 0.56020  0.48560  0.34390  Biso   1.000  C
  C56      1.0000 0.06020  0.98560  0.34390  Biso   1.000  C
  H41      1.0000 0.47220  0.52530  0.12720  Biso   1.000  H
  H42      1.0000 0.97220  0.02530  0.12720  Biso   1.000  H
  H43      1.0000 0.47220  0.47470  0.62720  Biso   1.000  H
  H44      1.0000 0.97220  0.97470  0.62720  Biso   1.000  H
  H45      1.0000 0.52780  0.47470  0.87280  Biso   1.000  H
  H46      1.0000 0.02780  0.97470  0.87280  Biso   1.000  H
  H47      1.0000 0.52780  0.52530  0.37280  Biso   1.000  H
  H48      1.0000 0.02780  0.02530  0.37280  Biso   1.000  H
  C57      1.0000 0.39150  0.55180  0.19770  Biso   1.000  C
  C58      1.0000 0.89150  0.05180  0.19770  Biso   1.000  C
  C59      1.0000 0.39150  0.44820  0.69770  Biso   1.000  C
  C60      1.0000 0.89150  0.94820  0.69770  Biso   1.000  C
  C61      1.0000 0.60850  0.44820  0.80230  Biso   1.000  C
  C62      1.0000 0.10850  0.94820  0.80230  Biso   1.000  C
  C63      1.0000 0.60850  0.55180  0.30230  Biso   1.000  C
  C64      1.0000 0.10850  0.05180  0.30230  Biso   1.000  C
  C65      1.0000 0.34530  0.48310  0.23850  Biso   1.000  C
  C66      1.0000 0.84530  0.98310  0.23850  Biso   1.000  C
  C67      1.0000 0.34530  0.51690  0.73850  Biso   1.000  C
  C68      1.0000 0.84530  0.01690  0.73850  Biso   1.000  C
  C69      1.0000 0.65470  0.51690  0.76150  Biso   1.000  C
  C70      1.0000 0.15470  0.01690  0.76150  Biso   1.000  C
  C71      1.0000 0.65470  0.48310  0.26150  Biso   1.000  C
  C72      1.0000 0.15470  0.98310  0.26150  Biso   1.000  C
  H49      1.0000 0.31170  0.52170  0.26660  Biso   1.000  H
  H50      1.0000 0.81170  0.02170  0.26660  Biso   1.000  H
  H51      1.0000 0.31170  0.47830  0.76660  Biso   1.000  H
  H52      1.0000 0.81170  0.97830  0.76660  Biso   1.000  H
  H53      1.0000 0.68830  0.47830  0.73340  Biso   1.000  H
  H54      1.0000 0.18830  0.97830  0.73340  Biso   1.000  H
  H55      1.0000 0.68830  0.52170  0.23340  Biso   1.000  H
  H56      1.0000 0.18830  0.02170  0.23340  Biso   1.000  H
  C73      1.0000 0.34800  0.36060  0.23820  Biso   1.000  C
  C74      1.0000 0.84800  0.86060  0.23820  Biso   1.000  C
  C75      1.0000 0.34800  0.63940  0.73820  Biso   1.000  C
  C76      1.0000 0.84800  0.13940  0.73820  Biso   1.000  C
  C77      1.0000 0.65200  0.63940  0.76180  Biso   1.000  C
  C78      1.0000 0.15200  0.13940  0.76180  Biso   1.000  C
  C79      1.0000 0.65200  0.36060  0.26180  Biso   1.000  C
  C80      1.0000 0.15200  0.86060  0.26180  Biso   1.000  C
  H57      1.0000 0.31620  0.31820  0.26650  Biso   1.000  H
  H58      1.0000 0.81620  0.81820  0.26650  Biso   1.000  H
  H59      1.0000 0.31620  0.68180  0.76650  Biso   1.000  H
  H60      1.0000 0.81620  0.18180  0.76650  Biso   1.000  H
  H61      1.0000 0.68380  0.68180  0.73350  Biso   1.000  H
  H62      1.0000 0.18380  0.18180  0.73350  Biso   1.000  H
  H63      1.0000 0.68380  0.31820  0.23350  Biso   1.000  H
  H64      1.0000 0.18380  0.81820  0.23350  Biso   1.000  H
  C81      1.0000 0.40440  0.12190  0.35640  Biso   1.000  C
  C82      1.0000 0.90440  0.62190  0.35640  Biso   1.000  C
  C83      1.0000 0.40440  0.87810  0.85640  Biso   1.000  C
  C84      1.0000 0.90440  0.37810  0.85640  Biso   1.000  C
  C85      1.0000 0.59560  0.87810  0.64360  Biso   1.000  C
  C86      1.0000 0.09560  0.37810  0.64360  Biso   1.000  C
  C87      1.0000 0.59560  0.12190  0.14360  Biso   1.000  C
  C88      1.0000 0.09560  0.62190  0.14360  Biso   1.000  C
  C89      1.0000 0.44100  0.12560  0.44340  Biso   1.000  C
  C90      1.0000 0.94100  0.62560  0.44340  Biso   1.000  C
  C91      1.0000 0.44100  0.87440  0.94340  Biso   1.000  C
  C92      1.0000 0.94100  0.37440  0.94340  Biso   1.000  C
  C93      1.0000 0.55900  0.87440  0.55660  Biso   1.000  C
  C94      1.0000 0.05900  0.37440  0.55660  Biso   1.000  C
  C95      1.0000 0.55900  0.12560  0.05660  Biso   1.000  C
  C96      1.0000 0.05900  0.62560  0.05660  Biso   1.000  C
  H65      1.0000 0.49830  0.12290  0.45060  Biso   1.000  H
  H66      1.0000 0.99830  0.62290  0.45060  Biso   1.000  H
  H67      1.0000 0.49830  0.87710  0.95060  Biso   1.000  H
  H68      1.0000 0.99830  0.37710  0.95060  Biso   1.000  H
  H69      1.0000 0.50170  0.87710  0.54940  Biso   1.000  H
  H70      1.0000 0.00170  0.37710  0.54940  Biso   1.000  H
  H71      1.0000 0.50170  0.12290  0.04940  Biso   1.000  H
  H72      1.0000 0.00170  0.62290  0.04940  Biso   1.000  H
  H73      1.0000 0.42500  0.19840  0.46540  Biso   1.000  H
  H74      1.0000 0.92500  0.69840  0.46540  Biso   1.000  H
  H75      1.0000 0.42500  0.80160  0.96540  Biso   1.000  H
  H76      1.0000 0.92500  0.30160  0.96540  Biso   1.000  H
  H77      1.0000 0.57500  0.80160  0.53460  Biso   1.000  H
  H78      1.0000 0.07500  0.30160  0.53460  Biso   1.000  H
  H79      1.0000 0.57500  0.19840  0.03460  Biso   1.000  H
  H80      1.0000 0.07500  0.69840  0.03460  Biso   1.000  H
  H81      1.0000 0.42220  0.05800  0.46860  Biso   1.000  H
  H82      1.0000 0.92220  0.55800  0.46860  Biso   1.000  H
  H83      1.0000 0.42220  0.94200  0.96860  Biso   1.000  H
  H84      1.0000 0.92220  0.44200  0.96860  Biso   1.000  H
  H85      1.0000 0.57780  0.94200  0.53140  Biso   1.000  H
  H86      1.0000 0.07780  0.44200  0.53140  Biso   1.000  H
  H87      1.0000 0.57780  0.05800  0.03140  Biso   1.000  H
  H88      1.0000 0.07780  0.55800  0.03140  Biso   1.000  H
  C97      1.0000 0.28930  0.10340  0.06620  Biso   1.000  C
  C98      1.0000 0.78930  0.60340  0.06620  Biso   1.000  C
  C99      1.0000 0.28930  0.89660  0.56620  Biso   1.000  C
  C100     1.0000 0.78930  0.39660  0.56620  Biso   1.000  C
  C101     1.0000 0.71070  0.89660  0.93380  Biso   1.000  C
  C102     1.0000 0.21070  0.39660  0.93380  Biso   1.000  C
  C103     1.0000 0.71070  0.10340  0.43380  Biso   1.000  C
  C104     1.0000 0.21070  0.60340  0.43380  Biso   1.000  C
  C105     1.0000 0.25850  0.08400  0.98220  Biso   1.000  C
  C106     1.0000 0.75850  0.58400  0.98220  Biso   1.000  C
  C107     1.0000 0.25850  0.91600  0.48220  Biso   1.000  C
  C108     1.0000 0.75850  0.41600  0.48220  Biso   1.000  C
  C109     1.0000 0.74150  0.91600  0.01780  Biso   1.000  C
  C110     1.0000 0.24150  0.41600  0.01780  Biso   1.000  C
  C111     1.0000 0.74150  0.08400  0.51780  Biso   1.000  C
  C112     1.0000 0.24150  0.58400  0.51780  Biso   1.000  C
  H89      1.0000 0.30250  0.08250  0.95520  Biso   1.000  H
  H90      1.0000 0.80250  0.58250  0.95520  Biso   1.000  H
  H91      1.0000 0.30250  0.91750  0.45520  Biso   1.000  H
  H92      1.0000 0.80250  0.41750  0.45520  Biso   1.000  H
  H93      1.0000 0.69750  0.91750  0.04480  Biso   1.000  H
  H94      1.0000 0.19750  0.41750  0.04480  Biso   1.000  H
  H95      1.0000 0.69750  0.08250  0.54480  Biso   1.000  H
  H96      1.0000 0.19750  0.58250  0.54480  Biso   1.000  H
  H97      1.0000 0.23050  0.00880  0.97490  Biso   1.000  H
  H98      1.0000 0.73050  0.50880  0.97490  Biso   1.000  H
  H99      1.0000 0.23050  0.99120  0.47490  Biso   1.000  H
  H100     1.0000 0.73050  0.49120  0.47490  Biso   1.000  H
  H101     1.0000 0.76950  0.99120  0.02510  Biso   1.000  H
  H102     1.0000 0.26950  0.49120  0.02510  Biso   1.000  H
  H103     1.0000 0.76950  0.00880  0.52510  Biso   1.000  H
  H104     1.0000 0.26950  0.50880  0.52510  Biso   1.000  H
  H105     1.0000 0.22260  0.14780  0.96220  Biso   1.000  H
  H106     1.0000 0.72260  0.64780  0.96220  Biso   1.000  H
  H107     1.0000 0.22260  0.85220  0.46220  Biso   1.000  H
  H108     1.0000 0.72260  0.35220  0.46220  Biso   1.000  H
  H109     1.0000 0.77740  0.85220  0.03780  Biso   1.000  H
  H110     1.0000 0.27740  0.35220  0.03780  Biso   1.000  H
  H111     1.0000 0.77740  0.14780  0.53780  Biso   1.000  H
  H112     1.0000 0.27740  0.64780  0.53780  Biso   1.000  H
  O33      1.0000 0.08300  0.15440  0.05650  Biso   1.000  O
  O34      1.0000 0.58300  0.65440  0.05650  Biso   1.000  O
  O35      1.0000 0.08300  0.84560  0.55650  Biso   1.000  O
  O36      1.0000 0.58300  0.34560  0.55650  Biso   1.000  O
  O37      1.0000 0.91700  0.84560  0.94350  Biso   1.000  O
  O38      1.0000 0.41700  0.34560  0.94350  Biso   1.000  O
  O39      1.0000 0.91700  0.15440  0.44350  Biso   1.000  O
  O40      1.0000 0.41700  0.65440  0.44350  Biso   1.000  O
  O41      1.0000 0.28430  0.29760  0.43960  Biso   1.000  O
  O42      1.0000 0.78430  0.79760  0.43960  Biso   1.000  O
  O43      1.0000 0.28430  0.70240  0.93960  Biso   1.000  O
  O44      1.0000 0.78430  0.20240  0.93960  Biso   1.000  O
  O45      1.0000 0.71570  0.70240  0.56040  Biso   1.000  O
  O46      1.0000 0.21570  0.20240  0.56040  Biso   1.000  O
  O47      1.0000 0.71570  0.29760  0.06040  Biso   1.000  O
  O48      1.0000 0.21570  0.79760  0.06040  Biso   1.000  O
  O49      1.0000 0.07250  0.07290  0.53890  Biso   1.000  O
  O50      1.0000 0.57250  0.57290  0.53890  Biso   1.000  O
  O51      1.0000 0.07250  0.92710  0.03890  Biso   1.000  O
  O52      1.0000 0.57250  0.42710  0.03890  Biso   1.000  O
  O53      1.0000 0.92750  0.92710  0.46110  Biso   1.000  O
  O54      1.0000 0.42750  0.42710  0.46110  Biso   1.000  O
  O55      1.0000 0.92750  0.07290  0.96110  Biso   1.000  O
  O56      1.0000 0.42750  0.57290  0.96110  Biso   1.000  O
