data_image0
_cell_length_a       10.098
_cell_length_b       19.953
_cell_length_c       7.357
_cell_angle_alpha    90
_cell_angle_beta     98.32
_cell_angle_gamma    90

_symmetry_space_group_name_H-M    "P 1"
_symmetry_int_tables_number       1

loop_
  _symmetry_equiv_pos_as_xyz
  'x, y, z'

loop_
  _atom_site_label
  _atom_site_occupancy
  _atom_site_fract_x
  _atom_site_fract_y
  _atom_site_fract_z
  _atom_site_thermal_displace_type
  _atom_site_B_iso_or_equiv
  _atom_site_type_symbol
  Cu1      1.0000 0.13925  0.14895  0.36123  Biso   1.000  Cu
  Cu2      1.0000 0.13925  0.35105  0.86123  Biso   1.000  Cu
  Cu3      1.0000 0.86075  0.85105  0.63877  Biso   1.000  Cu
  Cu4      1.0000 0.86075  0.64895  0.13877  Biso   1.000  Cu
  N1       1.0000 0.10400  0.04989  0.32390  Biso   1.000  N
  N2       1.0000 0.10400  0.45011  0.82390  Biso   1.000  N
  N3       1.0000 0.89600  0.95011  0.67610  Biso   1.000  N
  N4       1.0000 0.89600  0.54989  0.17610  Biso   1.000  N
  N5       1.0000 0.94600  0.15238  0.26330  Biso   1.000  N
  N6       1.0000 0.94600  0.34762  0.76330  Biso   1.000  N
  N7       1.0000 0.05400  0.84762  0.73670  Biso   1.000  N
  N8       1.0000 0.05400  0.65238  0.23670  Biso   1.000  N
  O1       1.0000 0.53310  0.15190  0.55750  Biso   1.000  O
  O2       1.0000 0.53310  0.34810  0.05750  Biso   1.000  O
  O3       1.0000 0.46690  0.84810  0.44250  Biso   1.000  O
  O4       1.0000 0.46690  0.65190  0.94250  Biso   1.000  O
  O5       1.0000 0.12970  0.23475  0.48430  Biso   1.000  O
  O6       1.0000 0.12970  0.26525  0.98430  Biso   1.000  O
  O7       1.0000 0.87030  0.76525  0.51570  Biso   1.000  O
  O8       1.0000 0.87030  0.73475  0.01570  Biso   1.000  O
  O9       1.0000 0.31880  0.13242  0.47400  Biso   1.000  O
  O10      1.0000 0.31880  0.36758  0.97400  Biso   1.000  O
  O11      1.0000 0.68120  0.86758  0.52600  Biso   1.000  O
  O12      1.0000 0.68120  0.63242  0.02600  Biso   1.000  O
  O13      1.0000 0.19600  0.33623  0.57780  Biso   1.000  O
  O14      1.0000 0.19600  0.16377  0.07780  Biso   1.000  O
  O15      1.0000 0.80400  0.66377  0.42220  Biso   1.000  O
  O16      1.0000 0.80400  0.83623  0.92220  Biso   1.000  O
  O17      1.0000 0.37560  0.43868  0.54150  Biso   1.000  O
  O18      1.0000 0.37560  0.06132  0.04150  Biso   1.000  O
  O19      1.0000 0.62440  0.56132  0.45850  Biso   1.000  O
  O20      1.0000 0.62440  0.93868  0.95850  Biso   1.000  O
  H1       1.0000 0.40670  0.46340  0.63670  Biso   1.000  H
  H2       1.0000 0.40670  0.03660  0.13670  Biso   1.000  H
  H3       1.0000 0.59330  0.53660  0.36330  Biso   1.000  H
  H4       1.0000 0.59330  0.96340  0.86330  Biso   1.000  H
  H5       1.0000 0.32580  0.40470  0.59480  Biso   1.000  H
  H6       1.0000 0.32580  0.09530  0.09480  Biso   1.000  H
  H7       1.0000 0.67420  0.59530  0.40520  Biso   1.000  H
  H8       1.0000 0.67420  0.90470  0.90520  Biso   1.000  H
  O21      1.0000 0.51820  0.52634  0.77180  Biso   1.000  O
  O22      1.0000 0.51820  0.97366  0.27180  Biso   1.000  O
  O23      1.0000 0.48180  0.47366  0.22820  Biso   1.000  O
  O24      1.0000 0.48180  0.02634  0.72820  Biso   1.000  O
  H9       1.0000 0.57840  0.54140  0.70920  Biso   1.000  H
  H10      1.0000 0.57840  0.95860  0.20920  Biso   1.000  H
  H11      1.0000 0.42160  0.45860  0.29080  Biso   1.000  H
  H12      1.0000 0.42160  0.04140  0.79080  Biso   1.000  H
  H13      1.0000 0.50160  0.56070  0.84430  Biso   1.000  H
  H14      1.0000 0.50160  0.93930  0.34430  Biso   1.000  H
  H15      1.0000 0.49840  0.43930  0.15570  Biso   1.000  H
  H16      1.0000 0.49840  0.06070  0.65570  Biso   1.000  H
  C1       1.0000 0.19390  0.00017  0.36760  Biso   1.000  C
  C2       1.0000 0.19390  0.49983  0.86760  Biso   1.000  C
  C3       1.0000 0.80610  0.99983  0.63240  Biso   1.000  C
  C4       1.0000 0.80610  0.50017  0.13240  Biso   1.000  C
  H17      1.0000 0.28010  0.01080  0.42270  Biso   1.000  H
  H18      1.0000 0.28010  0.48920  0.92270  Biso   1.000  H
  H19      1.0000 0.71990  0.98920  0.57730  Biso   1.000  H
  H20      1.0000 0.71990  0.51080  0.07730  Biso   1.000  H
  C5       1.0000 0.16010  0.93423  0.33200  Biso   1.000  C
  C6       1.0000 0.16010  0.56577  0.83200  Biso   1.000  C
  C7       1.0000 0.83990  0.06577  0.66800  Biso   1.000  C
  C8       1.0000 0.83990  0.43423  0.16800  Biso   1.000  C
  H21      1.0000 0.22320  0.90060  0.36240  Biso   1.000  H
  H22      1.0000 0.22320  0.59940  0.86240  Biso   1.000  H
  H23      1.0000 0.77680  0.09940  0.63760  Biso   1.000  H
  H24      1.0000 0.77680  0.40060  0.13760  Biso   1.000  H
  C9       1.0000 0.03410  0.91836  0.25220  Biso   1.000  C
  C10      1.0000 0.03410  0.58164  0.75220  Biso   1.000  C
  C11      1.0000 0.96590  0.08164  0.74780  Biso   1.000  C
  C12      1.0000 0.96590  0.41836  0.24780  Biso   1.000  C
  H25      1.0000 0.01080  0.87400  0.22570  Biso   1.000  H
  H26      1.0000 0.01080  0.62600  0.72570  Biso   1.000  H
  H27      1.0000 0.98920  0.12600  0.77430  Biso   1.000  H
  H28      1.0000 0.98920  0.37400  0.27430  Biso   1.000  H
  C13      1.0000 0.94080  0.96893  0.21070  Biso   1.000  C
  C14      1.0000 0.94080  0.53107  0.71070  Biso   1.000  C
  C15      1.0000 0.05920  0.03107  0.78930  Biso   1.000  C
  C16      1.0000 0.05920  0.46893  0.28930  Biso   1.000  C
  H29      1.0000 0.85370  0.95890  0.15800  Biso   1.000  H
  H30      1.0000 0.85370  0.54110  0.65800  Biso   1.000  H
  H31      1.0000 0.14630  0.04110  0.84200  Biso   1.000  H
  H32      1.0000 0.14630  0.45890  0.34200  Biso   1.000  H
  C17      1.0000 0.97890  0.03434  0.24890  Biso   1.000  C
  C18      1.0000 0.97890  0.46566  0.74890  Biso   1.000  C
  C19      1.0000 0.02110  0.96566  0.75110  Biso   1.000  C
  C20      1.0000 0.02110  0.53434  0.25110  Biso   1.000  C
  C21      1.0000 0.88860  0.09321  0.20930  Biso   1.000  C
  C22      1.0000 0.88860  0.40679  0.70930  Biso   1.000  C
  C23      1.0000 0.11140  0.90679  0.79070  Biso   1.000  C
  C24      1.0000 0.11140  0.59321  0.29070  Biso   1.000  C
  C25      1.0000 0.75780  0.08917  0.12550  Biso   1.000  C
  C26      1.0000 0.75780  0.41083  0.62550  Biso   1.000  C
  C27      1.0000 0.24220  0.91083  0.87450  Biso   1.000  C
  C28      1.0000 0.24220  0.58917  0.37450  Biso   1.000  C
  H33      1.0000 0.71960  0.04780  0.09140  Biso   1.000  H
  H34      1.0000 0.71960  0.45220  0.59140  Biso   1.000  H
  H35      1.0000 0.28040  0.95220  0.90860  Biso   1.000  H
  H36      1.0000 0.28040  0.54780  0.40860  Biso   1.000  H
  C29      1.0000 0.68450  0.14725  0.09300  Biso   1.000  C
  C30      1.0000 0.68450  0.35275  0.59300  Biso   1.000  C
  C31      1.0000 0.31550  0.85275  0.90700  Biso   1.000  C
  C32      1.0000 0.31550  0.64725  0.40700  Biso   1.000  C
  H37      1.0000 0.59620  0.14550  0.03580  Biso   1.000  H
  H38      1.0000 0.59620  0.35450  0.53580  Biso   1.000  H
  H39      1.0000 0.40380  0.85450  0.96420  Biso   1.000  H
  H40      1.0000 0.40380  0.64550  0.46420  Biso   1.000  H
  C33      1.0000 0.74310  0.20841  0.14600  Biso   1.000  C
  C34      1.0000 0.74310  0.29159  0.64600  Biso   1.000  C
  C35      1.0000 0.25690  0.79159  0.85400  Biso   1.000  C
  C36      1.0000 0.25690  0.70841  0.35400  Biso   1.000  C
  H41      1.0000 0.69570  0.24820  0.12420  Biso   1.000  H
  H42      1.0000 0.69570  0.25180  0.62420  Biso   1.000  H
  H43      1.0000 0.30430  0.75180  0.87580  Biso   1.000  H
  H44      1.0000 0.30430  0.74820  0.37580  Biso   1.000  H
  C37      1.0000 0.87370  0.20832  0.23160  Biso   1.000  C
  C38      1.0000 0.87370  0.29168  0.73160  Biso   1.000  C
  C39      1.0000 0.12630  0.79168  0.76840  Biso   1.000  C
  C40      1.0000 0.12630  0.70832  0.26840  Biso   1.000  C
  H45      1.0000 0.91330  0.24910  0.26910  Biso   1.000  H
  H46      1.0000 0.91330  0.25090  0.76910  Biso   1.000  H
  H47      1.0000 0.08670  0.75090  0.73090  Biso   1.000  H
  H48      1.0000 0.08670  0.74910  0.23090  Biso   1.000  H
  C41      1.0000 0.21030  0.28411  0.48930  Biso   1.000  C
  C42      1.0000 0.21030  0.21589  0.98930  Biso   1.000  C
  C43      1.0000 0.78970  0.71589  0.51070  Biso   1.000  C
  C44      1.0000 0.78970  0.78411  0.01070  Biso   1.000  C
  C45      1.0000 0.32580  0.28290  0.38470  Biso   1.000  C
  C46      1.0000 0.32580  0.21710  0.88470  Biso   1.000  C
  C47      1.0000 0.67420  0.71710  0.61530  Biso   1.000  C
  C48      1.0000 0.67420  0.78290  0.11530  Biso   1.000  C
  H49      1.0000 0.33690  0.32080  0.31480  Biso   1.000  H
  H50      1.0000 0.33690  0.17920  0.81480  Biso   1.000  H
  H51      1.0000 0.66310  0.67920  0.68520  Biso   1.000  H
  H52      1.0000 0.66310  0.82080  0.18520  Biso   1.000  H
  C49      1.0000 0.41530  0.23417  0.37880  Biso   1.000  C
  C50      1.0000 0.41530  0.26583  0.87880  Biso   1.000  C
  C51      1.0000 0.58470  0.76583  0.62120  Biso   1.000  C
  C52      1.0000 0.58470  0.73417  0.12120  Biso   1.000  C
  H53      1.0000 0.48090  0.24210  0.30470  Biso   1.000  H
  H54      1.0000 0.48090  0.25790  0.80470  Biso   1.000  H
  H55      1.0000 0.51910  0.75790  0.69530  Biso   1.000  H
  H56      1.0000 0.51910  0.74210  0.19530  Biso   1.000  H
  C53      1.0000 0.42310  0.16855  0.47650  Biso   1.000  C
  C54      1.0000 0.42310  0.33145  0.97650  Biso   1.000  C
  C55      1.0000 0.57690  0.83145  0.52350  Biso   1.000  C
  C56      1.0000 0.57690  0.66855  0.02350  Biso   1.000  C
