data_image0
_cell_length_a       10.046
_cell_length_b       19.947
_cell_length_c       7.2241
_cell_angle_alpha    90
_cell_angle_beta     98.4
_cell_angle_gamma    90

_symmetry_space_group_name_H-M    "P 1"
_symmetry_int_tables_number       1

loop_
  _symmetry_equiv_pos_as_xyz
  'x, y, z'

loop_
  _atom_site_label
  _atom_site_occupancy
  _atom_site_fract_x
  _atom_site_fract_y
  _atom_site_fract_z
  _atom_site_thermal_displace_type
  _atom_site_B_iso_or_equiv
  _atom_site_type_symbol
  Cu1      1.0000 0.86115  0.64826  0.13923  Biso   1.000  Cu
  Cu2      1.0000 0.13885  0.14826  0.36077  Biso   1.000  Cu
  Cu3      1.0000 0.13885  0.35174  0.86077  Biso   1.000  Cu
  Cu4      1.0000 0.86115  0.85174  0.63923  Biso   1.000  Cu
  N1       1.0000 0.89534  0.54915  0.17449  Biso   1.000  N
  N2       1.0000 0.10466  0.04915  0.32551  Biso   1.000  N
  N3       1.0000 0.10466  0.45085  0.82551  Biso   1.000  N
  N4       1.0000 0.89534  0.95085  0.67449  Biso   1.000  N
  N5       1.0000 0.05580  0.65144  0.23912  Biso   1.000  N
  N6       1.0000 0.94420  0.15144  0.26088  Biso   1.000  N
  N7       1.0000 0.94420  0.34856  0.76088  Biso   1.000  N
  N8       1.0000 0.05580  0.84856  0.73912  Biso   1.000  N
  O1       1.0000 0.68014  0.63185  0.02534  Biso   1.000  O
  O2       1.0000 0.31986  0.13185  0.47466  Biso   1.000  O
  O3       1.0000 0.31986  0.36815  0.97466  Biso   1.000  O
  O4       1.0000 0.68014  0.86815  0.52534  Biso   1.000  O
  O5       1.0000 0.46249  0.65070  0.94368  Biso   1.000  O
  O6       1.0000 0.53751  0.15070  0.55632  Biso   1.000  O
  O7       1.0000 0.53751  0.34930  0.05632  Biso   1.000  O
  O8       1.0000 0.46249  0.84930  0.44368  Biso   1.000  O
  O9       1.0000 0.87009  0.73461  0.01569  Biso   1.000  O
  O10      1.0000 0.12991  0.23461  0.48431  Biso   1.000  O
  O11      1.0000 0.12991  0.26539  0.98431  Biso   1.000  O
  O12      1.0000 0.87009  0.76539  0.51569  Biso   1.000  O
  O13      1.0000 0.80386  0.83681  0.92462  Biso   1.000  O
  O14      1.0000 0.19614  0.33681  0.57538  Biso   1.000  O
  O15      1.0000 0.19614  0.16319  0.07538  Biso   1.000  O
  O16      1.0000 0.80386  0.66319  0.42462  Biso   1.000  O
  O17      1.0000 0.62357  0.93800  0.96435  Biso   1.000  O
  O18      1.0000 0.37643  0.43800  0.53565  Biso   1.000  O
  O19      1.0000 0.37643  0.06200  0.03565  Biso   1.000  O
  O20      1.0000 0.62357  0.56200  0.46435  Biso   1.000  O
  H1       1.0000 0.66900  0.90950  0.93600  Biso   1.000  H
  H2       1.0000 0.33100  0.40950  0.56400  Biso   1.000  H
  H3       1.0000 0.33100  0.09050  0.06400  Biso   1.000  H
  H4       1.0000 0.66900  0.59050  0.43600  Biso   1.000  H
  H5       1.0000 0.59500  0.95750  0.88400  Biso   1.000  H
  H6       1.0000 0.40500  0.45750  0.61600  Biso   1.000  H
  H7       1.0000 0.40500  0.04250  0.11600  Biso   1.000  H
  H8       1.0000 0.59500  0.54250  0.38400  Biso   1.000  H
  O21      1.0000 0.48318  0.02303  0.71850  Biso   1.000  O
  O22      1.0000 0.51682  0.52303  0.78150  Biso   1.000  O
  O23      1.0000 0.51682  0.97697  0.28150  Biso   1.000  O
  O24      1.0000 0.48318  0.47697  0.21850  Biso   1.000  O
  H9       1.0000 0.49900  0.05490  0.65700  Biso   1.000  H
  H10      1.0000 0.50100  0.55490  0.84300  Biso   1.000  H
  H11      1.0000 0.50100  0.94510  0.34300  Biso   1.000  H
  H12      1.0000 0.49900  0.44510  0.15700  Biso   1.000  H
  H13      1.0000 0.45200  0.03950  0.79700  Biso   1.000  H
  H14      1.0000 0.54800  0.53950  0.70300  Biso   1.000  H
  H15      1.0000 0.54800  0.96050  0.20300  Biso   1.000  H
  H16      1.0000 0.45200  0.46050  0.29700  Biso   1.000  H
  C1       1.0000 0.80470  0.50003  0.13070  Biso   1.000  C
  C2       1.0000 0.19530  0.00003  0.36930  Biso   1.000  C
  C3       1.0000 0.19530  0.49997  0.86930  Biso   1.000  C
  C4       1.0000 0.80470  0.99997  0.63070  Biso   1.000  C
  H17      1.0000 0.71610  0.51140  0.07450  Biso   1.000  H
  H18      1.0000 0.28390  0.01140  0.42550  Biso   1.000  H
  H19      1.0000 0.28390  0.48860  0.92550  Biso   1.000  H
  H20      1.0000 0.71610  0.98860  0.57450  Biso   1.000  H
  C5       1.0000 0.83710  0.43318  0.16550  Biso   1.000  C
  C6       1.0000 0.16290  0.93318  0.33450  Biso   1.000  C
  C7       1.0000 0.16290  0.56682  0.83450  Biso   1.000  C
  C8       1.0000 0.83710  0.06682  0.66550  Biso   1.000  C
  H21      1.0000 0.77170  0.39910  0.13390  Biso   1.000  H
  H22      1.0000 0.22830  0.89910  0.36610  Biso   1.000  H
  H23      1.0000 0.22830  0.60090  0.86610  Biso   1.000  H
  H24      1.0000 0.77170  0.10090  0.63390  Biso   1.000  H
  C9       1.0000 0.96620  0.41697  0.24700  Biso   1.000  C
  C10      1.0000 0.03380  0.91697  0.25300  Biso   1.000  C
  C11      1.0000 0.03380  0.58303  0.75300  Biso   1.000  C
  C12      1.0000 0.96620  0.08303  0.74700  Biso   1.000  C
  H25      1.0000 0.99030  0.37150  0.27280  Biso   1.000  H
  H26      1.0000 0.00970  0.87150  0.22720  Biso   1.000  H
  H27      1.0000 0.00970  0.62850  0.72720  Biso   1.000  H
  H28      1.0000 0.99030  0.12850  0.77280  Biso   1.000  H
  C13      1.0000 0.06089  0.46774  0.29110  Biso   1.000  C
  C14      1.0000 0.93911  0.96774  0.20890  Biso   1.000  C
  C15      1.0000 0.93911  0.53226  0.70890  Biso   1.000  C
  C16      1.0000 0.06089  0.03226  0.79110  Biso   1.000  C
  H29      1.0000 0.15020  0.45750  0.34650  Biso   1.000  H
  H30      1.0000 0.84980  0.95750  0.15350  Biso   1.000  H
  H31      1.0000 0.84980  0.54250  0.65350  Biso   1.000  H
  H32      1.0000 0.15020  0.04250  0.84650  Biso   1.000  H
  C17      1.0000 0.02184  0.53338  0.25250  Biso   1.000  C
  C18      1.0000 0.97816  0.03338  0.24750  Biso   1.000  C
  C19      1.0000 0.97816  0.46662  0.74750  Biso   1.000  C
  C20      1.0000 0.02184  0.96662  0.75250  Biso   1.000  C
  C21      1.0000 0.11301  0.59194  0.29230  Biso   1.000  C
  C22      1.0000 0.88699  0.09194  0.20770  Biso   1.000  C
  C23      1.0000 0.88699  0.40806  0.70770  Biso   1.000  C
  C24      1.0000 0.11301  0.90806  0.79230  Biso   1.000  C
  C25      1.0000 0.24542  0.58757  0.37770  Biso   1.000  C
  C26      1.0000 0.75458  0.08757  0.12230  Biso   1.000  C
  C27      1.0000 0.75458  0.41243  0.62230  Biso   1.000  C
  C28      1.0000 0.24542  0.91243  0.87770  Biso   1.000  C
  H33      1.0000 0.28460  0.54530  0.41290  Biso   1.000  H
  H34      1.0000 0.71540  0.04530  0.08710  Biso   1.000  H
  H35      1.0000 0.71540  0.45470  0.58710  Biso   1.000  H
  H36      1.0000 0.28460  0.95470  0.91290  Biso   1.000  H
  C29      1.0000 0.31982  0.64613  0.41110  Biso   1.000  C
  C30      1.0000 0.68018  0.14613  0.08890  Biso   1.000  C
  C31      1.0000 0.68018  0.35387  0.58890  Biso   1.000  C
  C32      1.0000 0.31982  0.85387  0.91110  Biso   1.000  C
  H37      1.0000 0.41080  0.64430  0.46940  Biso   1.000  H
  H38      1.0000 0.58920  0.14430  0.03060  Biso   1.000  H
  H39      1.0000 0.58920  0.35570  0.53060  Biso   1.000  H
  H40      1.0000 0.41080  0.85570  0.96940  Biso   1.000  H
  C33      1.0000 0.26063  0.70733  0.35870  Biso   1.000  C
  C34      1.0000 0.73937  0.20733  0.14130  Biso   1.000  C
  C35      1.0000 0.73937  0.29267  0.64130  Biso   1.000  C
  C36      1.0000 0.26063  0.79267  0.85870  Biso   1.000  C
  H41      1.0000 0.30960  0.74790  0.38190  Biso   1.000  H
  H42      1.0000 0.69040  0.24790  0.11810  Biso   1.000  H
  H43      1.0000 0.69040  0.25210  0.61810  Biso   1.000  H
  H44      1.0000 0.30960  0.75210  0.88190  Biso   1.000  H
  C37      1.0000 0.12825  0.70778  0.27180  Biso   1.000  C
  C38      1.0000 0.87175  0.20778  0.22820  Biso   1.000  C
  C39      1.0000 0.87175  0.29222  0.72820  Biso   1.000  C
  C40      1.0000 0.12825  0.79222  0.77180  Biso   1.000  C
  H45      1.0000 0.08730  0.74950  0.23410  Biso   1.000  H
  H46      1.0000 0.91270  0.24950  0.26590  Biso   1.000  H
  H47      1.0000 0.91270  0.25050  0.76590  Biso   1.000  H
  H48      1.0000 0.08730  0.75050  0.73410  Biso   1.000  H
  C41      1.0000 0.57453  0.66774  0.02470  Biso   1.000  C
  C42      1.0000 0.42547  0.16774  0.47530  Biso   1.000  C
  C43      1.0000 0.42547  0.33226  0.97530  Biso   1.000  C
  C44      1.0000 0.57453  0.83226  0.52470  Biso   1.000  C
  C45      1.0000 0.58229  0.73394  0.12410  Biso   1.000  C
  C46      1.0000 0.41771  0.23394  0.37590  Biso   1.000  C
  C47      1.0000 0.41771  0.26606  0.87590  Biso   1.000  C
  C48      1.0000 0.58229  0.76606  0.62410  Biso   1.000  C
  H49      1.0000 0.51440  0.74220  0.20000  Biso   1.000  H
  H50      1.0000 0.48560  0.24220  0.30000  Biso   1.000  H
  H51      1.0000 0.48560  0.25780  0.80000  Biso   1.000  H
  H52      1.0000 0.51440  0.75780  0.70000  Biso   1.000  H
  C49      1.0000 0.67249  0.78268  0.11950  Biso   1.000  C
  C50      1.0000 0.32751  0.28268  0.38050  Biso   1.000  C
  C51      1.0000 0.32751  0.21732  0.88050  Biso   1.000  C
  C52      1.0000 0.67249  0.71732  0.61950  Biso   1.000  C
  H53      1.0000 0.66120  0.82130  0.19240  Biso   1.000  H
  H54      1.0000 0.33880  0.32130  0.30760  Biso   1.000  H
  H55      1.0000 0.33880  0.17870  0.80760  Biso   1.000  H
  H56      1.0000 0.66120  0.67870  0.69240  Biso   1.000  H
  C53      1.0000 0.78972  0.78370  0.01257  Biso   1.000  C
  C54      1.0000 0.21028  0.28370  0.48743  Biso   1.000  C
  C55      1.0000 0.21028  0.21630  0.98743  Biso   1.000  C
  C56      1.0000 0.78972  0.71630  0.51257  Biso   1.000  C
