data_image0
_cell_length_a       10.1039
_cell_length_b       19.9558
_cell_length_c       7.3602
_cell_angle_alpha    90
_cell_angle_beta     98.36
_cell_angle_gamma    90

_symmetry_space_group_name_H-M    "P 1"
_symmetry_int_tables_number       1

loop_
  _symmetry_equiv_pos_as_xyz
  'x, y, z'

loop_
  _atom_site_label
  _atom_site_occupancy
  _atom_site_fract_x
  _atom_site_fract_y
  _atom_site_fract_z
  _atom_site_thermal_displace_type
  _atom_site_B_iso_or_equiv
  _atom_site_type_symbol
  Cu1      1.0000 0.86074  0.14900  0.63881  Biso   1.000  Cu
  Cu2      1.0000 0.13926  0.64900  0.86119  Biso   1.000  Cu
  Cu3      1.0000 0.13926  0.85100  0.36119  Biso   1.000  Cu
  Cu4      1.0000 0.86074  0.35100  0.13881  Biso   1.000  Cu
  N1       1.0000 0.89571  0.04995  0.67490  Biso   1.000  N
  N2       1.0000 0.10429  0.54995  0.82510  Biso   1.000  N
  N3       1.0000 0.10429  0.95005  0.32510  Biso   1.000  N
  N4       1.0000 0.89571  0.45005  0.17490  Biso   1.000  N
  N5       1.0000 0.05432  0.15228  0.73780  Biso   1.000  N
  N6       1.0000 0.94568  0.65228  0.76220  Biso   1.000  N
  N7       1.0000 0.94568  0.84772  0.26220  Biso   1.000  N
  N8       1.0000 0.05432  0.34772  0.23780  Biso   1.000  N
  O1       1.0000 0.68127  0.13243  0.52570  Biso   1.000  O
  O2       1.0000 0.31873  0.63243  0.97430  Biso   1.000  O
  O3       1.0000 0.31873  0.86757  0.47430  Biso   1.000  O
  O4       1.0000 0.68127  0.36757  0.02570  Biso   1.000  O
  O5       1.0000 0.46666  0.15190  0.44300  Biso   1.000  O
  O6       1.0000 0.53334  0.65190  0.05700  Biso   1.000  O
  O7       1.0000 0.53334  0.84810  0.55700  Biso   1.000  O
  O8       1.0000 0.46666  0.34810  0.94300  Biso   1.000  O
  O9       1.0000 0.80401  0.33621  0.42247  Biso   1.000  O
  O10      1.0000 0.19599  0.83621  0.07753  Biso   1.000  O
  O11      1.0000 0.19599  0.66379  0.57753  Biso   1.000  O
  O12      1.0000 0.80401  0.16379  0.92247  Biso   1.000  O
  O13      1.0000 0.86977  0.23481  0.51570  Biso   1.000  O
  O14      1.0000 0.13023  0.73481  0.98430  Biso   1.000  O
  O15      1.0000 0.13023  0.76519  0.48430  Biso   1.000  O
  O16      1.0000 0.86977  0.26519  0.01570  Biso   1.000  O
  O17      1.0000 0.62420  0.06085  0.95830  Biso   1.000  O
  O18      1.0000 0.37580  0.56085  0.54170  Biso   1.000  O
  O19      1.0000 0.37580  0.93915  0.04170  Biso   1.000  O
  O20      1.0000 0.62420  0.43915  0.45830  Biso   1.000  O
  H1       1.0000 0.58300  0.04130  0.87000  Biso   1.000  H
  H2       1.0000 0.41700  0.54130  0.63000  Biso   1.000  H
  H3       1.0000 0.41700  0.95870  0.13000  Biso   1.000  H
  H4       1.0000 0.58300  0.45870  0.37000  Biso   1.000  H
  H5       1.0000 0.67600  0.08970  0.93200  Biso   1.000  H
  H6       1.0000 0.32400  0.58970  0.56800  Biso   1.000  H
  H7       1.0000 0.32400  0.91030  0.06800  Biso   1.000  H
  H8       1.0000 0.67600  0.41030  0.43200  Biso   1.000  H
  O21      1.0000 0.51900  0.02632  0.27270  Biso   1.000  O
  O22      1.0000 0.48100  0.52632  0.22730  Biso   1.000  O
  O23      1.0000 0.48100  0.97368  0.72730  Biso   1.000  O
  O24      1.0000 0.51900  0.47368  0.77270  Biso   1.000  O
  H9       1.0000 0.55700  0.03750  0.18600  Biso   1.000  H
  H10      1.0000 0.44300  0.53750  0.31400  Biso   1.000  H
  H11      1.0000 0.44300  0.96250  0.81400  Biso   1.000  H
  H12      1.0000 0.55700  0.46250  0.68600  Biso   1.000  H
  H13      1.0000 0.50300  0.05740  0.34000  Biso   1.000  H
  H14      1.0000 0.49700  0.55740  0.16000  Biso   1.000  H
  H15      1.0000 0.49700  0.94260  0.66000  Biso   1.000  H
  H16      1.0000 0.50300  0.44260  0.84000  Biso   1.000  H
  C1       1.0000 0.80620  0.00034  0.63240  Biso   1.000  C
  C2       1.0000 0.19380  0.50034  0.86760  Biso   1.000  C
  C3       1.0000 0.19380  0.99966  0.36760  Biso   1.000  C
  C4       1.0000 0.80620  0.49966  0.13240  Biso   1.000  C
  H17      1.0000 0.71980  0.01100  0.57840  Biso   1.000  H
  H18      1.0000 0.28020  0.51100  0.92160  Biso   1.000  H
  H19      1.0000 0.28020  0.98900  0.42160  Biso   1.000  H
  H20      1.0000 0.71980  0.48900  0.07840  Biso   1.000  H
  C5       1.0000 0.83940  0.93434  0.66700  Biso   1.000  C
  C6       1.0000 0.16060  0.43434  0.83300  Biso   1.000  C
  C7       1.0000 0.16060  0.06566  0.33300  Biso   1.000  C
  C8       1.0000 0.83940  0.56566  0.16700  Biso   1.000  C
  H21      1.0000 0.77610  0.90080  0.63670  Biso   1.000  H
  H22      1.0000 0.22390  0.40080  0.86330  Biso   1.000  H
  H23      1.0000 0.22390  0.09920  0.36330  Biso   1.000  H
  H24      1.0000 0.77610  0.59920  0.13670  Biso   1.000  H
  C9       1.0000 0.96640  0.91846  0.74670  Biso   1.000  C
  C10      1.0000 0.03360  0.41846  0.75330  Biso   1.000  C
  C11      1.0000 0.03360  0.08154  0.25330  Biso   1.000  C
  C12      1.0000 0.96640  0.58154  0.24670  Biso   1.000  C
  H25      1.0000 0.99000  0.87400  0.77200  Biso   1.000  H
  H26      1.0000 0.01000  0.37400  0.72800  Biso   1.000  H
  H27      1.0000 0.01000  0.12600  0.22800  Biso   1.000  H
  H28      1.0000 0.99000  0.62600  0.27200  Biso   1.000  H
  C13      1.0000 0.05940  0.96902  0.78920  Biso   1.000  C
  C14      1.0000 0.94060  0.46902  0.71080  Biso   1.000  C
  C15      1.0000 0.94060  0.03098  0.21080  Biso   1.000  C
  C16      1.0000 0.05940  0.53098  0.28920  Biso   1.000  C
  H29      1.0000 0.14630  0.95900  0.84250  Biso   1.000  H
  H30      1.0000 0.85370  0.45900  0.65750  Biso   1.000  H
  H31      1.0000 0.85370  0.04100  0.15750  Biso   1.000  H
  H32      1.0000 0.14630  0.54100  0.34250  Biso   1.000  H
  C17      1.0000 0.02110  0.03444  0.75120  Biso   1.000  C
  C18      1.0000 0.97890  0.53444  0.74880  Biso   1.000  C
  C19      1.0000 0.97890  0.96556  0.24880  Biso   1.000  C
  C20      1.0000 0.02110  0.46556  0.25120  Biso   1.000  C
  C21      1.0000 0.11134  0.09304  0.79060  Biso   1.000  C
  C22      1.0000 0.88866  0.59304  0.70940  Biso   1.000  C
  C23      1.0000 0.88866  0.90696  0.20940  Biso   1.000  C
  C24      1.0000 0.11134  0.40696  0.29060  Biso   1.000  C
  C25      1.0000 0.24210  0.08942  0.87360  Biso   1.000  C
  C26      1.0000 0.75790  0.58942  0.62640  Biso   1.000  C
  C27      1.0000 0.75790  0.91058  0.12640  Biso   1.000  C
  C28      1.0000 0.24210  0.41058  0.37360  Biso   1.000  C
  H33      1.0000 0.28060  0.04820  0.90830  Biso   1.000  H
  H34      1.0000 0.71940  0.54820  0.59170  Biso   1.000  H
  H35      1.0000 0.71940  0.95180  0.09170  Biso   1.000  H
  H36      1.0000 0.28060  0.45180  0.40830  Biso   1.000  H
  C29      1.0000 0.31580  0.14768  0.90510  Biso   1.000  C
  C30      1.0000 0.68420  0.64768  0.59490  Biso   1.000  C
  C31      1.0000 0.68420  0.85232  0.09490  Biso   1.000  C
  C32      1.0000 0.31580  0.35232  0.40510  Biso   1.000  C
  H37      1.0000 0.40450  0.14590  0.96060  Biso   1.000  H
  H38      1.0000 0.59550  0.64590  0.53940  Biso   1.000  H
  H39      1.0000 0.59550  0.85410  0.03940  Biso   1.000  H
  H40      1.0000 0.40450  0.35410  0.46060  Biso   1.000  H
  C33      1.0000 0.25720  0.20823  0.85380  Biso   1.000  C
  C34      1.0000 0.74280  0.70823  0.64620  Biso   1.000  C
  C35      1.0000 0.74280  0.79177  0.14620  Biso   1.000  C
  C36      1.0000 0.25720  0.29177  0.35380  Biso   1.000  C
  H41      1.0000 0.30470  0.24810  0.87520  Biso   1.000  H
  H42      1.0000 0.69530  0.74810  0.62480  Biso   1.000  H
  H43      1.0000 0.69530  0.75190  0.12480  Biso   1.000  H
  H44      1.0000 0.30470  0.25190  0.37520  Biso   1.000  H
  C37      1.0000 0.12640  0.20834  0.77000  Biso   1.000  C
  C38      1.0000 0.87360  0.70834  0.73000  Biso   1.000  C
  C39      1.0000 0.87360  0.79166  0.23000  Biso   1.000  C
  C40      1.0000 0.12640  0.29166  0.27000  Biso   1.000  C
  H45      1.0000 0.08640  0.24910  0.73400  Biso   1.000  H
  H46      1.0000 0.91360  0.74910  0.76600  Biso   1.000  H
  H47      1.0000 0.91360  0.75090  0.26600  Biso   1.000  H
  H48      1.0000 0.08640  0.25090  0.23400  Biso   1.000  H
  C41      1.0000 0.57690  0.16844  0.52380  Biso   1.000  C
  C42      1.0000 0.42310  0.66844  0.97620  Biso   1.000  C
  C43      1.0000 0.42310  0.83156  0.47620  Biso   1.000  C
  C44      1.0000 0.57690  0.33156  0.02380  Biso   1.000  C
  C45      1.0000 0.58470  0.23444  0.62140  Biso   1.000  C
  C46      1.0000 0.41530  0.73444  0.87860  Biso   1.000  C
  C47      1.0000 0.41530  0.76556  0.37860  Biso   1.000  C
  C48      1.0000 0.58470  0.26556  0.12140  Biso   1.000  C
  H49      1.0000 0.51900  0.24250  0.69500  Biso   1.000  H
  H50      1.0000 0.48100  0.74250  0.80500  Biso   1.000  H
  H51      1.0000 0.48100  0.75750  0.30500  Biso   1.000  H
  H52      1.0000 0.51900  0.25750  0.19500  Biso   1.000  H
  C49      1.0000 0.79004  0.28390  0.51090  Biso   1.000  C
  C50      1.0000 0.20996  0.78390  0.98910  Biso   1.000  C
  C51      1.0000 0.20996  0.71610  0.48910  Biso   1.000  C
  C52      1.0000 0.79004  0.21610  0.01090  Biso   1.000  C
  C53      1.0000 0.67420  0.28304  0.61580  Biso   1.000  C
  C54      1.0000 0.32580  0.78304  0.88420  Biso   1.000  C
  C55      1.0000 0.32580  0.71696  0.38420  Biso   1.000  C
  C56      1.0000 0.67420  0.21696  0.11580  Biso   1.000  C
  H53      1.0000 0.66330  0.32100  0.68550  Biso   1.000  H
  H54      1.0000 0.33670  0.82100  0.81450  Biso   1.000  H
  H55      1.0000 0.33670  0.67900  0.31450  Biso   1.000  H
  H56      1.0000 0.66330  0.17900  0.18550  Biso   1.000  H
