data_image0
_cell_length_a       7.355
_cell_length_b       19.957
_cell_length_c       10.102
_cell_angle_alpha    90
_cell_angle_beta     98.33
_cell_angle_gamma    90

_symmetry_space_group_name_H-M    "P 1"
_symmetry_int_tables_number       1

loop_
  _symmetry_equiv_pos_as_xyz
  'x, y, z'

loop_
  _atom_site_label
  _atom_site_occupancy
  _atom_site_fract_x
  _atom_site_fract_y
  _atom_site_fract_z
  _atom_site_thermal_displace_type
  _atom_site_B_iso_or_equiv
  _atom_site_type_symbol
  Cu1      1.0000 0.13886  0.64895  0.36066  Biso   1.000  Cu
  Cu2      1.0000 0.36114  0.14895  0.63934  Biso   1.000  Cu
  Cu3      1.0000 0.86114  0.35105  0.63934  Biso   1.000  Cu
  Cu4      1.0000 0.63886  0.85105  0.36066  Biso   1.000  Cu
  O1       1.0000 0.02580  0.63230  0.18140  Biso   1.000  O
  O2       1.0000 0.47420  0.13230  0.81860  Biso   1.000  O
  O3       1.0000 0.97420  0.36770  0.81860  Biso   1.000  O
  O4       1.0000 0.52580  0.86770  0.18140  Biso   1.000  O
  O5       1.0000 0.94310  0.65180  0.96620  Biso   1.000  O
  O6       1.0000 0.55690  0.15180  0.03380  Biso   1.000  O
  O7       1.0000 0.05690  0.34820  0.03380  Biso   1.000  O
  O8       1.0000 0.44310  0.84820  0.96620  Biso   1.000  O
  O9       1.0000 0.01580  0.73480  0.37020  Biso   1.000  O
  O10      1.0000 0.48420  0.23480  0.62980  Biso   1.000  O
  O11      1.0000 0.98420  0.26520  0.62980  Biso   1.000  O
  O12      1.0000 0.51580  0.76520  0.37020  Biso   1.000  O
  O13      1.0000 0.92270  0.83610  0.30370  Biso   1.000  O
  O14      1.0000 0.57730  0.33610  0.69630  Biso   1.000  O
  O15      1.0000 0.07730  0.16390  0.69630  Biso   1.000  O
  O16      1.0000 0.42270  0.66390  0.30370  Biso   1.000  O
  N1       1.0000 0.17480  0.55000  0.39520  Biso   1.000  N
  N2       1.0000 0.32520  0.05000  0.60480  Biso   1.000  N
  N3       1.0000 0.82520  0.45000  0.60480  Biso   1.000  N
  N4       1.0000 0.67480  0.95000  0.39520  Biso   1.000  N
  N5       1.0000 0.23820  0.65230  0.55430  Biso   1.000  N
  N6       1.0000 0.26180  0.15230  0.44570  Biso   1.000  N
  N7       1.0000 0.76180  0.34770  0.44570  Biso   1.000  N
  N8       1.0000 0.73820  0.84770  0.55430  Biso   1.000  N
  C1       1.0000 0.02430  0.66840  0.07670  Biso   1.000  C
  C2       1.0000 0.47570  0.16840  0.92330  Biso   1.000  C
  C3       1.0000 0.97570  0.33160  0.92330  Biso   1.000  C
  C4       1.0000 0.52430  0.83160  0.07670  Biso   1.000  C
  C5       1.0000 0.12160  0.73410  0.08430  Biso   1.000  C
  C6       1.0000 0.37840  0.23410  0.91570  Biso   1.000  C
  C7       1.0000 0.87840  0.26590  0.91570  Biso   1.000  C
  C8       1.0000 0.62160  0.76590  0.08430  Biso   1.000  C
  C9       1.0000 0.11610  0.78310  0.17440  Biso   1.000  C
  C10      1.0000 0.38390  0.28310  0.82560  Biso   1.000  C
  C11      1.0000 0.88390  0.21690  0.82560  Biso   1.000  C
  C12      1.0000 0.61610  0.71690  0.17440  Biso   1.000  C
  C13      1.0000 0.01090  0.78390  0.29020  Biso   1.000  C
  C14      1.0000 0.48910  0.28390  0.70980  Biso   1.000  C
  C15      1.0000 0.98910  0.21610  0.70980  Biso   1.000  C
  C16      1.0000 0.51090  0.71610  0.29020  Biso   1.000  C
  C17      1.0000 0.13280  0.50020  0.30640  Biso   1.000  C
  C18      1.0000 0.36720  0.00020  0.69360  Biso   1.000  C
  C19      1.0000 0.86720  0.49980  0.69360  Biso   1.000  C
  C20      1.0000 0.63280  0.99980  0.30640  Biso   1.000  C
  C21      1.0000 0.16730  0.43430  0.33900  Biso   1.000  C
  C22      1.0000 0.33270  0.93430  0.66100  Biso   1.000  C
  C23      1.0000 0.83270  0.56570  0.66100  Biso   1.000  C
  C24      1.0000 0.66730  0.06570  0.33900  Biso   1.000  C
  C25      1.0000 0.24670  0.41860  0.46570  Biso   1.000  C
  C26      1.0000 0.25330  0.91860  0.53430  Biso   1.000  C
  C27      1.0000 0.75330  0.58140  0.53430  Biso   1.000  C
  C28      1.0000 0.74670  0.08140  0.46570  Biso   1.000  C
  C29      1.0000 0.28910  0.46900  0.55950  Biso   1.000  C
  C30      1.0000 0.21090  0.96900  0.44050  Biso   1.000  C
  C31      1.0000 0.71090  0.53100  0.44050  Biso   1.000  C
  C32      1.0000 0.78910  0.03100  0.55950  Biso   1.000  C
  C33      1.0000 0.25200  0.53420  0.52110  Biso   1.000  C
  C34      1.0000 0.24800  0.03420  0.47890  Biso   1.000  C
  C35      1.0000 0.74800  0.46580  0.47890  Biso   1.000  C
  C36      1.0000 0.75200  0.96580  0.52110  Biso   1.000  C
  C37      1.0000 0.29080  0.59300  0.61160  Biso   1.000  C
  C38      1.0000 0.20920  0.09300  0.38840  Biso   1.000  C
  C39      1.0000 0.70920  0.40700  0.38840  Biso   1.000  C
  C40      1.0000 0.79080  0.90700  0.61160  Biso   1.000  C
  C41      1.0000 0.37400  0.58910  0.74260  Biso   1.000  C
  C42      1.0000 0.12600  0.08910  0.25740  Biso   1.000  C
  C43      1.0000 0.62600  0.41090  0.25740  Biso   1.000  C
  C44      1.0000 0.87400  0.91090  0.74260  Biso   1.000  C
  C45      1.0000 0.40470  0.64740  0.81470  Biso   1.000  C
  C46      1.0000 0.09530  0.14740  0.18530  Biso   1.000  C
  C47      1.0000 0.59530  0.35260  0.18530  Biso   1.000  C
  C48      1.0000 0.90470  0.85260  0.81470  Biso   1.000  C
  C49      1.0000 0.35410  0.70800  0.75700  Biso   1.000  C
  C50      1.0000 0.14590  0.20800  0.24300  Biso   1.000  C
  C51      1.0000 0.64590  0.29200  0.24300  Biso   1.000  C
  C52      1.0000 0.85410  0.79200  0.75700  Biso   1.000  C
  C53      1.0000 0.26960  0.70840  0.62700  Biso   1.000  C
  C54      1.0000 0.23040  0.20840  0.37300  Biso   1.000  C
  C55      1.0000 0.73040  0.29160  0.37300  Biso   1.000  C
  C56      1.0000 0.76960  0.79160  0.62700  Biso   1.000  C
  O17      1.0000 0.04000  0.06120  0.87600  Biso   1.000  O
  O18      1.0000 0.46000  0.56120  0.12400  Biso   1.000  O
  O19      1.0000 0.96000  0.93880  0.12400  Biso   1.000  O
  O20      1.0000 0.54000  0.43880  0.87600  Biso   1.000  O
  O21      1.0000 0.72630  0.02480  0.97920  Biso   1.000  O
  O22      1.0000 0.77370  0.52480  0.02080  Biso   1.000  O
  O23      1.0000 0.27370  0.97520  0.02080  Biso   1.000  O
  O24      1.0000 0.22630  0.47520  0.97920  Biso   1.000  O
