data_image0
_cell_length_a       10.126
_cell_length_b       19.983
_cell_length_c       7.4042
_cell_angle_alpha    90
_cell_angle_beta     98.42
_cell_angle_gamma    90

_symmetry_space_group_name_H-M    "P 1"
_symmetry_int_tables_number       1

loop_
  _symmetry_equiv_pos_as_xyz
  'x, y, z'

loop_
  _atom_site_label
  _atom_site_occupancy
  _atom_site_fract_x
  _atom_site_fract_y
  _atom_site_fract_z
  _atom_site_thermal_displace_type
  _atom_site_B_iso_or_equiv
  _atom_site_type_symbol
  Cu1      1.0000 0.13934  0.14900  0.86123  Biso   1.000  Cu
  Cu2      1.0000 0.86066  0.64900  0.63877  Biso   1.000  Cu
  Cu3      1.0000 0.86066  0.85100  0.13877  Biso   1.000  Cu
  Cu4      1.0000 0.13934  0.35100  0.36123  Biso   1.000  Cu
  O1       1.0000 0.31890  0.13227  0.97390  Biso   1.000  O
  O2       1.0000 0.68110  0.63227  0.52610  Biso   1.000  O
  O3       1.0000 0.68110  0.86773  0.02610  Biso   1.000  O
  O4       1.0000 0.31890  0.36773  0.47390  Biso   1.000  O
  O5       1.0000 0.53370  0.15163  0.05640  Biso   1.000  O
  O6       1.0000 0.46630  0.65163  0.44360  Biso   1.000  O
  O7       1.0000 0.46630  0.84837  0.94360  Biso   1.000  O
  O8       1.0000 0.53370  0.34837  0.55640  Biso   1.000  O
  O9       1.0000 0.19630  0.33628  0.07760  Biso   1.000  O
  O10      1.0000 0.80370  0.83628  0.42240  Biso   1.000  O
  O11      1.0000 0.80370  0.66372  0.92240  Biso   1.000  O
  O12      1.0000 0.19630  0.16372  0.57760  Biso   1.000  O
  O13      1.0000 0.13020  0.23511  0.98390  Biso   1.000  O
  O14      1.0000 0.86980  0.73511  0.51610  Biso   1.000  O
  O15      1.0000 0.86980  0.76489  0.01610  Biso   1.000  O
  O16      1.0000 0.13020  0.26489  0.48390  Biso   1.000  O
  N1       1.0000 0.10460  0.04951  0.82480  Biso   1.000  N
  N2       1.0000 0.89540  0.54951  0.67520  Biso   1.000  N
  N3       1.0000 0.89540  0.95049  0.17520  Biso   1.000  N
  N4       1.0000 0.10460  0.45049  0.32480  Biso   1.000  N
  N5       1.0000 0.94520  0.15223  0.76210  Biso   1.000  N
  N6       1.0000 0.05480  0.65223  0.73790  Biso   1.000  N
  N7       1.0000 0.05480  0.84777  0.23790  Biso   1.000  N
  N8       1.0000 0.94520  0.34777  0.26210  Biso   1.000  N
  C1       1.0000 0.19380  0.00043  0.86790  Biso   1.000  C
  C2       1.0000 0.80620  0.50043  0.63210  Biso   1.000  C
  C3       1.0000 0.80620  0.99957  0.13210  Biso   1.000  C
  C4       1.0000 0.19380  0.49957  0.36790  Biso   1.000  C
  H1       1.0000 0.27970  0.01120  0.92280  Biso   1.000  H
  H2       1.0000 0.72030  0.51120  0.57720  Biso   1.000  H
  H3       1.0000 0.72030  0.98880  0.07720  Biso   1.000  H
  H4       1.0000 0.27970  0.48880  0.42280  Biso   1.000  H
  C5       1.0000 0.16120  0.93460  0.83310  Biso   1.000  C
  C6       1.0000 0.83880  0.43460  0.66690  Biso   1.000  C
  C7       1.0000 0.83880  0.06540  0.16690  Biso   1.000  C
  C8       1.0000 0.16120  0.56540  0.33310  Biso   1.000  C
  H5       1.0000 0.22460  0.90120  0.86270  Biso   1.000  H
  H6       1.0000 0.77540  0.40120  0.63730  Biso   1.000  H
  H7       1.0000 0.77540  0.09880  0.13730  Biso   1.000  H
  H8       1.0000 0.22460  0.59880  0.36270  Biso   1.000  H
  C9       1.0000 0.03410  0.91870  0.75390  Biso   1.000  C
  C10      1.0000 0.96590  0.41870  0.74610  Biso   1.000  C
  C11      1.0000 0.96590  0.08130  0.24610  Biso   1.000  C
  C12      1.0000 0.03410  0.58130  0.25390  Biso   1.000  C
  H9       1.0000 0.01070  0.87420  0.72990  Biso   1.000  H
  H10      1.0000 0.98930  0.37420  0.77010  Biso   1.000  H
  H11      1.0000 0.98930  0.12580  0.27010  Biso   1.000  H
  H12      1.0000 0.01070  0.62580  0.22990  Biso   1.000  H
  C13      1.0000 0.93970  0.96917  0.70950  Biso   1.000  C
  C14      1.0000 0.06030  0.46917  0.79050  Biso   1.000  C
  C15      1.0000 0.06030  0.03083  0.29050  Biso   1.000  C
  C16      1.0000 0.93970  0.53083  0.20950  Biso   1.000  C
  H13      1.0000 0.85320  0.95910  0.65570  Biso   1.000  H
  H14      1.0000 0.14680  0.45910  0.84430  Biso   1.000  H
  H15      1.0000 0.14680  0.04090  0.34430  Biso   1.000  H
  H16      1.0000 0.85320  0.54090  0.15570  Biso   1.000  H
  C17      1.0000 0.97840  0.03438  0.74780  Biso   1.000  C
  C18      1.0000 0.02160  0.53438  0.75220  Biso   1.000  C
  C19      1.0000 0.02160  0.96562  0.25220  Biso   1.000  C
  C20      1.0000 0.97840  0.46562  0.24780  Biso   1.000  C
  C21      1.0000 0.88890  0.09284  0.70960  Biso   1.000  C
  C22      1.0000 0.11110  0.59284  0.79040  Biso   1.000  C
  C23      1.0000 0.11110  0.90716  0.29040  Biso   1.000  C
  C24      1.0000 0.88890  0.40716  0.20960  Biso   1.000  C
  C25      1.0000 0.75820  0.08900  0.62570  Biso   1.000  C
  C26      1.0000 0.24180  0.58900  0.87430  Biso   1.000  C
  C27      1.0000 0.24180  0.91100  0.37430  Biso   1.000  C
  C28      1.0000 0.75820  0.41100  0.12570  Biso   1.000  C
  H17      1.0000 0.72010  0.04780  0.59070  Biso   1.000  H
  H18      1.0000 0.27990  0.54780  0.90930  Biso   1.000  H
  H19      1.0000 0.27990  0.95220  0.40930  Biso   1.000  H
  H20      1.0000 0.72010  0.45220  0.09070  Biso   1.000  H
  C29      1.0000 0.68450  0.14710  0.59450  Biso   1.000  C
  C30      1.0000 0.31550  0.64710  0.90550  Biso   1.000  C
  C31      1.0000 0.31550  0.85290  0.40550  Biso   1.000  C
  C32      1.0000 0.68450  0.35290  0.09450  Biso   1.000  C
  H21      1.0000 0.59610  0.14530  0.53900  Biso   1.000  H
  H22      1.0000 0.40390  0.64530  0.96100  Biso   1.000  H
  H23      1.0000 0.40390  0.85470  0.46100  Biso   1.000  H
  H24      1.0000 0.59610  0.35470  0.03900  Biso   1.000  H
  C33      1.0000 0.74260  0.20760  0.64600  Biso   1.000  C
  C34      1.0000 0.25740  0.70760  0.85400  Biso   1.000  C
  C35      1.0000 0.25740  0.79240  0.35400  Biso   1.000  C
  C36      1.0000 0.74260  0.29240  0.14600  Biso   1.000  C
  H25      1.0000 0.69480  0.24730  0.62440  Biso   1.000  H
  H26      1.0000 0.30520  0.74730  0.87560  Biso   1.000  H
  H27      1.0000 0.30520  0.75270  0.37560  Biso   1.000  H
  H28      1.0000 0.69480  0.25270  0.12440  Biso   1.000  H
  C37      1.0000 0.87340  0.20819  0.73020  Biso   1.000  C
  C38      1.0000 0.12660  0.70819  0.76980  Biso   1.000  C
  C39      1.0000 0.12660  0.79181  0.26980  Biso   1.000  C
  C40      1.0000 0.87340  0.29181  0.23020  Biso   1.000  C
  H29      1.0000 0.91300  0.24900  0.76610  Biso   1.000  H
  H30      1.0000 0.08700  0.74900  0.73390  Biso   1.000  H
  H31      1.0000 0.08700  0.75100  0.23390  Biso   1.000  H
  H32      1.0000 0.91300  0.25100  0.26610  Biso   1.000  H
  C41      1.0000 0.42280  0.16840  0.97540  Biso   1.000  C
  C42      1.0000 0.57720  0.66840  0.52460  Biso   1.000  C
  C43      1.0000 0.57720  0.83160  0.02460  Biso   1.000  C
  C44      1.0000 0.42280  0.33160  0.47540  Biso   1.000  C
  C45      1.0000 0.41540  0.23409  0.87940  Biso   1.000  C
  C46      1.0000 0.58460  0.73409  0.62060  Biso   1.000  C
  C47      1.0000 0.58460  0.76591  0.12060  Biso   1.000  C
  C48      1.0000 0.41540  0.26591  0.37940  Biso   1.000  C
  H33      1.0000 0.48110  0.24210  0.80640  Biso   1.000  H
  H34      1.0000 0.51890  0.74210  0.69360  Biso   1.000  H
  H35      1.0000 0.51890  0.75790  0.19360  Biso   1.000  H
  H36      1.0000 0.48110  0.25790  0.30640  Biso   1.000  H
  C49      1.0000 0.32600  0.28294  0.88510  Biso   1.000  C
  C50      1.0000 0.67400  0.78294  0.61490  Biso   1.000  C
  C51      1.0000 0.67400  0.71706  0.11490  Biso   1.000  C
  C52      1.0000 0.32600  0.21706  0.38510  Biso   1.000  C
  H37      1.0000 0.33730  0.32080  0.81600  Biso   1.000  H
  H38      1.0000 0.66270  0.82080  0.68400  Biso   1.000  H
  H39      1.0000 0.66270  0.67920  0.18400  Biso   1.000  H
  H40      1.0000 0.33730  0.17920  0.31600  Biso   1.000  H
  C53      1.0000 0.21040  0.28402  0.98890  Biso   1.000  C
  C54      1.0000 0.78960  0.78402  0.51110  Biso   1.000  C
  C55      1.0000 0.78960  0.71598  0.01110  Biso   1.000  C
  C56      1.0000 0.21040  0.21598  0.48890  Biso   1.000  C
  O17      1.0000 0.37700  0.06070  0.54230  Biso   1.000  O
  O18      1.0000 0.62300  0.56070  0.95770  Biso   1.000  O
  O19      1.0000 0.62300  0.93930  0.45770  Biso   1.000  O
  O20      1.0000 0.37700  0.43930  0.04230  Biso   1.000  O
  H41      1.0000 0.41300  0.03400  0.65400  Biso   1.000  H
  H42      1.0000 0.58700  0.53400  0.84600  Biso   1.000  H
  H43      1.0000 0.58700  0.96600  0.34600  Biso   1.000  H
  H44      1.0000 0.41300  0.46600  0.15400  Biso   1.000  H
  H45      1.0000 0.34100  0.08100  0.56400  Biso   1.000  H
  H46      1.0000 0.65900  0.58100  0.93600  Biso   1.000  H
  H47      1.0000 0.65900  0.91900  0.43600  Biso   1.000  H
  H48      1.0000 0.34100  0.41900  0.06400  Biso   1.000  H
  O21      1.0000 0.48220  0.02620  0.22640  Biso   1.000  O
  O22      1.0000 0.51780  0.52620  0.27360  Biso   1.000  O
  O23      1.0000 0.51780  0.97380  0.77360  Biso   1.000  O
  O24      1.0000 0.48220  0.47380  0.72640  Biso   1.000  O
  H49      1.0000 0.43500  0.03400  0.29600  Biso   1.000  H
  H50      1.0000 0.56500  0.53400  0.20400  Biso   1.000  H
  H51      1.0000 0.56500  0.96600  0.70400  Biso   1.000  H
  H52      1.0000 0.43500  0.46600  0.79600  Biso   1.000  H
  H53      1.0000 0.49400  0.05200  0.14300  Biso   1.000  H
  H54      1.0000 0.50600  0.55200  0.35700  Biso   1.000  H
  H55      1.0000 0.50600  0.94800  0.85700  Biso   1.000  H
  H56      1.0000 0.49400  0.44800  0.64300  Biso   1.000  H
