data_image0
_cell_length_a       8.211
_cell_length_b       8.327
_cell_length_c       9.356
_cell_angle_alpha    95.96
_cell_angle_beta     107.6
_cell_angle_gamma    116.67

_symmetry_space_group_name_H-M    "P 1"
_symmetry_int_tables_number       1

loop_
  _symmetry_equiv_pos_as_xyz
  'x, y, z'

loop_
  _atom_site_label
  _atom_site_occupancy
  _atom_site_fract_x
  _atom_site_fract_y
  _atom_site_fract_z
  _atom_site_thermal_displace_type
  _atom_site_B_iso_or_equiv
  _atom_site_type_symbol
  Cu1      1.0000 0.44686  0.42855  0.32323  Biso   1.000  Cu
  N1       1.0000 0.25410  0.45120  0.40360  Biso   1.000  N
  C1       1.0000 0.29670  0.48680  0.55670  Biso   1.000  C
  H1       1.0000 0.42200  0.51080  0.62590  Biso   1.000  H
  C2       1.0000 0.16680  0.48980  0.61650  Biso   1.000  C
  C3       1.0000 0.98330  0.45010  0.51890  Biso   1.000  C
  H2       1.0000 0.88900  0.44860  0.55850  Biso   1.000  H
  C4       1.0000 0.94130  0.41280  0.36360  Biso   1.000  C
  H3       1.0000 0.81520  0.38400  0.29210  Biso   1.000  H
  C5       1.0000 0.07830  0.41630  0.30970  Biso   1.000  C
  H4       1.0000 0.04670  0.39280  0.20050  Biso   1.000  H
  O1       1.0000 0.22200  0.54300  0.77420  Biso   1.000  O
  N2       1.0000 0.15030  0.24380  0.76760  Biso   1.000  N
  C6       1.0000 0.22360  0.41420  0.85000  Biso   1.000  C
  C7       1.0000 0.30990  0.47180  0.00850  Biso   1.000  C
  H5       1.0000 0.36050  0.59790  0.06250  Biso   1.000  H
  N3       1.0000 0.32380  0.35320  0.08740  Biso   1.000  N
  C8       1.0000 0.25670  0.18130  0.00740  Biso   1.000  C
  H6       1.0000 0.26940  0.09320  0.05990  Biso   1.000  H
  C9       1.0000 0.16870  0.13080  0.84820  Biso   1.000  C
  O2       1.0000 0.09240  0.94910  0.77350  Biso   1.000  O
  N4       1.0000 0.71340  0.65990  0.39970  Biso   1.000  N
  C10      1.0000 0.81340  0.73960  0.55060  Biso   1.000  C
  H7       1.0000 0.75130  0.69040  0.61900  Biso   1.000  H
  C11      1.0000 0.00110  0.88880  0.61390  Biso   1.000  C
  C12      1.0000 0.09420  0.96690  0.51930  Biso   1.000  C
  H8       1.0000 0.22410  0.07330  0.56080  Biso   1.000  H
  C13      1.0000 0.99130  0.88430  0.36290  Biso   1.000  C
  H9       1.0000 0.04950  0.93140  0.29180  Biso   1.000  H
  C14      1.0000 0.80310  0.73270  0.30840  Biso   1.000  C
  H10      1.0000 0.73390  0.67730  0.19870  Biso   1.000  H
  N5       1.0000 0.47630  0.22160  0.38200  Biso   1.000  N
  C15      1.0000 0.50600  0.11150  0.41940  Biso   1.000  C
  C16      1.0000 0.54700  0.97430  0.47070  Biso   1.000  C
  H11      1.0000 0.65650  0.03220  0.57400  Biso   1.000  H
  H12      1.0000 0.58470  0.92140  0.39630  Biso   1.000  H
  H13      1.0000 0.42900  0.87440  0.47740  Biso   1.000  H
  N6       1.0000 0.55300  0.95450  0.11280  Biso   1.000  N
  C17      1.0000 0.62350  0.95650  0.02960  Biso   1.000  C
  C18      1.0000 0.71500  0.95700  0.92300  Biso   1.000  C
  H14      1.0000 0.77090  0.08080  0.90470  Biso   1.000  H
  H15      1.0000 0.61560  0.86200  0.82420  Biso   1.000  H
  H16      1.0000 0.82030  0.92930  0.96680  Biso   1.000  H
  B1       1.0000 0.69460  0.38570  0.85500  Biso   1.000  B
  F1       1.0000 0.53420  0.21930  0.77590  Biso   1.000  F
  F2       1.0000 0.74000  0.40010  0.00630  Biso   1.000  F
  F3       1.0000 0.67000  0.52710  0.82700  Biso   1.000  F
  F4       1.0000 0.84020  0.39300  0.82000  Biso   1.000  F
  F5       1.0000 0.65300  0.47500  0.94900  Biso   1.000  F
  F6       1.0000 0.73400  0.47700  0.75100  Biso   1.000  F
  F7       1.0000 0.84700  0.37200  0.93300  Biso   1.000  F
  O3       1.0000 0.14500  0.77390  0.10520  Biso   1.000  O
  H17      1.0000 0.01970  0.63600  0.04660  Biso   1.000  H
  H18      1.0000 0.07500  0.78950  0.09170  Biso   1.000  H
