data_image0
_cell_length_a       9.3423
_cell_length_b       11.712
_cell_length_c       22.8011
_cell_angle_alpha    90
_cell_angle_beta     101.232
_cell_angle_gamma    90

_symmetry_space_group_name_H-M    "P 1"
_symmetry_int_tables_number       1

loop_
  _symmetry_equiv_pos_as_xyz
  'x, y, z'

loop_
  _atom_site_label
  _atom_site_occupancy
  _atom_site_fract_x
  _atom_site_fract_y
  _atom_site_fract_z
  _atom_site_thermal_displace_type
  _atom_site_B_iso_or_equiv
  _atom_site_type_symbol
  C1       1.0000 0.70360  0.71230  0.82350  Biso   1.000  C
  C2       1.0000 0.29640  0.21230  0.67650  Biso   1.000  C
  C3       1.0000 0.29640  0.28770  0.17650  Biso   1.000  C
  C4       1.0000 0.70360  0.78770  0.32350  Biso   1.000  C
  H1       1.0000 0.62070  0.73510  0.84220  Biso   1.000  H
  H2       1.0000 0.37930  0.23510  0.65780  Biso   1.000  H
  H3       1.0000 0.37930  0.26490  0.15780  Biso   1.000  H
  H4       1.0000 0.62070  0.76490  0.34220  Biso   1.000  H
  H5       1.0000 0.79510  0.73770  0.84990  Biso   1.000  H
  H6       1.0000 0.20490  0.23770  0.65010  Biso   1.000  H
  H7       1.0000 0.20490  0.26230  0.15010  Biso   1.000  H
  H8       1.0000 0.79510  0.76230  0.34990  Biso   1.000  H
  C5       1.0000 0.70510  0.58330  0.81630  Biso   1.000  C
  C6       1.0000 0.29490  0.08330  0.68370  Biso   1.000  C
  C7       1.0000 0.29490  0.41670  0.18370  Biso   1.000  C
  C8       1.0000 0.70510  0.91670  0.31630  Biso   1.000  C
  H9       1.0000 0.71770  0.54560  0.85580  Biso   1.000  H
  H10      1.0000 0.28230  0.04560  0.64420  Biso   1.000  H
  H11      1.0000 0.28230  0.45440  0.14420  Biso   1.000  H
  H12      1.0000 0.71770  0.95440  0.35580  Biso   1.000  H
  H13      1.0000 0.61220  0.55690  0.79140  Biso   1.000  H
  H14      1.0000 0.38780  0.05690  0.70860  Biso   1.000  H
  H15      1.0000 0.38780  0.44310  0.20860  Biso   1.000  H
  H16      1.0000 0.61220  0.94310  0.29140  Biso   1.000  H
  C9       1.0000 0.82460  0.43570  0.76410  Biso   1.000  C
  C10      1.0000 0.17540  0.93570  0.73590  Biso   1.000  C
  C11      1.0000 0.17540  0.56430  0.23590  Biso   1.000  C
  C12      1.0000 0.82460  0.06430  0.26410  Biso   1.000  C
  H17      1.0000 0.75910  0.38990  0.78480  Biso   1.000  H
  H18      1.0000 0.24090  0.88990  0.71520  Biso   1.000  H
  H19      1.0000 0.24090  0.61010  0.21520  Biso   1.000  H
  H20      1.0000 0.75910  0.11010  0.28480  Biso   1.000  H
  C13      1.0000 0.75790  0.43750  0.69750  Biso   1.000  C
  C14      1.0000 0.24210  0.93750  0.80250  Biso   1.000  C
  C15      1.0000 0.24210  0.56250  0.30250  Biso   1.000  C
  C16      1.0000 0.75790  0.06250  0.19750  Biso   1.000  C
  H21      1.0000 0.77190  0.36260  0.67930  Biso   1.000  H
  H22      1.0000 0.22810  0.86260  0.82070  Biso   1.000  H
  H23      1.0000 0.22810  0.63740  0.32070  Biso   1.000  H
  H24      1.0000 0.77190  0.13740  0.17930  Biso   1.000  H
  H25      1.0000 0.65180  0.45290  0.69160  Biso   1.000  H
  H26      1.0000 0.34820  0.95290  0.80840  Biso   1.000  H
  H27      1.0000 0.34820  0.54710  0.30840  Biso   1.000  H
  H28      1.0000 0.65180  0.04710  0.19160  Biso   1.000  H
  C17      1.0000 0.75780  0.55090  0.60470  Biso   1.000  C
  C18      1.0000 0.24220  0.05090  0.89530  Biso   1.000  C
  C19      1.0000 0.24220  0.44910  0.39530  Biso   1.000  C
  C20      1.0000 0.75780  0.94910  0.10470  Biso   1.000  C
  H29      1.0000 0.65240  0.53300  0.59890  Biso   1.000  H
  H30      1.0000 0.34760  0.03300  0.90110  Biso   1.000  H
  H31      1.0000 0.34760  0.46700  0.40110  Biso   1.000  H
  H32      1.0000 0.65240  0.96700  0.09890  Biso   1.000  H
  H33      1.0000 0.80170  0.50260  0.57730  Biso   1.000  H
  H34      1.0000 0.19830  0.00260  0.92270  Biso   1.000  H
  H35      1.0000 0.19830  0.49740  0.42270  Biso   1.000  H
  H36      1.0000 0.80170  0.99740  0.07730  Biso   1.000  H
  C21      1.0000 0.78000  0.67730  0.59220  Biso   1.000  C
  C22      1.0000 0.22000  0.17730  0.90780  Biso   1.000  C
  C23      1.0000 0.22000  0.32270  0.40780  Biso   1.000  C
  C24      1.0000 0.78000  0.82270  0.09220  Biso   1.000  C
  H37      1.0000 0.88480  0.69270  0.59350  Biso   1.000  H
  H38      1.0000 0.11520  0.19270  0.90650  Biso   1.000  H
  H39      1.0000 0.11520  0.30730  0.40650  Biso   1.000  H
  H40      1.0000 0.88480  0.80730  0.09350  Biso   1.000  H
  H41      1.0000 0.72510  0.69760  0.55200  Biso   1.000  H
  H42      1.0000 0.27490  0.19760  0.94800  Biso   1.000  H
  H43      1.0000 0.27490  0.30240  0.44800  Biso   1.000  H
  H44      1.0000 0.72510  0.80240  0.05200  Biso   1.000  H
  C25      1.0000 0.56560  0.75940  0.62500  Biso   1.000  C
  C26      1.0000 0.43440  0.25940  0.87500  Biso   1.000  C
  C27      1.0000 0.43440  0.24060  0.37500  Biso   1.000  C
  C28      1.0000 0.56560  0.74060  0.12500  Biso   1.000  C
  H45      1.0000 0.51960  0.68310  0.62440  Biso   1.000  H
  H46      1.0000 0.48040  0.18310  0.87560  Biso   1.000  H
  H47      1.0000 0.48040  0.31690  0.37560  Biso   1.000  H
  H48      1.0000 0.51960  0.81690  0.12440  Biso   1.000  H
  H49      1.0000 0.53380  0.79430  0.58500  Biso   1.000  H
  H50      1.0000 0.46620  0.29430  0.91500  Biso   1.000  H
  H51      1.0000 0.46620  0.20570  0.41500  Biso   1.000  H
  H52      1.0000 0.53380  0.70570  0.08500  Biso   1.000  H
  C29      1.0000 0.51580  0.83320  0.67160  Biso   1.000  C
  C30      1.0000 0.48420  0.33320  0.82840  Biso   1.000  C
  C31      1.0000 0.48420  0.16680  0.32840  Biso   1.000  C
  C32      1.0000 0.51580  0.66680  0.17160  Biso   1.000  C
  H53      1.0000 0.41170  0.85280  0.65750  Biso   1.000  H
  H54      1.0000 0.58830  0.35280  0.84250  Biso   1.000  H
  H55      1.0000 0.58830  0.14720  0.34250  Biso   1.000  H
  H56      1.0000 0.41170  0.64720  0.15750  Biso   1.000  H
  H57      1.0000 0.57210  0.90530  0.67560  Biso   1.000  H
  H58      1.0000 0.42790  0.40530  0.82440  Biso   1.000  H
  H59      1.0000 0.42790  0.09470  0.32440  Biso   1.000  H
  H60      1.0000 0.57210  0.59470  0.17560  Biso   1.000  H
  C33      1.0000 0.53350  0.77740  0.73280  Biso   1.000  C
  C34      1.0000 0.46650  0.27740  0.76720  Biso   1.000  C
  C35      1.0000 0.46650  0.22260  0.26720  Biso   1.000  C
  C36      1.0000 0.53350  0.72260  0.23280  Biso   1.000  C
  H61      1.0000 0.47970  0.82280  0.75800  Biso   1.000  H
  H62      1.0000 0.52030  0.32280  0.74200  Biso   1.000  H
  H63      1.0000 0.52030  0.17720  0.24200  Biso   1.000  H
  H64      1.0000 0.47970  0.67720  0.25800  Biso   1.000  H
  H65      1.0000 0.48950  0.70020  0.72810  Biso   1.000  H
  H66      1.0000 0.51050  0.20020  0.77190  Biso   1.000  H
  H67      1.0000 0.51050  0.29980  0.27190  Biso   1.000  H
  H68      1.0000 0.48950  0.79980  0.22810  Biso   1.000  H
  C37      1.0000 0.97630  0.38320  0.77870  Biso   1.000  C
  C38      1.0000 0.02370  0.88320  0.72130  Biso   1.000  C
  C39      1.0000 0.02370  0.61680  0.22130  Biso   1.000  C
  C40      1.0000 0.97630  0.11680  0.27870  Biso   1.000  C
  H69      1.0000 0.04160  0.42610  0.75730  Biso   1.000  H
  H70      1.0000 0.95840  0.92610  0.74270  Biso   1.000  H
  H71      1.0000 0.95840  0.57390  0.24270  Biso   1.000  H
  H72      1.0000 0.04160  0.07390  0.25730  Biso   1.000  H
  H73      1.0000 0.01500  0.39130  0.82210  Biso   1.000  H
  H74      1.0000 0.98500  0.89130  0.67790  Biso   1.000  H
  H75      1.0000 0.98500  0.60870  0.17790  Biso   1.000  H
  H76      1.0000 0.01500  0.10870  0.32210  Biso   1.000  H
  Cu1      1.0000 0.80985  0.67121  0.71772  Biso   1.000  Cu
  Cu2      1.0000 0.19015  0.17121  0.78228  Biso   1.000  Cu
  Cu3      1.0000 0.19015  0.32879  0.28228  Biso   1.000  Cu
  Cu4      1.0000 0.80985  0.82879  0.21772  Biso   1.000  Cu
  N1       1.0000 0.68930  0.76740  0.76370  Biso   1.000  N
  N2       1.0000 0.31070  0.26740  0.73630  Biso   1.000  N
  N3       1.0000 0.31070  0.23260  0.23630  Biso   1.000  N
  N4       1.0000 0.68930  0.73260  0.26370  Biso   1.000  N
  H77      1.0000 0.73400  0.83300  0.77000  Biso   1.000  H
  H78      1.0000 0.26600  0.33300  0.73000  Biso   1.000  H
  H79      1.0000 0.26600  0.16700  0.23000  Biso   1.000  H
  H80      1.0000 0.73400  0.66700  0.27000  Biso   1.000  H
  N5       1.0000 0.82850  0.55570  0.78720  Biso   1.000  N
  N6       1.0000 0.17150  0.05570  0.71280  Biso   1.000  N
  N7       1.0000 0.17150  0.44430  0.21280  Biso   1.000  N
  N8       1.0000 0.82850  0.94430  0.28720  Biso   1.000  N
  H81      1.0000 0.91100  0.56300  0.81300  Biso   1.000  H
  H82      1.0000 0.08900  0.06300  0.68700  Biso   1.000  H
  H83      1.0000 0.08900  0.43700  0.18700  Biso   1.000  H
  H84      1.0000 0.91100  0.93700  0.31300  Biso   1.000  H
  N9       1.0000 0.83100  0.52920  0.66840  Biso   1.000  N
  N10      1.0000 0.16900  0.02920  0.83160  Biso   1.000  N
  N11      1.0000 0.16900  0.47080  0.33160  Biso   1.000  N
  N12      1.0000 0.83100  0.97080  0.16840  Biso   1.000  N
  H85      1.0000 0.93400  0.51300  0.67100  Biso   1.000  H
  H86      1.0000 0.06600  0.01300  0.82900  Biso   1.000  H
  H87      1.0000 0.06600  0.48700  0.32900  Biso   1.000  H
  H88      1.0000 0.93400  0.98700  0.17100  Biso   1.000  H
  N13      1.0000 0.72810  0.74640  0.63770  Biso   1.000  N
  N14      1.0000 0.27190  0.24640  0.86230  Biso   1.000  N
  N15      1.0000 0.27190  0.25360  0.36230  Biso   1.000  N
  N16      1.0000 0.72810  0.75360  0.13770  Biso   1.000  N
  H89      1.0000 0.76700  0.81300  0.63700  Biso   1.000  H
  H90      1.0000 0.23300  0.31300  0.86300  Biso   1.000  H
  H91      1.0000 0.23300  0.18700  0.36300  Biso   1.000  H
  H92      1.0000 0.76700  0.68700  0.13700  Biso   1.000  H
  N17      1.0000 0.97910  0.26040  0.76230  Biso   1.000  N
  N18      1.0000 0.02090  0.76040  0.73770  Biso   1.000  N
  N19      1.0000 0.02090  0.73960  0.23770  Biso   1.000  N
  N20      1.0000 0.97910  0.23960  0.26230  Biso   1.000  N
  H93      1.0000 0.92100  0.23000  0.78500  Biso   1.000  H
  H94      1.0000 0.07900  0.73000  0.71500  Biso   1.000  H
  H95      1.0000 0.07900  0.77000  0.21500  Biso   1.000  H
  H96      1.0000 0.92100  0.27000  0.28500  Biso   1.000  H
  H97      1.0000 0.92900  0.24900  0.72700  Biso   1.000  H
  H98      1.0000 0.07100  0.74900  0.77300  Biso   1.000  H
  H99      1.0000 0.07100  0.75100  0.27300  Biso   1.000  H
  H100     1.0000 0.92900  0.25100  0.22700  Biso   1.000  H
  C41      1.0000 0.37530  0.67190  0.93650  Biso   1.000  C
  C42      1.0000 0.62470  0.17190  0.56350  Biso   1.000  C
  C43      1.0000 0.62470  0.32810  0.06350  Biso   1.000  C
  C44      1.0000 0.37530  0.82810  0.43650  Biso   1.000  C
  F1       1.0000 0.32020  0.66400  0.98550  Biso   1.000  F
  F2       1.0000 0.67980  0.16400  0.51450  Biso   1.000  F
  F3       1.0000 0.67980  0.33600  0.01450  Biso   1.000  F
  F4       1.0000 0.32020  0.83600  0.48550  Biso   1.000  F
  F5       1.0000 0.50590  0.62330  0.94790  Biso   1.000  F
  F6       1.0000 0.49410  0.12330  0.55210  Biso   1.000  F
  F7       1.0000 0.49410  0.37670  0.05210  Biso   1.000  F
  F8       1.0000 0.50590  0.87670  0.44790  Biso   1.000  F
  F9       1.0000 0.39360  0.78150  0.92560  Biso   1.000  F
  F10      1.0000 0.60640  0.28150  0.57440  Biso   1.000  F
  F11      1.0000 0.60640  0.21850  0.07440  Biso   1.000  F
  F12      1.0000 0.39360  0.71850  0.42560  Biso   1.000  F
  O1       1.0000 0.24610  0.48710  0.89450  Biso   1.000  O
  O2       1.0000 0.75390  0.98710  0.60550  Biso   1.000  O
  O3       1.0000 0.75390  0.51290  0.10550  Biso   1.000  O
  O4       1.0000 0.24610  0.01290  0.39450  Biso   1.000  O
  O5       1.0000 0.11810  0.66560  0.86590  Biso   1.000  O
  O6       1.0000 0.88190  0.16560  0.63410  Biso   1.000  O
  O7       1.0000 0.88190  0.33440  0.13410  Biso   1.000  O
  O8       1.0000 0.11810  0.83440  0.36590  Biso   1.000  O
  O9       1.0000 0.32830  0.61800  0.82470  Biso   1.000  O
  O10      1.0000 0.67170  0.11800  0.67530  Biso   1.000  O
  O11      1.0000 0.67170  0.38200  0.17530  Biso   1.000  O
  O12      1.0000 0.32830  0.88200  0.32470  Biso   1.000  O
  S1       1.0000 0.25351  0.60223  0.87243  Biso   1.000  S
  S2       1.0000 0.74649  0.10223  0.62757  Biso   1.000  S
  S3       1.0000 0.74649  0.39777  0.12757  Biso   1.000  S
  S4       1.0000 0.25351  0.89777  0.37243  Biso   1.000  S
  C45      1.0000 0.21650  0.52730  0.57160  Biso   1.000  C
  C46      1.0000 0.78350  0.02730  0.92840  Biso   1.000  C
  C47      1.0000 0.78350  0.47270  0.42840  Biso   1.000  C
  C48      1.0000 0.21650  0.97270  0.07160  Biso   1.000  C
  F13      1.0000 0.23100  0.41860  0.55610  Biso   1.000  F
  F14      1.0000 0.76900  0.91860  0.94390  Biso   1.000  F
  F15      1.0000 0.76900  0.58140  0.44390  Biso   1.000  F
  F16      1.0000 0.23100  0.08140  0.05610  Biso   1.000  F
  F17      1.0000 0.31420  0.58790  0.54910  Biso   1.000  F
  F18      1.0000 0.68580  0.08790  0.95090  Biso   1.000  F
  F19      1.0000 0.68580  0.41210  0.45090  Biso   1.000  F
  F20      1.0000 0.31420  0.91210  0.04910  Biso   1.000  F
  F21      1.0000 0.08400  0.56290  0.54480  Biso   1.000  F
  F22      1.0000 0.91600  0.06290  0.95520  Biso   1.000  F
  F23      1.0000 0.91600  0.43710  0.45520  Biso   1.000  F
  F24      1.0000 0.08400  0.93710  0.04480  Biso   1.000  F
  O13      1.0000 0.13820  0.46700  0.66720  Biso   1.000  O
  O14      1.0000 0.86180  0.96700  0.83280  Biso   1.000  O
  O15      1.0000 0.86180  0.53300  0.33280  Biso   1.000  O
  O16      1.0000 0.13820  0.03300  0.16720  Biso   1.000  O
  O17      1.0000 0.39500  0.50750  0.67420  Biso   1.000  O
  O18      1.0000 0.60500  0.00750  0.82580  Biso   1.000  O
  O19      1.0000 0.60500  0.49250  0.32580  Biso   1.000  O
  O20      1.0000 0.39500  0.99250  0.17420  Biso   1.000  O
  O21      1.0000 0.21880  0.66310  0.65890  Biso   1.000  O
  O22      1.0000 0.78120  0.16310  0.84110  Biso   1.000  O
  O23      1.0000 0.78120  0.33690  0.34110  Biso   1.000  O
  O24      1.0000 0.21880  0.83690  0.15890  Biso   1.000  O
  S5       1.0000 0.24683  0.54335  0.65203  Biso   1.000  S
  S6       1.0000 0.75317  0.04335  0.84797  Biso   1.000  S
  S7       1.0000 0.75317  0.45665  0.34797  Biso   1.000  S
  S8       1.0000 0.24683  0.95665  0.15203  Biso   1.000  S
  C49      1.0000 0.05070  0.32940  0.01720  Biso   1.000  C
  C50      1.0000 0.94930  0.82940  0.48280  Biso   1.000  C
  C51      1.0000 0.94930  0.67060  0.98280  Biso   1.000  C
  C52      1.0000 0.05070  0.17060  0.51720  Biso   1.000  C
  H101     1.0000 0.13660  0.37800  0.02950  Biso   1.000  H
  H102     1.0000 0.86340  0.87800  0.47050  Biso   1.000  H
  H103     1.0000 0.86340  0.62200  0.97050  Biso   1.000  H
  H104     1.0000 0.13660  0.12200  0.52950  Biso   1.000  H
  H105     1.0000 0.08200  0.25100  0.01140  Biso   1.000  H
  H106     1.0000 0.91800  0.75100  0.48860  Biso   1.000  H
  H107     1.0000 0.91800  0.74900  0.98860  Biso   1.000  H
  H108     1.0000 0.08200  0.24900  0.51140  Biso   1.000  H
  H109     1.0000 0.99130  0.33040  0.04820  Biso   1.000  H
  H110     1.0000 0.00870  0.83040  0.45180  Biso   1.000  H
  H111     1.0000 0.00870  0.66960  0.95180  Biso   1.000  H
  H112     1.0000 0.99130  0.16960  0.54820  Biso   1.000  H
  C53      1.0000 0.96440  0.37220  0.96120  Biso   1.000  C
  C54      1.0000 0.03560  0.87220  0.53880  Biso   1.000  C
  C55      1.0000 0.03560  0.62780  0.03880  Biso   1.000  C
  C56      1.0000 0.96440  0.12780  0.46120  Biso   1.000  C
  N21      1.0000 0.89680  0.40380  0.91680  Biso   1.000  N
  N22      1.0000 0.10320  0.90380  0.58320  Biso   1.000  N
  N23      1.0000 0.10320  0.59620  0.08320  Biso   1.000  N
  N24      1.0000 0.89680  0.09620  0.41680  Biso   1.000  N
