data_image0
_cell_length_a       15.833
_cell_length_b       9.33
_cell_length_c       15.152
_cell_angle_alpha    90
_cell_angle_beta     114.57
_cell_angle_gamma    90

_symmetry_space_group_name_H-M    "P 1"
_symmetry_int_tables_number       1

loop_
  _symmetry_equiv_pos_as_xyz
  'x, y, z'

loop_
  _atom_site_label
  _atom_site_occupancy
  _atom_site_fract_x
  _atom_site_fract_y
  _atom_site_fract_z
  _atom_site_thermal_displace_type
  _atom_site_B_iso_or_equiv
  _atom_site_type_symbol
  Cu1      1.0000 0.00000  0.33140  0.75000  Biso   1.000  Cu
  Cu2      1.0000 0.50000  0.83140  0.75000  Biso   1.000  Cu
  Cu3      1.0000 0.00000  0.66860  0.25000  Biso   1.000  Cu
  Cu4      1.0000 0.50000  0.16860  0.25000  Biso   1.000  Cu
  O1       1.0000 0.00650  0.36690  0.88020  Biso   1.000  O
  O2       1.0000 0.99350  0.36690  0.61980  Biso   1.000  O
  O3       1.0000 0.50650  0.86690  0.88020  Biso   1.000  O
  O4       1.0000 0.49350  0.86690  0.61980  Biso   1.000  O
  O5       1.0000 0.99350  0.63310  0.11980  Biso   1.000  O
  O6       1.0000 0.00650  0.63310  0.38020  Biso   1.000  O
  O7       1.0000 0.49350  0.13310  0.11980  Biso   1.000  O
  O8       1.0000 0.50650  0.13310  0.38020  Biso   1.000  O
  O9       1.0000 0.99790  0.12910  0.87910  Biso   1.000  O
  O10      1.0000 0.00210  0.12910  0.62090  Biso   1.000  O
  O11      1.0000 0.49790  0.62910  0.87910  Biso   1.000  O
  O12      1.0000 0.50210  0.62910  0.62090  Biso   1.000  O
  O13      1.0000 0.00210  0.87090  0.12090  Biso   1.000  O
  O14      1.0000 0.99790  0.87090  0.37910  Biso   1.000  O
  O15      1.0000 0.50210  0.37090  0.12090  Biso   1.000  O
  O16      1.0000 0.49790  0.37090  0.37910  Biso   1.000  O
  N1       1.0000 0.07300  0.14270  0.08440  Biso   1.000  N
  N2       1.0000 0.92700  0.14270  0.41560  Biso   1.000  N
  N3       1.0000 0.57300  0.64270  0.08440  Biso   1.000  N
  N4       1.0000 0.42700  0.64270  0.41560  Biso   1.000  N
  N5       1.0000 0.92700  0.85730  0.91560  Biso   1.000  N
  N6       1.0000 0.07300  0.85730  0.58440  Biso   1.000  N
  N7       1.0000 0.42700  0.35730  0.91560  Biso   1.000  N
  N8       1.0000 0.57300  0.35730  0.58440  Biso   1.000  N
  H1       1.0000 0.05080  0.06850  0.10100  Biso   1.000  H
  H2       1.0000 0.94920  0.06850  0.39900  Biso   1.000  H
  H3       1.0000 0.55080  0.56850  0.10100  Biso   1.000  H
  H4       1.0000 0.44920  0.56850  0.39900  Biso   1.000  H
  H5       1.0000 0.94920  0.93150  0.89900  Biso   1.000  H
  H6       1.0000 0.05080  0.93150  0.60100  Biso   1.000  H
  H7       1.0000 0.44920  0.43150  0.89900  Biso   1.000  H
  H8       1.0000 0.55080  0.43150  0.60100  Biso   1.000  H
  N9       1.0000 0.36500  0.17130  0.19990  Biso   1.000  N
  N10      1.0000 0.63500  0.17130  0.30010  Biso   1.000  N
  N11      1.0000 0.86500  0.67130  0.19990  Biso   1.000  N
  N12      1.0000 0.13500  0.67130  0.30010  Biso   1.000  N
  N13      1.0000 0.63500  0.82870  0.80010  Biso   1.000  N
  N14      1.0000 0.36500  0.82870  0.69990  Biso   1.000  N
  N15      1.0000 0.13500  0.32870  0.80010  Biso   1.000  N
  N16      1.0000 0.86500  0.32870  0.69990  Biso   1.000  N
  C1       1.0000 0.31900  0.06360  0.21620  Biso   1.000  C
  C2       1.0000 0.68100  0.06360  0.28380  Biso   1.000  C
  C3       1.0000 0.81900  0.56360  0.21620  Biso   1.000  C
  C4       1.0000 0.18100  0.56360  0.28380  Biso   1.000  C
  C5       1.0000 0.68100  0.93640  0.78380  Biso   1.000  C
  C6       1.0000 0.31900  0.93640  0.71620  Biso   1.000  C
  C7       1.0000 0.18100  0.43640  0.78380  Biso   1.000  C
  C8       1.0000 0.81900  0.43640  0.71620  Biso   1.000  C
  H9       1.0000 0.35430  0.99100  0.25700  Biso   1.000  H
  H10      1.0000 0.64570  0.99100  0.24300  Biso   1.000  H
  H11      1.0000 0.85430  0.49100  0.25700  Biso   1.000  H
  H12      1.0000 0.14570  0.49100  0.24300  Biso   1.000  H
  H13      1.0000 0.64570  0.00900  0.74300  Biso   1.000  H
  H14      1.0000 0.35430  0.00900  0.75700  Biso   1.000  H
  H15      1.0000 0.14570  0.50900  0.74300  Biso   1.000  H
  H16      1.0000 0.85430  0.50900  0.75700  Biso   1.000  H
  C9       1.0000 0.22450  0.04860  0.17900  Biso   1.000  C
  C10      1.0000 0.77550  0.04860  0.32100  Biso   1.000  C
  C11      1.0000 0.72450  0.54860  0.17900  Biso   1.000  C
  C12      1.0000 0.27550  0.54860  0.32100  Biso   1.000  C
  C13      1.0000 0.77550  0.95140  0.82100  Biso   1.000  C
  C14      1.0000 0.22450  0.95140  0.67900  Biso   1.000  C
  C15      1.0000 0.27550  0.45140  0.82100  Biso   1.000  C
  C16      1.0000 0.72450  0.45140  0.67900  Biso   1.000  C
  H17      1.0000 0.19750  0.96790  0.19260  Biso   1.000  H
  H18      1.0000 0.80250  0.96790  0.30740  Biso   1.000  H
  H19      1.0000 0.69750  0.46790  0.19260  Biso   1.000  H
  H20      1.0000 0.30250  0.46790  0.30740  Biso   1.000  H
  H21      1.0000 0.80250  0.03210  0.80740  Biso   1.000  H
  H22      1.0000 0.19750  0.03210  0.69260  Biso   1.000  H
  H23      1.0000 0.30250  0.53210  0.80740  Biso   1.000  H
  H24      1.0000 0.69750  0.53210  0.69260  Biso   1.000  H
  C17      1.0000 0.16970  0.15880  0.11960  Biso   1.000  C
  C18      1.0000 0.83030  0.15880  0.38040  Biso   1.000  C
  C19      1.0000 0.66970  0.65880  0.11960  Biso   1.000  C
  C20      1.0000 0.33030  0.65880  0.38040  Biso   1.000  C
  C21      1.0000 0.83030  0.84120  0.88040  Biso   1.000  C
  C22      1.0000 0.16970  0.84120  0.61960  Biso   1.000  C
  C23      1.0000 0.33030  0.34120  0.88040  Biso   1.000  C
  C24      1.0000 0.66970  0.34120  0.61960  Biso   1.000  C
  C25      1.0000 0.21280  0.25320  0.10070  Biso   1.000  C
  C26      1.0000 0.78720  0.25320  0.39930  Biso   1.000  C
  C27      1.0000 0.71280  0.75320  0.10070  Biso   1.000  C
  C28      1.0000 0.28720  0.75320  0.39930  Biso   1.000  C
  C29      1.0000 0.78720  0.74680  0.89930  Biso   1.000  C
  C30      1.0000 0.21280  0.74680  0.60070  Biso   1.000  C
  C31      1.0000 0.28720  0.24680  0.89930  Biso   1.000  C
  C32      1.0000 0.71280  0.24680  0.60070  Biso   1.000  C
  H25      1.0000 0.18030  0.32460  0.05690  Biso   1.000  H
  H26      1.0000 0.81970  0.32460  0.44310  Biso   1.000  H
  H27      1.0000 0.68030  0.82460  0.05690  Biso   1.000  H
  H28      1.0000 0.31970  0.82460  0.44310  Biso   1.000  H
  H29      1.0000 0.81970  0.67540  0.94310  Biso   1.000  H
  H30      1.0000 0.18030  0.67540  0.55690  Biso   1.000  H
  H31      1.0000 0.31970  0.17540  0.94310  Biso   1.000  H
  H32      1.0000 0.68030  0.17540  0.55690  Biso   1.000  H
  C33      1.0000 0.31250  0.25700  0.14420  Biso   1.000  C
  C34      1.0000 0.68750  0.25700  0.35580  Biso   1.000  C
  C35      1.0000 0.81250  0.75700  0.14420  Biso   1.000  C
  C36      1.0000 0.18750  0.75700  0.35580  Biso   1.000  C
  C37      1.0000 0.68750  0.74300  0.85580  Biso   1.000  C
  C38      1.0000 0.31250  0.74300  0.64420  Biso   1.000  C
  C39      1.0000 0.18750  0.24300  0.85580  Biso   1.000  C
  C40      1.0000 0.81250  0.24300  0.64420  Biso   1.000  C
  H33      1.0000 0.33980  0.33450  0.12750  Biso   1.000  H
  H34      1.0000 0.66020  0.33450  0.37250  Biso   1.000  H
  H35      1.0000 0.83980  0.83450  0.12750  Biso   1.000  H
  H36      1.0000 0.16020  0.83450  0.37250  Biso   1.000  H
  H37      1.0000 0.66020  0.66550  0.87250  Biso   1.000  H
  H38      1.0000 0.33980  0.66550  0.62750  Biso   1.000  H
  H39      1.0000 0.16020  0.16550  0.87250  Biso   1.000  H
  H40      1.0000 0.83980  0.16550  0.62750  Biso   1.000  H
  C41      1.0000 0.01240  0.24360  0.02370  Biso   1.000  C
  C42      1.0000 0.98760  0.24360  0.47630  Biso   1.000  C
  C43      1.0000 0.51240  0.74360  0.02370  Biso   1.000  C
  C44      1.0000 0.48760  0.74360  0.47630  Biso   1.000  C
  C45      1.0000 0.98760  0.75640  0.97630  Biso   1.000  C
  C46      1.0000 0.01240  0.75640  0.52370  Biso   1.000  C
  C47      1.0000 0.48760  0.25640  0.97630  Biso   1.000  C
  C48      1.0000 0.51240  0.25640  0.52370  Biso   1.000  C
  H41      1.0000 0.03660  0.33660  0.05360  Biso   1.000  H
  H42      1.0000 0.96340  0.33660  0.44640  Biso   1.000  H
  H43      1.0000 0.53660  0.83660  0.05360  Biso   1.000  H
  H44      1.0000 0.46340  0.83660  0.44640  Biso   1.000  H
  H45      1.0000 0.96340  0.66340  0.94640  Biso   1.000  H
  H46      1.0000 0.03660  0.66340  0.55360  Biso   1.000  H
  H47      1.0000 0.46340  0.16340  0.94640  Biso   1.000  H
  H48      1.0000 0.53660  0.16340  0.55360  Biso   1.000  H
  C49      1.0000 0.91580  0.23000  0.02570  Biso   1.000  C
  C50      1.0000 0.08420  0.23000  0.47430  Biso   1.000  C
  C51      1.0000 0.41580  0.73000  0.02570  Biso   1.000  C
  C52      1.0000 0.58420  0.73000  0.47430  Biso   1.000  C
  C53      1.0000 0.08420  0.77000  0.97430  Biso   1.000  C
  C54      1.0000 0.91580  0.77000  0.52570  Biso   1.000  C
  C55      1.0000 0.58420  0.27000  0.97430  Biso   1.000  C
  C56      1.0000 0.41580  0.27000  0.52570  Biso   1.000  C
  H49      1.0000 0.89200  0.13400  0.00210  Biso   1.000  H
  H50      1.0000 0.10800  0.13400  0.49790  Biso   1.000  H
  H51      1.0000 0.39200  0.63400  0.00210  Biso   1.000  H
  H52      1.0000 0.60800  0.63400  0.49790  Biso   1.000  H
  H53      1.0000 0.10800  0.86600  0.99790  Biso   1.000  H
  H54      1.0000 0.89200  0.86600  0.50210  Biso   1.000  H
  H55      1.0000 0.60800  0.36600  0.99790  Biso   1.000  H
  H56      1.0000 0.39200  0.36600  0.50210  Biso   1.000  H
  C57      1.0000 0.00670  0.25400  0.91740  Biso   1.000  C
  C58      1.0000 0.99330  0.25400  0.58260  Biso   1.000  C
  C59      1.0000 0.50670  0.75400  0.91740  Biso   1.000  C
  C60      1.0000 0.49330  0.75400  0.58260  Biso   1.000  C
  C61      1.0000 0.99330  0.74600  0.08260  Biso   1.000  C
  C62      1.0000 0.00670  0.74600  0.41740  Biso   1.000  C
  C63      1.0000 0.49330  0.24600  0.08260  Biso   1.000  C
  C64      1.0000 0.50670  0.24600  0.41740  Biso   1.000  C
  C65      1.0000 0.85060  0.33450  0.95940  Biso   1.000  C
  C66      1.0000 0.14940  0.33450  0.54060  Biso   1.000  C
  C67      1.0000 0.35060  0.83450  0.95940  Biso   1.000  C
  C68      1.0000 0.64940  0.83450  0.54060  Biso   1.000  C
  C69      1.0000 0.14940  0.66550  0.04060  Biso   1.000  C
  C70      1.0000 0.85060  0.66550  0.45940  Biso   1.000  C
  C71      1.0000 0.64940  0.16550  0.04060  Biso   1.000  C
  C72      1.0000 0.35060  0.16550  0.45940  Biso   1.000  C
  H57      1.0000 0.84840  0.32280  0.89550  Biso   1.000  H
  H58      1.0000 0.15160  0.32280  0.60450  Biso   1.000  H
  H59      1.0000 0.34840  0.82280  0.89550  Biso   1.000  H
  H60      1.0000 0.65160  0.82280  0.60450  Biso   1.000  H
  H61      1.0000 0.15160  0.67720  0.10450  Biso   1.000  H
  H62      1.0000 0.84840  0.67720  0.39550  Biso   1.000  H
  H63      1.0000 0.65160  0.17720  0.10450  Biso   1.000  H
  H64      1.0000 0.34840  0.17720  0.39550  Biso   1.000  H
  H65      1.0000 0.78980  0.31900  0.95720  Biso   1.000  H
  H66      1.0000 0.21020  0.31900  0.54280  Biso   1.000  H
  H67      1.0000 0.28980  0.81900  0.95720  Biso   1.000  H
  H68      1.0000 0.71020  0.81900  0.54280  Biso   1.000  H
  H69      1.0000 0.21020  0.68100  0.04280  Biso   1.000  H
  H70      1.0000 0.78980  0.68100  0.45720  Biso   1.000  H
  H71      1.0000 0.71020  0.18100  0.04280  Biso   1.000  H
  H72      1.0000 0.28980  0.18100  0.45720  Biso   1.000  H
  H73      1.0000 0.87090  0.42990  0.98220  Biso   1.000  H
  H74      1.0000 0.12910  0.42990  0.51780  Biso   1.000  H
  H75      1.0000 0.37090  0.92990  0.98220  Biso   1.000  H
  H76      1.0000 0.62910  0.92990  0.51780  Biso   1.000  H
  H77      1.0000 0.12910  0.57010  0.01780  Biso   1.000  H
  H78      1.0000 0.87090  0.57010  0.48220  Biso   1.000  H
  H79      1.0000 0.62910  0.07010  0.01780  Biso   1.000  H
  H80      1.0000 0.37090  0.07010  0.48220  Biso   1.000  H
  C73      1.0000 0.92460  0.24260  0.12950  Biso   1.000  C
  C74      1.0000 0.07540  0.24260  0.37050  Biso   1.000  C
  C75      1.0000 0.42460  0.74260  0.12950  Biso   1.000  C
  C76      1.0000 0.57540  0.74260  0.37050  Biso   1.000  C
  C77      1.0000 0.07540  0.75740  0.87050  Biso   1.000  C
  C78      1.0000 0.92460  0.75740  0.62950  Biso   1.000  C
  C79      1.0000 0.57540  0.25740  0.87050  Biso   1.000  C
  C80      1.0000 0.42460  0.25740  0.62950  Biso   1.000  C
  H81      1.0000 0.86480  0.22830  0.13010  Biso   1.000  H
  H82      1.0000 0.13520  0.22830  0.36990  Biso   1.000  H
  H83      1.0000 0.36480  0.72830  0.13010  Biso   1.000  H
  H84      1.0000 0.63520  0.72830  0.36990  Biso   1.000  H
  H85      1.0000 0.13520  0.77170  0.86990  Biso   1.000  H
  H86      1.0000 0.86480  0.77170  0.63010  Biso   1.000  H
  H87      1.0000 0.63520  0.27170  0.86990  Biso   1.000  H
  H88      1.0000 0.36480  0.27170  0.63010  Biso   1.000  H
  H89      1.0000 0.96700  0.17120  0.16930  Biso   1.000  H
  H90      1.0000 0.03300  0.17120  0.33070  Biso   1.000  H
  H91      1.0000 0.46700  0.67120  0.16930  Biso   1.000  H
  H92      1.0000 0.53300  0.67120  0.33070  Biso   1.000  H
  H93      1.0000 0.03300  0.82880  0.83070  Biso   1.000  H
  H94      1.0000 0.96700  0.82880  0.66930  Biso   1.000  H
  H95      1.0000 0.53300  0.32880  0.83070  Biso   1.000  H
  H96      1.0000 0.46700  0.32880  0.66930  Biso   1.000  H
  H97      1.0000 0.94740  0.33620  0.15440  Biso   1.000  H
  H98      1.0000 0.05260  0.33620  0.34560  Biso   1.000  H
  H99      1.0000 0.44740  0.83620  0.15440  Biso   1.000  H
  H100     1.0000 0.55260  0.83620  0.34560  Biso   1.000  H
  H101     1.0000 0.05260  0.66380  0.84560  Biso   1.000  H
  H102     1.0000 0.94740  0.66380  0.65440  Biso   1.000  H
  H103     1.0000 0.55260  0.16380  0.84560  Biso   1.000  H
  H104     1.0000 0.44740  0.16380  0.65440  Biso   1.000  H
  Cu5      1.0000 0.00000  0.20100  0.75000  Biso   1.000  Cu
  Cu6      1.0000 0.50000  0.70100  0.75000  Biso   1.000  Cu
  Cu7      1.0000 0.00000  0.79900  0.25000  Biso   1.000  Cu
  Cu8      1.0000 0.50000  0.29900  0.25000  Biso   1.000  Cu
