data_image0
_cell_length_a       11.2119
_cell_length_b       9.7392
_cell_length_c       20.4526
_cell_angle_alpha    90
_cell_angle_beta     95.916
_cell_angle_gamma    90

_symmetry_space_group_name_H-M    "P 1"
_symmetry_int_tables_number       1

loop_
  _symmetry_equiv_pos_as_xyz
  'x, y, z'

loop_
  _atom_site_label
  _atom_site_occupancy
  _atom_site_fract_x
  _atom_site_fract_y
  _atom_site_fract_z
  _atom_site_thermal_displace_type
  _atom_site_B_iso_or_equiv
  _atom_site_type_symbol
  Cu1      1.0000 0.59903  0.62343  0.12077  Biso   1.000  Cu
  Cu2      1.0000 0.90097  0.12343  0.37923  Biso   1.000  Cu
  Cu3      1.0000 0.40097  0.37657  0.87923  Biso   1.000  Cu
  Cu4      1.0000 0.09903  0.87657  0.62077  Biso   1.000  Cu
  C1       1.0000 0.50141  0.34645  0.13614  Biso   1.000  C
  C2       1.0000 0.99859  0.84645  0.36386  Biso   1.000  C
  C3       1.0000 0.49859  0.65355  0.86386  Biso   1.000  C
  C4       1.0000 0.00141  0.15355  0.63614  Biso   1.000  C
  H1       1.0000 0.47430  0.35740  0.09090  Biso   1.000  H
  H2       1.0000 0.02570  0.85740  0.40910  Biso   1.000  H
  H3       1.0000 0.52570  0.64260  0.90910  Biso   1.000  H
  H4       1.0000 0.97430  0.14260  0.59090  Biso   1.000  H
  C5       1.0000 0.47440  0.22570  0.16749  Biso   1.000  C
  C6       1.0000 0.02560  0.72570  0.33251  Biso   1.000  C
  C7       1.0000 0.52560  0.77430  0.83251  Biso   1.000  C
  C8       1.0000 0.97440  0.27430  0.66749  Biso   1.000  C
  H5       1.0000 0.42900  0.15580  0.14400  Biso   1.000  H
  H6       1.0000 0.07100  0.65580  0.35600  Biso   1.000  H
  H7       1.0000 0.57100  0.84420  0.85600  Biso   1.000  H
  H8       1.0000 0.92900  0.34420  0.64400  Biso   1.000  H
  C9       1.0000 0.51379  0.20802  0.23272  Biso   1.000  C
  C10      1.0000 0.98621  0.70802  0.26728  Biso   1.000  C
  C11      1.0000 0.48621  0.79198  0.76728  Biso   1.000  C
  C12      1.0000 0.01379  0.29198  0.73272  Biso   1.000  C
  H9       1.0000 0.49530  0.12670  0.25530  Biso   1.000  H
  H10      1.0000 0.00470  0.62670  0.24470  Biso   1.000  H
  H11      1.0000 0.50470  0.87330  0.74470  Biso   1.000  H
  H12      1.0000 0.99530  0.37330  0.75530  Biso   1.000  H
  C13      1.0000 0.58064  0.31087  0.26459  Biso   1.000  C
  C14      1.0000 0.91936  0.81087  0.23541  Biso   1.000  C
  C15      1.0000 0.41936  0.68913  0.73541  Biso   1.000  C
  C16      1.0000 0.08064  0.18913  0.76459  Biso   1.000  C
  H13      1.0000 0.61140  0.30050  0.30940  Biso   1.000  H
  H14      1.0000 0.88860  0.80050  0.19060  Biso   1.000  H
  H15      1.0000 0.38860  0.69950  0.69060  Biso   1.000  H
  H16      1.0000 0.11140  0.19950  0.80940  Biso   1.000  H
  C17      1.0000 0.60257  0.42996  0.23064  Biso   1.000  C
  C18      1.0000 0.89743  0.92996  0.26936  Biso   1.000  C
  C19      1.0000 0.39743  0.57004  0.76936  Biso   1.000  C
  C20      1.0000 0.10257  0.07004  0.73064  Biso   1.000  C
  H17      1.0000 0.64670  0.50180  0.25340  Biso   1.000  H
  H18      1.0000 0.85330  0.00180  0.24660  Biso   1.000  H
  H19      1.0000 0.35330  0.49820  0.74660  Biso   1.000  H
  H20      1.0000 0.14670  0.99820  0.75340  Biso   1.000  H
  N1       1.0000 0.56400  0.44753  0.16719  Biso   1.000  N
  N2       1.0000 0.93600  0.94753  0.33281  Biso   1.000  N
  N3       1.0000 0.43600  0.55247  0.83281  Biso   1.000  N
  N4       1.0000 0.06400  0.05247  0.66719  Biso   1.000  N
  C21      1.0000 0.67198  0.91571  0.12540  Biso   1.000  C
  C22      1.0000 0.82802  0.41571  0.37460  Biso   1.000  C
  C23      1.0000 0.32802  0.08429  0.87460  Biso   1.000  C
  C24      1.0000 0.17198  0.58429  0.62540  Biso   1.000  C
  H21      1.0000 0.66470  0.90600  0.17100  Biso   1.000  H
  H22      1.0000 0.83530  0.40600  0.32900  Biso   1.000  H
  H23      1.0000 0.33530  0.09400  0.82900  Biso   1.000  H
  H24      1.0000 0.16470  0.59400  0.67100  Biso   1.000  H
  C25      1.0000 0.70154  0.04359  0.10151  Biso   1.000  C
  C26      1.0000 0.79846  0.54359  0.39849  Biso   1.000  C
  C27      1.0000 0.29846  0.95641  0.89849  Biso   1.000  C
  C28      1.0000 0.20154  0.45641  0.60151  Biso   1.000  C
  H25      1.0000 0.71620  0.11930  0.13050  Biso   1.000  H
  H26      1.0000 0.78380  0.61930  0.36950  Biso   1.000  H
  H27      1.0000 0.28380  0.88070  0.86950  Biso   1.000  H
  H28      1.0000 0.21620  0.38070  0.63050  Biso   1.000  H
  C29      1.0000 0.70922  0.05878  0.03497  Biso   1.000  C
  C30      1.0000 0.79078  0.55878  0.46503  Biso   1.000  C
  C31      1.0000 0.29078  0.94122  0.96503  Biso   1.000  C
  C32      1.0000 0.20922  0.44122  0.53497  Biso   1.000  C
  H29      1.0000 0.72770  0.14550  0.01730  Biso   1.000  H
  H30      1.0000 0.77230  0.64550  0.48270  Biso   1.000  H
  H31      1.0000 0.27230  0.85450  0.98270  Biso   1.000  H
  H32      1.0000 0.22770  0.35450  0.51730  Biso   1.000  H
  C33      1.0000 0.68969  0.94670  0.99468  Biso   1.000  C
  C34      1.0000 0.81031  0.44670  0.50532  Biso   1.000  C
  C35      1.0000 0.31031  0.05330  0.00532  Biso   1.000  C
  C36      1.0000 0.18969  0.55330  0.49468  Biso   1.000  C
  H33      1.0000 0.69380  0.95490  0.94870  Biso   1.000  H
  H34      1.0000 0.80620  0.45490  0.55130  Biso   1.000  H
  H35      1.0000 0.30620  0.04510  0.05130  Biso   1.000  H
  H36      1.0000 0.19380  0.54510  0.44870  Biso   1.000  H
  C37      1.0000 0.66374  0.82061  0.02212  Biso   1.000  C
  C38      1.0000 0.83626  0.32061  0.47788  Biso   1.000  C
  C39      1.0000 0.33626  0.17939  0.97788  Biso   1.000  C
  C40      1.0000 0.16374  0.67939  0.52212  Biso   1.000  C
  H37      1.0000 0.65310  0.74260  0.99420  Biso   1.000  H
  H38      1.0000 0.84690  0.24260  0.50580  Biso   1.000  H
  H39      1.0000 0.34690  0.25740  0.00580  Biso   1.000  H
  H40      1.0000 0.15310  0.75740  0.49420  Biso   1.000  H
  N5       1.0000 0.65324  0.80525  0.08618  Biso   1.000  N
  N6       1.0000 0.84676  0.30525  0.41382  Biso   1.000  N
  N7       1.0000 0.34676  0.19475  0.91382  Biso   1.000  N
  N8       1.0000 0.15324  0.69475  0.58618  Biso   1.000  N
  C41      1.0000 0.41950  0.79625  0.16837  Biso   1.000  C
  C42      1.0000 0.08050  0.29625  0.33163  Biso   1.000  C
  C43      1.0000 0.58050  0.20375  0.83163  Biso   1.000  C
  C44      1.0000 0.91950  0.70375  0.66837  Biso   1.000  C
  C45      1.0000 0.36638  0.86822  0.22361  Biso   1.000  C
  C46      1.0000 0.13362  0.36822  0.27639  Biso   1.000  C
  C47      1.0000 0.63362  0.13178  0.77639  Biso   1.000  C
  C48      1.0000 0.86638  0.63178  0.72361  Biso   1.000  C
  C49      1.0000 0.26088  0.94329  0.20678  Biso   1.000  C
  C50      1.0000 0.23912  0.44329  0.29322  Biso   1.000  C
  C51      1.0000 0.73912  0.05671  0.79322  Biso   1.000  C
  C52      1.0000 0.76088  0.55671  0.70678  Biso   1.000  C
  H41      1.0000 0.22740  0.94480  0.16220  Biso   1.000  H
  H42      1.0000 0.27260  0.44480  0.33780  Biso   1.000  H
  H43      1.0000 0.77260  0.05520  0.83780  Biso   1.000  H
  H44      1.0000 0.72740  0.55520  0.66220  Biso   1.000  H
  C53      1.0000 0.20401  0.01512  0.25298  Biso   1.000  C
  C54      1.0000 0.29599  0.51512  0.24702  Biso   1.000  C
  C55      1.0000 0.79599  0.98488  0.74702  Biso   1.000  C
  C56      1.0000 0.70401  0.48488  0.75298  Biso   1.000  C
  H45      1.0000 0.13270  0.06540  0.24050  Biso   1.000  H
  H46      1.0000 0.36730  0.56540  0.25950  Biso   1.000  H
  H47      1.0000 0.86730  0.93460  0.75950  Biso   1.000  H
  H48      1.0000 0.63270  0.43460  0.74050  Biso   1.000  H
  C57      1.0000 0.25356  0.01201  0.31810  Biso   1.000  C
  C58      1.0000 0.24644  0.51201  0.18190  Biso   1.000  C
  C59      1.0000 0.74644  0.98799  0.68190  Biso   1.000  C
  C60      1.0000 0.75356  0.48799  0.81810  Biso   1.000  C
  H49      1.0000 0.21610  0.06110  0.35050  Biso   1.000  H
  H50      1.0000 0.28390  0.56110  0.14950  Biso   1.000  H
  H51      1.0000 0.78390  0.93890  0.64950  Biso   1.000  H
  H52      1.0000 0.71610  0.43890  0.85050  Biso   1.000  H
  C61      1.0000 0.35720  0.93785  0.33608  Biso   1.000  C
  C62      1.0000 0.14280  0.43785  0.16392  Biso   1.000  C
  C63      1.0000 0.64280  0.06215  0.66392  Biso   1.000  C
  C64      1.0000 0.85720  0.56215  0.83608  Biso   1.000  C
  H53      1.0000 0.38970  0.93710  0.38080  Biso   1.000  H
  H54      1.0000 0.11030  0.43710  0.11920  Biso   1.000  H
  H55      1.0000 0.61030  0.06290  0.61920  Biso   1.000  H
  H56      1.0000 0.88970  0.56290  0.88080  Biso   1.000  H
  C65      1.0000 0.41515  0.86393  0.28986  Biso   1.000  C
  C66      1.0000 0.08485  0.36393  0.21014  Biso   1.000  C
  C67      1.0000 0.58485  0.13607  0.71014  Biso   1.000  C
  C68      1.0000 0.91515  0.63607  0.78986  Biso   1.000  C
  C69      1.0000 0.55383  0.78623  0.40353  Biso   1.000  C
  C70      1.0000 0.94617  0.28623  0.09647  Biso   1.000  C
  C71      1.0000 0.44617  0.21377  0.59647  Biso   1.000  C
  C72      1.0000 0.05383  0.71377  0.90353  Biso   1.000  C
  C73      1.0000 0.49125  0.69152  0.43831  Biso   1.000  C
  C74      1.0000 0.00875  0.19152  0.06169  Biso   1.000  C
  C75      1.0000 0.50875  0.30848  0.56169  Biso   1.000  C
  C76      1.0000 0.99125  0.80848  0.93831  Biso   1.000  C
  H57      1.0000 0.44430  0.62270  0.41500  Biso   1.000  H
  H58      1.0000 0.05570  0.12270  0.08500  Biso   1.000  H
  H59      1.0000 0.55570  0.37730  0.58500  Biso   1.000  H
  H60      1.0000 0.94430  0.87730  0.91500  Biso   1.000  H
  C77      1.0000 0.49663  0.69645  0.50654  Biso   1.000  C
  C78      1.0000 0.00337  0.19645  0.99346  Biso   1.000  C
  C79      1.0000 0.50337  0.30355  0.49346  Biso   1.000  C
  C80      1.0000 0.99663  0.80355  0.00654  Biso   1.000  C
  H61      1.0000 0.45220  0.63260  0.52950  Biso   1.000  H
  H62      1.0000 0.04780  0.13260  0.97050  Biso   1.000  H
  H63      1.0000 0.54780  0.36740  0.47050  Biso   1.000  H
  H64      1.0000 0.95220  0.86740  0.02950  Biso   1.000  H
  C81      1.0000 0.56710  0.79495  0.54102  Biso   1.000  C
  C82      1.0000 0.93290  0.29495  0.95898  Biso   1.000  C
  C83      1.0000 0.43290  0.20505  0.45898  Biso   1.000  C
  C84      1.0000 0.06710  0.70505  0.04102  Biso   1.000  C
  H65      1.0000 0.57080  0.79930  0.58760  Biso   1.000  H
  H66      1.0000 0.92920  0.29930  0.91240  Biso   1.000  H
  H67      1.0000 0.42920  0.20070  0.41240  Biso   1.000  H
  H68      1.0000 0.07080  0.70070  0.08760  Biso   1.000  H
  C85      1.0000 0.63210  0.88702  0.50689  Biso   1.000  C
  C86      1.0000 0.86790  0.38702  0.99311  Biso   1.000  C
  C87      1.0000 0.36790  0.11298  0.49311  Biso   1.000  C
  C88      1.0000 0.13210  0.61298  0.00689  Biso   1.000  C
  H69      1.0000 0.68190  0.95270  0.53080  Biso   1.000  H
  H70      1.0000 0.81810  0.45270  0.96920  Biso   1.000  H
  H71      1.0000 0.31810  0.04730  0.46920  Biso   1.000  H
  H72      1.0000 0.18190  0.54730  0.03080  Biso   1.000  H
  C89      1.0000 0.62613  0.88554  0.43816  Biso   1.000  C
  C90      1.0000 0.87387  0.38554  0.06184  Biso   1.000  C
  C91      1.0000 0.37387  0.11446  0.56184  Biso   1.000  C
  C92      1.0000 0.12613  0.61446  0.93816  Biso   1.000  C
  C93      1.0000 0.69755  0.99185  0.40489  Biso   1.000  C
  C94      1.0000 0.80245  0.49185  0.09511  Biso   1.000  C
  C95      1.0000 0.30245  0.00815  0.59511  Biso   1.000  C
  C96      1.0000 0.19755  0.50815  0.90489  Biso   1.000  C
  O1       1.0000 0.51114  0.72039  0.18486  Biso   1.000  O
  O2       1.0000 0.98886  0.22039  0.31514  Biso   1.000  O
  O3       1.0000 0.48886  0.27961  0.81514  Biso   1.000  O
  O4       1.0000 0.01114  0.77961  0.68486  Biso   1.000  O
  O5       1.0000 0.37208  0.81350  0.11111  Biso   1.000  O
  O6       1.0000 0.12792  0.31350  0.38889  Biso   1.000  O
  O7       1.0000 0.62792  0.18650  0.88889  Biso   1.000  O
  O8       1.0000 0.87208  0.68650  0.61111  Biso   1.000  O
  O9       1.0000 0.65774  0.04823  0.35369  Biso   1.000  O
  O10      1.0000 0.84226  0.54823  0.14631  Biso   1.000  O
  O11      1.0000 0.34226  0.95177  0.64631  Biso   1.000  O
  O12      1.0000 0.15774  0.45177  0.85369  Biso   1.000  O
  O13      1.0000 0.80270  0.01735  0.43544  Biso   1.000  O
  O14      1.0000 0.69730  0.51735  0.06456  Biso   1.000  O
  O15      1.0000 0.19730  0.98265  0.56456  Biso   1.000  O
  O16      1.0000 0.30270  0.48265  0.93544  Biso   1.000  O
  S1       1.0000 0.54590  0.76579  0.31604  Biso   1.000  S
  S2       1.0000 0.95410  0.26579  0.18396  Biso   1.000  S
  S3       1.0000 0.45410  0.23421  0.68396  Biso   1.000  S
  S4       1.0000 0.04590  0.73421  0.81604  Biso   1.000  S
  O17      1.0000 0.44637  0.61496  0.03594  Biso   1.000  O
  O18      1.0000 0.05363  0.11496  0.46406  Biso   1.000  O
  O19      1.0000 0.55363  0.38504  0.96406  Biso   1.000  O
  O20      1.0000 0.94637  0.88504  0.53594  Biso   1.000  O
  H73      1.0000 0.40800  0.67500  0.05040  Biso   1.000  H
  H74      1.0000 0.09200  0.17500  0.44960  Biso   1.000  H
  H75      1.0000 0.59200  0.32500  0.94960  Biso   1.000  H
  H76      1.0000 0.90800  0.82500  0.55040  Biso   1.000  H
  H77      1.0000 0.40600  0.57700  0.01000  Biso   1.000  H
  H78      1.0000 0.09400  0.07700  0.49000  Biso   1.000  H
  H79      1.0000 0.59400  0.42300  0.99000  Biso   1.000  H
  H80      1.0000 0.90600  0.92300  0.51000  Biso   1.000  H
