data_image0
_cell_length_a       10.367
_cell_length_b       11.273
_cell_length_c       14.707
_cell_angle_alpha    75.84
_cell_angle_beta     85.05
_cell_angle_gamma    85.44

_symmetry_space_group_name_H-M    "P 1"
_symmetry_int_tables_number       1

loop_
  _symmetry_equiv_pos_as_xyz
  'x, y, z'

loop_
  _atom_site_label
  _atom_site_occupancy
  _atom_site_fract_x
  _atom_site_fract_y
  _atom_site_fract_z
  _atom_site_thermal_displace_type
  _atom_site_B_iso_or_equiv
  _atom_site_type_symbol
  Cu1      1.0000 0.00000  0.50000  0.00000  Biso   1.000  Cu
  F1       1.0000 0.21080  0.13090  0.10480  Biso   1.000  F
  F2       1.0000 0.78920  0.86910  0.89520  Biso   1.000  F
  F3       1.0000 0.05830  0.02330  0.08930  Biso   1.000  F
  F4       1.0000 0.94170  0.97670  0.91070  Biso   1.000  F
  F5       1.0000 0.18070  0.09870  0.97140  Biso   1.000  F
  F6       1.0000 0.81930  0.90130  0.02860  Biso   1.000  F
  C1       1.0000 0.12080  0.12360  0.05100  Biso   1.000  C
  C2       1.0000 0.87920  0.87640  0.94900  Biso   1.000  C
  C3       1.0000 0.03200  0.24040  0.02580  Biso   1.000  C
  C4       1.0000 0.96800  0.75960  0.97420  Biso   1.000  C
  O1       1.0000 0.08900  0.33650  0.02345  Biso   1.000  O
  O2       1.0000 0.91100  0.66350  0.97655  Biso   1.000  O
  C5       1.0000 0.90650  0.22820  0.00790  Biso   1.000  C
  C6       1.0000 0.09350  0.77180  0.99210  Biso   1.000  C
  H1       1.0000 0.88000  0.14950  0.01450  Biso   1.000  H
  H2       1.0000 0.12000  0.85050  0.98550  Biso   1.000  H
  C7       1.0000 0.81440  0.32810  0.98000  Biso   1.000  C
  C8       1.0000 0.18560  0.67190  0.02000  Biso   1.000  C
  O3       1.0000 0.83700  0.43780  0.97430  Biso   1.000  O
  O4       1.0000 0.16300  0.56220  0.02570  Biso   1.000  O
  C9       1.0000 0.68400  0.30550  0.95450  Biso   1.000  C
  C10      1.0000 0.31600  0.69450  0.04550  Biso   1.000  C
  C11      1.0000 0.59320  0.40380  0.93120  Biso   1.000  C
  C12      1.0000 0.40680  0.59620  0.06880  Biso   1.000  C
  H3       1.0000 0.61430  0.48180  0.93310  Biso   1.000  H
  H4       1.0000 0.38570  0.51820  0.06690  Biso   1.000  H
  C13      1.0000 0.47130  0.38730  0.90510  Biso   1.000  C
  C14      1.0000 0.52870  0.61270  0.09490  Biso   1.000  C
  H5       1.0000 0.41200  0.45430  0.89010  Biso   1.000  H
  H6       1.0000 0.58800  0.54570  0.10990  Biso   1.000  H
  C15      1.0000 0.43740  0.27310  0.90130  Biso   1.000  C
  C16      1.0000 0.56260  0.72690  0.09870  Biso   1.000  C
  H7       1.0000 0.35580  0.26230  0.88410  Biso   1.000  H
  H8       1.0000 0.64420  0.73770  0.11590  Biso   1.000  H
  C17      1.0000 0.52530  0.17700  0.92320  Biso   1.000  C
  C18      1.0000 0.47470  0.82300  0.07680  Biso   1.000  C
  H9       1.0000 0.50410  0.09960  0.92000  Biso   1.000  H
  H10      1.0000 0.49590  0.90040  0.08000  Biso   1.000  H
  C19      1.0000 0.64680  0.19230  0.95040  Biso   1.000  C
  C20      1.0000 0.35320  0.80770  0.04960  Biso   1.000  C
  H11      1.0000 0.70470  0.12430  0.96630  Biso   1.000  H
  H12      1.0000 0.29530  0.87570  0.03370  Biso   1.000  H
  N1       1.0000 0.07120  0.53510  0.83180  Biso   1.000  N
  N2       1.0000 0.92880  0.46490  0.16820  Biso   1.000  N
  C21      1.0000 0.13700  0.45140  0.79330  Biso   1.000  C
  C22      1.0000 0.86300  0.54860  0.20670  Biso   1.000  C
  H13      1.0000 0.15300  0.37390  0.83210  Biso   1.000  H
  H14      1.0000 0.84700  0.62610  0.16790  Biso   1.000  H
  C23      1.0000 0.18320  0.47020  0.70060  Biso   1.000  C
  C24      1.0000 0.81680  0.52980  0.29940  Biso   1.000  C
  H15      1.0000 0.22830  0.40720  0.67840  Biso   1.000  H
  H16      1.0000 0.77170  0.59280  0.32160  Biso   1.000  H
  C25      1.0000 0.16150  0.58450  0.64120  Biso   1.000  C
  C26      1.0000 0.83850  0.41550  0.35880  Biso   1.000  C
  C27      1.0000 0.09080  0.67210  0.67940  Biso   1.000  C
  C28      1.0000 0.90920  0.32790  0.32060  Biso   1.000  C
  H17      1.0000 0.07170  0.74980  0.64190  Biso   1.000  H
  H18      1.0000 0.92830  0.25020  0.35810  Biso   1.000  H
  C29      1.0000 0.04910  0.64390  0.77260  Biso   1.000  C
  C30      1.0000 0.95090  0.35610  0.22740  Biso   1.000  C
  H19      1.0000 0.00210  0.70480  0.79630  Biso   1.000  H
  H20      1.0000 0.99790  0.29520  0.20370  Biso   1.000  H
  C31      1.0000 0.20730  0.60960  0.54150  Biso   1.000  C
  C32      1.0000 0.79270  0.39040  0.45850  Biso   1.000  C
  N3       1.0000 0.25280  0.52680  0.49270  Biso   1.000  N
  N4       1.0000 0.74720  0.47320  0.50730  Biso   1.000  N
  O5       1.0000 0.26740  0.41100  0.52590  Biso   1.000  O
  O6       1.0000 0.73260  0.58900  0.47410  Biso   1.000  O
  C33      1.0000 0.27900  0.58020  0.39000  Biso   1.000  C
  C34      1.0000 0.72100  0.41980  0.61000  Biso   1.000  C
  C35      1.0000 0.40710  0.52550  0.36020  Biso   1.000  C
  C36      1.0000 0.59290  0.47450  0.63980  Biso   1.000  C
  H21      1.0000 0.47490  0.55340  0.38890  Biso   1.000  H
  H22      1.0000 0.52510  0.44660  0.61110  Biso   1.000  H
  H23      1.0000 0.42130  0.55030  0.29310  Biso   1.000  H
  H24      1.0000 0.57870  0.44970  0.70690  Biso   1.000  H
  H25      1.0000 0.40720  0.43780  0.37970  Biso   1.000  H
  H26      1.0000 0.59280  0.56220  0.62030  Biso   1.000  H
  C37      1.0000 0.17600  0.53480  0.34080  Biso   1.000  C
  C38      1.0000 0.82400  0.46520  0.65920  Biso   1.000  C
  H27      1.0000 0.09210  0.56880  0.35770  Biso   1.000  H
  H28      1.0000 0.90790  0.43120  0.64230  Biso   1.000  H
  H29      1.0000 0.17720  0.44690  0.35980  Biso   1.000  H
  H30      1.0000 0.82280  0.55310  0.64020  Biso   1.000  H
  H31      1.0000 0.19370  0.56000  0.27400  Biso   1.000  H
  H32      1.0000 0.80630  0.44000  0.72600  Biso   1.000  H
  C39      1.0000 0.26820  0.71830  0.38490  Biso   1.000  C
  C40      1.0000 0.73180  0.28170  0.61510  Biso   1.000  C
  C41      1.0000 0.40410  0.76980  0.37770  Biso   1.000  C
  C42      1.0000 0.59590  0.23020  0.62230  Biso   1.000  C
  H33      1.0000 0.39440  0.85620  0.37450  Biso   1.000  H
  H34      1.0000 0.60560  0.14380  0.62550  Biso   1.000  H
  H35      1.0000 0.45260  0.75630  0.32220  Biso   1.000  H
  H36      1.0000 0.54740  0.24370  0.67780  Biso   1.000  H
  H37      1.0000 0.44930  0.72900  0.43210  Biso   1.000  H
  H38      1.0000 0.55070  0.27100  0.56790  Biso   1.000  H
  C43      1.0000 0.18450  0.79860  0.31520  Biso   1.000  C
  C44      1.0000 0.81550  0.20140  0.68480  Biso   1.000  C
  H39      1.0000 0.10110  0.76510  0.32050  Biso   1.000  H
  H40      1.0000 0.89890  0.23490  0.67950  Biso   1.000  H
  H41      1.0000 0.22400  0.80380  0.25300  Biso   1.000  H
  H42      1.0000 0.77600  0.19620  0.74700  Biso   1.000  H
  H43      1.0000 0.17400  0.87900  0.32700  Biso   1.000  H
  H44      1.0000 0.82600  0.12100  0.67300  Biso   1.000  H
  N5       1.0000 0.21230  0.72060  0.48210  Biso   1.000  N
  N6       1.0000 0.78770  0.27940  0.51790  Biso   1.000  N
  O7       1.0000 0.18600  0.82450  0.50530  Biso   1.000  O
  O8       1.0000 0.81400  0.17550  0.49470  Biso   1.000  O
  Cu2      1.0000 0.00000  0.00000  0.50000  Biso   1.000  Cu
  C45      1.0000 0.79420  0.94200  0.28140  Biso   1.000  C
  C46      1.0000 0.20580  0.05800  0.71860  Biso   1.000  C
  F7       1.0000 0.87460  0.86140  0.24810  Biso   1.000  F
  F8       1.0000 0.12540  0.13860  0.75190  Biso   1.000  F
  F9       1.0000 0.81060  0.04800  0.22214  Biso   1.000  F
  F10      1.0000 0.18940  0.95200  0.77786  Biso   1.000  F
  F11      1.0000 0.67480  0.91380  0.27376  Biso   1.000  F
  F12      1.0000 0.32520  0.08620  0.72624  Biso   1.000  F
  C47      1.0000 0.82320  0.94220  0.38180  Biso   1.000  C
  C48      1.0000 0.17680  0.05780  0.61820  Biso   1.000  C
  O9       1.0000 0.93100  0.98820  0.38481  Biso   1.000  O
  O10      1.0000 0.06900  0.01180  0.61519  Biso   1.000  O
  C49      1.0000 0.73650  0.89400  0.45400  Biso   1.000  C
  C50      1.0000 0.26350  0.10600  0.54600  Biso   1.000  C
  H45      1.0000 0.65990  0.86730  0.43950  Biso   1.000  H
  H46      1.0000 0.34010  0.13270  0.56050  Biso   1.000  H
  C51      1.0000 0.75710  0.88250  0.55030  Biso   1.000  C
  C52      1.0000 0.24290  0.11750  0.44970  Biso   1.000  C
  O11      1.0000 0.86220  0.90970  0.57741  Biso   1.000  O
  O12      1.0000 0.13780  0.09030  0.42259  Biso   1.000  O
  C53      1.0000 0.65540  0.83470  0.62550  Biso   1.000  C
  C54      1.0000 0.34460  0.16530  0.37450  Biso   1.000  C
  C55      1.0000 0.52700  0.83240  0.60650  Biso   1.000  C
  C56      1.0000 0.47300  0.16760  0.39350  Biso   1.000  C
  H47      1.0000 0.50300  0.86010  0.54500  Biso   1.000  H
  H48      1.0000 0.49700  0.13990  0.45500  Biso   1.000  H
  C57      1.0000 0.43350  0.78890  0.67840  Biso   1.000  C
  C58      1.0000 0.56650  0.21110  0.32160  Biso   1.000  C
  H49      1.0000 0.34770  0.78780  0.66460  Biso   1.000  H
  H50      1.0000 0.65230  0.21220  0.33540  Biso   1.000  H
  C59      1.0000 0.46750  0.74800  0.76880  Biso   1.000  C
  C60      1.0000 0.53250  0.25200  0.23120  Biso   1.000  C
  H51      1.0000 0.40510  0.71860  0.81670  Biso   1.000  H
  H52      1.0000 0.59490  0.28140  0.18330  Biso   1.000  H
  C61      1.0000 0.59490  0.75040  0.78900  Biso   1.000  C
  C62      1.0000 0.40510  0.24960  0.21100  Biso   1.000  C
  H53      1.0000 0.61840  0.72240  0.85060  Biso   1.000  H
  H54      1.0000 0.38160  0.27760  0.14940  Biso   1.000  H
  C63      1.0000 0.68800  0.79440  0.71760  Biso   1.000  C
  C64      1.0000 0.31200  0.20560  0.28240  Biso   1.000  C
  H55      1.0000 0.77320  0.79680  0.73190  Biso   1.000  H
  H56      1.0000 0.22680  0.20320  0.26810  Biso   1.000  H
  F13      1.0000 0.23800  0.13370  0.03300  Biso   1.000  F
  F14      1.0000 0.76200  0.86630  0.96700  Biso   1.000  F
  F15      1.0000 0.11600  0.09900  0.14980  Biso   1.000  F
  F16      1.0000 0.88400  0.90100  0.85020  Biso   1.000  F
  F17      1.0000 0.08000  0.02400  0.04400  Biso   1.000  F
  F18      1.0000 0.92000  0.97600  0.95600  Biso   1.000  F
