data_image0
_cell_length_a       15.0602
_cell_length_b       14.0418
_cell_length_c       17.3003
_cell_angle_alpha    90
_cell_angle_beta     90
_cell_angle_gamma    90

_symmetry_space_group_name_H-M    "P 1"
_symmetry_int_tables_number       1

loop_
  _symmetry_equiv_pos_as_xyz
  'x, y, z'

loop_
  _atom_site_label
  _atom_site_occupancy
  _atom_site_fract_x
  _atom_site_fract_y
  _atom_site_fract_z
  _atom_site_thermal_displace_type
  _atom_site_B_iso_or_equiv
  _atom_site_type_symbol
  C1       1.0000 0.09000  0.78900  0.88330  Biso   1.000  C
  C2       1.0000 0.91000  0.21100  0.38330  Biso   1.000  C
  C3       1.0000 0.41000  0.28900  0.38330  Biso   1.000  C
  C4       1.0000 0.59000  0.71100  0.88330  Biso   1.000  C
  H1       1.0000 0.14590  0.81640  0.87840  Biso   1.000  H
  H2       1.0000 0.85410  0.18360  0.37840  Biso   1.000  H
  H3       1.0000 0.35410  0.31640  0.37840  Biso   1.000  H
  H4       1.0000 0.64590  0.68360  0.87840  Biso   1.000  H
  C5       1.0000 0.01940  0.84410  0.90450  Biso   1.000  C
  C6       1.0000 0.98060  0.15590  0.40450  Biso   1.000  C
  C7       1.0000 0.48060  0.34410  0.40450  Biso   1.000  C
  C8       1.0000 0.51940  0.65590  0.90450  Biso   1.000  C
  H5       1.0000 0.02730  0.90870  0.91440  Biso   1.000  H
  H6       1.0000 0.97270  0.09130  0.41440  Biso   1.000  H
  H7       1.0000 0.47270  0.40870  0.41440  Biso   1.000  H
  H8       1.0000 0.52730  0.59130  0.91440  Biso   1.000  H
  C9       1.0000 0.93870  0.80460  0.91090  Biso   1.000  C
  C10      1.0000 0.06130  0.19540  0.41090  Biso   1.000  C
  C11      1.0000 0.56130  0.30460  0.41090  Biso   1.000  C
  C12      1.0000 0.43870  0.69540  0.91090  Biso   1.000  C
  H9       1.0000 0.89060  0.84300  0.92370  Biso   1.000  H
  H10      1.0000 0.10940  0.15700  0.42370  Biso   1.000  H
  H11      1.0000 0.60940  0.34300  0.42370  Biso   1.000  H
  H12      1.0000 0.39060  0.65700  0.92370  Biso   1.000  H
  C13      1.0000 0.92510  0.70690  0.89900  Biso   1.000  C
  C14      1.0000 0.07490  0.29310  0.39900  Biso   1.000  C
  C15      1.0000 0.57490  0.20690  0.39900  Biso   1.000  C
  C16      1.0000 0.42510  0.79310  0.89900  Biso   1.000  C
  H13      1.0000 0.86980  0.67830  0.90500  Biso   1.000  H
  H14      1.0000 0.13020  0.32170  0.40500  Biso   1.000  H
  H15      1.0000 0.63020  0.17830  0.40500  Biso   1.000  H
  H16      1.0000 0.36980  0.82170  0.90500  Biso   1.000  H
  C17      1.0000 0.00010  0.65590  0.87740  Biso   1.000  C
  C18      1.0000 0.99990  0.34410  0.37740  Biso   1.000  C
  C19      1.0000 0.49990  0.15590  0.37740  Biso   1.000  C
  C20      1.0000 0.50010  0.84410  0.87740  Biso   1.000  C
  C21      1.0000 0.99560  0.55120  0.86170  Biso   1.000  C
  C22      1.0000 0.00440  0.44880  0.36170  Biso   1.000  C
  C23      1.0000 0.50440  0.05120  0.36170  Biso   1.000  C
  C24      1.0000 0.49560  0.94880  0.86170  Biso   1.000  C
  H17      1.0000 0.95710  0.52070  0.89920  Biso   1.000  H
  H18      1.0000 0.04290  0.47930  0.39920  Biso   1.000  H
  H19      1.0000 0.54290  0.02070  0.39920  Biso   1.000  H
  H20      1.0000 0.45710  0.97930  0.89920  Biso   1.000  H
  H21      1.0000 0.97130  0.54020  0.81060  Biso   1.000  H
  H22      1.0000 0.02870  0.45980  0.31060  Biso   1.000  H
  H23      1.0000 0.52870  0.04020  0.31060  Biso   1.000  H
  H24      1.0000 0.47130  0.95980  0.81060  Biso   1.000  H
  C25      1.0000 0.29880  0.48840  0.85330  Biso   1.000  C
  C26      1.0000 0.70120  0.51160  0.35330  Biso   1.000  C
  C27      1.0000 0.20120  0.98840  0.35330  Biso   1.000  C
  C28      1.0000 0.79880  0.01160  0.85330  Biso   1.000  C
  C29      1.0000 0.36730  0.41290  0.84440  Biso   1.000  C
  C30      1.0000 0.63270  0.58710  0.34440  Biso   1.000  C
  C31      1.0000 0.13270  0.91290  0.34440  Biso   1.000  C
  C32      1.0000 0.86730  0.08710  0.84440  Biso   1.000  C
  C33      1.0000 0.42190  0.37750  0.89820  Biso   1.000  C
  C34      1.0000 0.57810  0.62250  0.39820  Biso   1.000  C
  C35      1.0000 0.07810  0.87750  0.39820  Biso   1.000  C
  C36      1.0000 0.92190  0.12250  0.89820  Biso   1.000  C
  H25      1.0000 0.42330  0.39940  0.94890  Biso   1.000  H
  H26      1.0000 0.57670  0.60060  0.44890  Biso   1.000  H
  H27      1.0000 0.07670  0.89940  0.44890  Biso   1.000  H
  H28      1.0000 0.92330  0.10060  0.94890  Biso   1.000  H
  C37      1.0000 0.47770  0.30310  0.87040  Biso   1.000  C
  C38      1.0000 0.52230  0.69690  0.37040  Biso   1.000  C
  C39      1.0000 0.02230  0.80310  0.37040  Biso   1.000  C
  C40      1.0000 0.97770  0.19690  0.87040  Biso   1.000  C
  H29      1.0000 0.51850  0.27050  0.90090  Biso   1.000  H
  H30      1.0000 0.48150  0.72950  0.40090  Biso   1.000  H
  H31      1.0000 0.98150  0.77050  0.40090  Biso   1.000  H
  H32      1.0000 0.01850  0.22950  0.90090  Biso   1.000  H
  C41      1.0000 0.46440  0.28560  0.79490  Biso   1.000  C
  C42      1.0000 0.53560  0.71440  0.29490  Biso   1.000  C
  C43      1.0000 0.03560  0.78560  0.29490  Biso   1.000  C
  C44      1.0000 0.96440  0.21440  0.79490  Biso   1.000  C
  C45      1.0000 0.50790  0.21250  0.74690  Biso   1.000  C
  C46      1.0000 0.49210  0.78750  0.24690  Biso   1.000  C
  C47      1.0000 0.99210  0.71250  0.24690  Biso   1.000  C
  C48      1.0000 0.00790  0.28750  0.74690  Biso   1.000  C
  C49      1.0000 0.64850  0.27960  0.58910  Biso   1.000  C
  C50      1.0000 0.35150  0.72040  0.08910  Biso   1.000  C
  C51      1.0000 0.85150  0.77960  0.08910  Biso   1.000  C
  C52      1.0000 0.14850  0.22040  0.58910  Biso   1.000  C
  H33      1.0000 0.59440  0.31030  0.59650  Biso   1.000  H
  H34      1.0000 0.40560  0.68970  0.09650  Biso   1.000  H
  H35      1.0000 0.90560  0.81030  0.09650  Biso   1.000  H
  H36      1.0000 0.09440  0.18970  0.59650  Biso   1.000  H
  C53      1.0000 0.72300  0.33270  0.56590  Biso   1.000  C
  C54      1.0000 0.27700  0.66730  0.06590  Biso   1.000  C
  C55      1.0000 0.77700  0.83270  0.06590  Biso   1.000  C
  C56      1.0000 0.22300  0.16730  0.56590  Biso   1.000  C
  H37      1.0000 0.71860  0.39810  0.55820  Biso   1.000  H
  H38      1.0000 0.28140  0.60190  0.05820  Biso   1.000  H
  H39      1.0000 0.78140  0.89810  0.05820  Biso   1.000  H
  H40      1.0000 0.21860  0.10190  0.55820  Biso   1.000  H
  C57      1.0000 0.80210  0.28670  0.55480  Biso   1.000  C
  C58      1.0000 0.19790  0.71330  0.05480  Biso   1.000  C
  C59      1.0000 0.69790  0.78670  0.05480  Biso   1.000  C
  C60      1.0000 0.30210  0.21330  0.55480  Biso   1.000  C
  H41      1.0000 0.85230  0.32010  0.53920  Biso   1.000  H
  H42      1.0000 0.14770  0.67990  0.03920  Biso   1.000  H
  H43      1.0000 0.64770  0.82010  0.03920  Biso   1.000  H
  H44      1.0000 0.35230  0.17990  0.53920  Biso   1.000  H
  C61      1.0000 0.80590  0.19260  0.56700  Biso   1.000  C
  C62      1.0000 0.19410  0.80740  0.06700  Biso   1.000  C
  C63      1.0000 0.69410  0.69260  0.06700  Biso   1.000  C
  C64      1.0000 0.30590  0.30740  0.56700  Biso   1.000  C
  H45      1.0000 0.85970  0.16120  0.56050  Biso   1.000  H
  H46      1.0000 0.14030  0.83880  0.06050  Biso   1.000  H
  H47      1.0000 0.64030  0.66120  0.06050  Biso   1.000  H
  H48      1.0000 0.35970  0.33880  0.56050  Biso   1.000  H
  C65      1.0000 0.73260  0.14150  0.58860  Biso   1.000  C
  C66      1.0000 0.26740  0.85850  0.08860  Biso   1.000  C
  C67      1.0000 0.76740  0.64150  0.08860  Biso   1.000  C
  C68      1.0000 0.23260  0.35850  0.58860  Biso   1.000  C
  C69      1.0000 0.73280  0.03730  0.60440  Biso   1.000  C
  C70      1.0000 0.26720  0.96270  0.10440  Biso   1.000  C
  C71      1.0000 0.76720  0.53730  0.10440  Biso   1.000  C
  C72      1.0000 0.23280  0.46270  0.60440  Biso   1.000  C
  H49      1.0000 0.76890  0.00480  0.56610  Biso   1.000  H
  H50      1.0000 0.23110  0.99520  0.06610  Biso   1.000  H
  H51      1.0000 0.73110  0.50480  0.06610  Biso   1.000  H
  H52      1.0000 0.26890  0.49520  0.56610  Biso   1.000  H
  H53      1.0000 0.75800  0.02510  0.65500  Biso   1.000  H
  H54      1.0000 0.24200  0.97490  0.15500  Biso   1.000  H
  H55      1.0000 0.74200  0.52510  0.15500  Biso   1.000  H
  H56      1.0000 0.25800  0.47490  0.65500  Biso   1.000  H
  C73      1.0000 0.42060  0.98810  0.60070  Biso   1.000  C
  C74      1.0000 0.57940  0.01190  0.10070  Biso   1.000  C
  C75      1.0000 0.07940  0.48810  0.10070  Biso   1.000  C
  C76      1.0000 0.92060  0.51190  0.60070  Biso   1.000  C
  C77      1.0000 0.34950  0.91630  0.61310  Biso   1.000  C
  C78      1.0000 0.65050  0.08370  0.11310  Biso   1.000  C
  C79      1.0000 0.15050  0.41630  0.11310  Biso   1.000  C
  C80      1.0000 0.84950  0.58370  0.61310  Biso   1.000  C
  C81      1.0000 0.28740  0.88600  0.56260  Biso   1.000  C
  C82      1.0000 0.71260  0.11400  0.06260  Biso   1.000  C
  C83      1.0000 0.21260  0.38600  0.06260  Biso   1.000  C
  C84      1.0000 0.78740  0.61400  0.56260  Biso   1.000  C
  H57      1.0000 0.28230  0.90910  0.51250  Biso   1.000  H
  H58      1.0000 0.71770  0.09090  0.01250  Biso   1.000  H
  H59      1.0000 0.21770  0.40910  0.01250  Biso   1.000  H
  H60      1.0000 0.78230  0.59090  0.51250  Biso   1.000  H
  C85      1.0000 0.23200  0.81700  0.59310  Biso   1.000  C
  C86      1.0000 0.76800  0.18300  0.09310  Biso   1.000  C
  C87      1.0000 0.26800  0.31700  0.09310  Biso   1.000  C
  C88      1.0000 0.73200  0.68300  0.59310  Biso   1.000  C
  H61      1.0000 0.18560  0.78940  0.56550  Biso   1.000  H
  H62      1.0000 0.81440  0.21060  0.06550  Biso   1.000  H
  H63      1.0000 0.31440  0.28940  0.06550  Biso   1.000  H
  H64      1.0000 0.68560  0.71060  0.56550  Biso   1.000  H
  C89      1.0000 0.25190  0.79330  0.66710  Biso   1.000  C
  C90      1.0000 0.74810  0.20670  0.16710  Biso   1.000  C
  C91      1.0000 0.24810  0.29330  0.16710  Biso   1.000  C
  C92      1.0000 0.75190  0.70670  0.66710  Biso   1.000  C
  C93      1.0000 0.20960  0.72030  0.71680  Biso   1.000  C
  C94      1.0000 0.79040  0.27970  0.21680  Biso   1.000  C
  C95      1.0000 0.29040  0.22030  0.21680  Biso   1.000  C
  C96      1.0000 0.70960  0.77970  0.71680  Biso   1.000  C
  N1       1.0000 0.07950  0.69530  0.86952  Biso   1.000  N
  N2       1.0000 0.92050  0.30470  0.36952  Biso   1.000  N
  N3       1.0000 0.42050  0.19530  0.36952  Biso   1.000  N
  N4       1.0000 0.57950  0.80470  0.86952  Biso   1.000  N
  N5       1.0000 0.08520  0.51080  0.86676  Biso   1.000  N
  N6       1.0000 0.91480  0.48920  0.36676  Biso   1.000  N
  N7       1.0000 0.41480  0.01080  0.36676  Biso   1.000  N
  N8       1.0000 0.58520  0.98920  0.86676  Biso   1.000  N
  H65      1.0000 0.08880  0.45780  0.83770  Biso   1.000  H
  H66      1.0000 0.91120  0.54220  0.33770  Biso   1.000  H
  H67      1.0000 0.41120  0.95780  0.33770  Biso   1.000  H
  H68      1.0000 0.58880  0.04220  0.83770  Biso   1.000  H
  H69      1.0000 0.09760  0.49520  0.91600  Biso   1.000  H
  H70      1.0000 0.90240  0.50480  0.41600  Biso   1.000  H
  H71      1.0000 0.40240  0.99520  0.41600  Biso   1.000  H
  H72      1.0000 0.59760  0.00480  0.91600  Biso   1.000  H
  N9       1.0000 0.65430  0.18630  0.60066  Biso   1.000  N
  N10      1.0000 0.34570  0.81370  0.10066  Biso   1.000  N
  N11      1.0000 0.84570  0.68630  0.10066  Biso   1.000  N
  N12      1.0000 0.15430  0.31370  0.60066  Biso   1.000  N
  N13      1.0000 0.64190  0.00150  0.60133  Biso   1.000  N
  N14      1.0000 0.35810  0.99850  0.10133  Biso   1.000  N
  N15      1.0000 0.85810  0.50150  0.10133  Biso   1.000  N
  N16      1.0000 0.14190  0.49850  0.60133  Biso   1.000  N
  H73      1.0000 0.63680  0.95010  0.63210  Biso   1.000  H
  H74      1.0000 0.36320  0.04990  0.13210  Biso   1.000  H
  H75      1.0000 0.86320  0.45010  0.13210  Biso   1.000  H
  H76      1.0000 0.13680  0.54990  0.63210  Biso   1.000  H
  H77      1.0000 0.62880  0.98360  0.55270  Biso   1.000  H
  H78      1.0000 0.37120  0.01640  0.05270  Biso   1.000  H
  H79      1.0000 0.87120  0.48360  0.05270  Biso   1.000  H
  H80      1.0000 0.12880  0.51640  0.55270  Biso   1.000  H
  O1       1.0000 0.25649  0.51150  0.79248  Biso   1.000  O
  O2       1.0000 0.74351  0.48850  0.29248  Biso   1.000  O
  O3       1.0000 0.24351  0.01150  0.29248  Biso   1.000  O
  O4       1.0000 0.75649  0.98850  0.79248  Biso   1.000  O
  O5       1.0000 0.28705  0.52390  0.91750  Biso   1.000  O
  O6       1.0000 0.71295  0.47610  0.41750  Biso   1.000  O
  O7       1.0000 0.21295  0.02390  0.41750  Biso   1.000  O
  O8       1.0000 0.78705  0.97610  0.91750  Biso   1.000  O
  O9       1.0000 0.48637  0.20828  0.67660  Biso   1.000  O
  O10      1.0000 0.51363  0.79172  0.17660  Biso   1.000  O
  O11      1.0000 0.01363  0.70828  0.17660  Biso   1.000  O
  O12      1.0000 0.98637  0.29172  0.67660  Biso   1.000  O
  O13      1.0000 0.56630  0.16090  0.77640  Biso   1.000  O
  O14      1.0000 0.43370  0.83910  0.27640  Biso   1.000  O
  O15      1.0000 0.93370  0.66090  0.27640  Biso   1.000  O
  O16      1.0000 0.06630  0.33910  0.77640  Biso   1.000  O
  O17      1.0000 0.46526  0.00965  0.66112  Biso   1.000  O
  O18      1.0000 0.53474  0.99035  0.16112  Biso   1.000  O
  O19      1.0000 0.03474  0.50965  0.16112  Biso   1.000  O
  O20      1.0000 0.96526  0.49035  0.66112  Biso   1.000  O
  O21      1.0000 0.43510  0.02120  0.53621  Biso   1.000  O
  O22      1.0000 0.56490  0.97880  0.03621  Biso   1.000  O
  O23      1.0000 0.06490  0.52120  0.03621  Biso   1.000  O
  O24      1.0000 0.93510  0.47880  0.53621  Biso   1.000  O
  O25      1.0000 0.24120  0.71130  0.78573  Biso   1.000  O
  O26      1.0000 0.75880  0.28870  0.28573  Biso   1.000  O
  O27      1.0000 0.25880  0.21130  0.28573  Biso   1.000  O
  O28      1.0000 0.74120  0.78870  0.78573  Biso   1.000  O
  O29      1.0000 0.14770  0.67219  0.69250  Biso   1.000  O
  O30      1.0000 0.85230  0.32781  0.19250  Biso   1.000  O
  O31      1.0000 0.35230  0.17219  0.19250  Biso   1.000  O
  O32      1.0000 0.64770  0.82781  0.69250  Biso   1.000  O
  S1       1.0000 0.38406  0.35791  0.75715  Biso   1.000  S
  S2       1.0000 0.61594  0.64209  0.25715  Biso   1.000  S
  S3       1.0000 0.11594  0.85791  0.25715  Biso   1.000  S
  S4       1.0000 0.88406  0.14209  0.75715  Biso   1.000  S
  S5       1.0000 0.33964  0.85978  0.69994  Biso   1.000  S
  S6       1.0000 0.66036  0.14022  0.19994  Biso   1.000  S
  S7       1.0000 0.16036  0.35978  0.19994  Biso   1.000  S
  S8       1.0000 0.83964  0.64022  0.69994  Biso   1.000  S
  Cu1      1.0000 0.17116  0.60697  0.82921  Biso   1.000  Cu
  Cu2      1.0000 0.82884  0.39303  0.32921  Biso   1.000  Cu
  Cu3      1.0000 0.32884  0.10697  0.32921  Biso   1.000  Cu
  Cu4      1.0000 0.67116  0.89303  0.82921  Biso   1.000  Cu
  Cu5      1.0000 0.55714  0.10146  0.63565  Biso   1.000  Cu
  Cu6      1.0000 0.44286  0.89854  0.13565  Biso   1.000  Cu
  Cu7      1.0000 0.94286  0.60146  0.13565  Biso   1.000  Cu
  Cu8      1.0000 0.05714  0.39854  0.63565  Biso   1.000  Cu
  C97      1.0000 0.48290  0.62580  0.71110  Biso   1.000  C
  C98      1.0000 0.51710  0.37420  0.21110  Biso   1.000  C
  C99      1.0000 0.01710  0.12580  0.21110  Biso   1.000  C
  C100     1.0000 0.98290  0.87420  0.71110  Biso   1.000  C
  H81      1.0000 0.45670  0.68820  0.71120  Biso   1.000  H
  H82      1.0000 0.54330  0.31180  0.21120  Biso   1.000  H
  H83      1.0000 0.04330  0.18820  0.21120  Biso   1.000  H
  H84      1.0000 0.95670  0.81180  0.71120  Biso   1.000  H
  H85      1.0000 0.54320  0.62990  0.72880  Biso   1.000  H
  H86      1.0000 0.45680  0.37010  0.22880  Biso   1.000  H
  H87      1.0000 0.95680  0.12990  0.22880  Biso   1.000  H
  H88      1.0000 0.04320  0.87010  0.72880  Biso   1.000  H
  H89      1.0000 0.44970  0.58480  0.74490  Biso   1.000  H
  H90      1.0000 0.55030  0.41520  0.24490  Biso   1.000  H
  H91      1.0000 0.05030  0.08480  0.24490  Biso   1.000  H
  H92      1.0000 0.94970  0.91520  0.74490  Biso   1.000  H
  C101     1.0000 0.43390  0.63710  0.57160  Biso   1.000  C
  C102     1.0000 0.56610  0.36290  0.07160  Biso   1.000  C
  C103     1.0000 0.06610  0.13710  0.07160  Biso   1.000  C
  C104     1.0000 0.93390  0.86290  0.57160  Biso   1.000  C
  H93      1.0000 0.41300  0.69790  0.58920  Biso   1.000  H
  H94      1.0000 0.58700  0.30210  0.08920  Biso   1.000  H
  H95      1.0000 0.08700  0.19790  0.08920  Biso   1.000  H
  H96      1.0000 0.91300  0.80210  0.58920  Biso   1.000  H
  H97      1.0000 0.38430  0.59890  0.55560  Biso   1.000  H
  H98      1.0000 0.61570  0.40110  0.05560  Biso   1.000  H
  H99      1.0000 0.11570  0.09890  0.05560  Biso   1.000  H
  H100     1.0000 0.88430  0.90110  0.55560  Biso   1.000  H
  H101     1.0000 0.47360  0.64590  0.52880  Biso   1.000  H
  H102     1.0000 0.52640  0.35410  0.02880  Biso   1.000  H
  H103     1.0000 0.02640  0.14590  0.02880  Biso   1.000  H
  H104     1.0000 0.97360  0.85410  0.52880  Biso   1.000  H
  C105     1.0000 0.51000  0.51200  0.62020  Biso   1.000  C
  C106     1.0000 0.49000  0.48800  0.12020  Biso   1.000  C
  C107     1.0000 0.99000  0.01200  0.12020  Biso   1.000  C
  C108     1.0000 0.01000  0.98800  0.62020  Biso   1.000  C
  H105     1.0000 0.54180  0.47860  0.65750  Biso   1.000  H
  H106     1.0000 0.45820  0.52140  0.15750  Biso   1.000  H
  H107     1.0000 0.95820  0.97860  0.15750  Biso   1.000  H
  H108     1.0000 0.04180  0.02140  0.65750  Biso   1.000  H
  N17      1.0000 0.48130  0.58840  0.63530  Biso   1.000  N
  N18      1.0000 0.51870  0.41160  0.13530  Biso   1.000  N
  N19      1.0000 0.01870  0.08840  0.13530  Biso   1.000  N
  N20      1.0000 0.98130  0.91160  0.63530  Biso   1.000  N
  O33      1.0000 0.49860  0.47580  0.55550  Biso   1.000  O
  O34      1.0000 0.50140  0.52420  0.05550  Biso   1.000  O
  O35      1.0000 0.00140  0.97580  0.05550  Biso   1.000  O
  O36      1.0000 0.99860  0.02420  0.55550  Biso   1.000  O
  C109     1.0000 0.76930  0.86970  0.26560  Biso   1.000  C
  C110     1.0000 0.23070  0.13030  0.76560  Biso   1.000  C
  C111     1.0000 0.73070  0.36970  0.76560  Biso   1.000  C
  C112     1.0000 0.26930  0.63030  0.26560  Biso   1.000  C
  H109     1.0000 0.76560  0.80180  0.26020  Biso   1.000  H
  H110     1.0000 0.23440  0.19820  0.76020  Biso   1.000  H
  H111     1.0000 0.73440  0.30180  0.76020  Biso   1.000  H
  H112     1.0000 0.26560  0.69820  0.26020  Biso   1.000  H
  H113     1.0000 0.82690  0.89090  0.24920  Biso   1.000  H
  H114     1.0000 0.17310  0.10910  0.74920  Biso   1.000  H
  H115     1.0000 0.67310  0.39090  0.74920  Biso   1.000  H
  H116     1.0000 0.32690  0.60910  0.24920  Biso   1.000  H
  H117     1.0000 0.72450  0.89920  0.23430  Biso   1.000  H
  H118     1.0000 0.27550  0.10080  0.73430  Biso   1.000  H
  H119     1.0000 0.77550  0.39920  0.73430  Biso   1.000  H
  H120     1.0000 0.22450  0.60080  0.23430  Biso   1.000  H
  C113     1.0000 0.74000  0.83230  0.39570  Biso   1.000  C
  C114     1.0000 0.26000  0.16770  0.89570  Biso   1.000  C
  C115     1.0000 0.76000  0.33230  0.89570  Biso   1.000  C
  C116     1.0000 0.24000  0.66770  0.39570  Biso   1.000  C
  H121     1.0000 0.73990  0.77040  0.37210  Biso   1.000  H
  H122     1.0000 0.26010  0.22960  0.87210  Biso   1.000  H
  H123     1.0000 0.76010  0.27040  0.87210  Biso   1.000  H
  H124     1.0000 0.23990  0.72960  0.37210  Biso   1.000  H
  H125     1.0000 0.68310  0.84430  0.41870  Biso   1.000  H
  H126     1.0000 0.31690  0.15570  0.91870  Biso   1.000  H
  H127     1.0000 0.81690  0.34430  0.91870  Biso   1.000  H
  H128     1.0000 0.18310  0.65570  0.41870  Biso   1.000  H
  H129     1.0000 0.78510  0.83460  0.43490  Biso   1.000  H
  H130     1.0000 0.21490  0.16540  0.93490  Biso   1.000  H
  H131     1.0000 0.71490  0.33460  0.93490  Biso   1.000  H
  H132     1.0000 0.28510  0.66540  0.43490  Biso   1.000  H
  C117     1.0000 0.76410  0.97940  0.36840  Biso   1.000  C
  C118     1.0000 0.23590  0.02060  0.86840  Biso   1.000  C
  C119     1.0000 0.73590  0.47940  0.86840  Biso   1.000  C
  C120     1.0000 0.26410  0.52060  0.36840  Biso   1.000  C
  H133     1.0000 0.79890  0.02880  0.34940  Biso   1.000  H
  H134     1.0000 0.20110  0.97120  0.84940  Biso   1.000  H
  H135     1.0000 0.70110  0.52880  0.84940  Biso   1.000  H
  H136     1.0000 0.29890  0.47120  0.34940  Biso   1.000  H
  N21      1.0000 0.75590  0.89520  0.34470  Biso   1.000  N
  N22      1.0000 0.24410  0.10480  0.84470  Biso   1.000  N
  N23      1.0000 0.74410  0.39520  0.84470  Biso   1.000  N
  N24      1.0000 0.25590  0.60480  0.34470  Biso   1.000  N
  O37      1.0000 0.70140  0.97760  0.43680  Biso   1.000  O
  O38      1.0000 0.29860  0.02240  0.93680  Biso   1.000  O
  O39      1.0000 0.79860  0.47760  0.93680  Biso   1.000  O
  O40      1.0000 0.20140  0.52240  0.43680  Biso   1.000  O
