data_image0
_cell_length_a       11.437
_cell_length_b       12.002
_cell_length_c       10.862
_cell_angle_alpha    90.7
_cell_angle_beta     90.22
_cell_angle_gamma    112.06

_symmetry_space_group_name_H-M    "P 1"
_symmetry_int_tables_number       1

loop_
  _symmetry_equiv_pos_as_xyz
  'x, y, z'

loop_
  _atom_site_label
  _atom_site_occupancy
  _atom_site_fract_x
  _atom_site_fract_y
  _atom_site_fract_z
  _atom_site_thermal_displace_type
  _atom_site_B_iso_or_equiv
  _atom_site_type_symbol
  Cu1      1.0000 0.00000  0.50000  0.00000  Biso   1.000  Cu
  Cu2      1.0000 0.00000  0.00000  0.00000  Biso   1.000  Cu
  Fe1      1.0000 0.48189  0.82610  0.29693  Biso   1.000  Fe
  Fe2      1.0000 0.51811  0.17390  0.70307  Biso   1.000  Fe
  F1       1.0000 0.01820  0.74660  0.67130  Biso   1.000  F
  F2       1.0000 0.98180  0.25340  0.32870  Biso   1.000  F
  F3       1.0000 0.88610  0.59520  0.59800  Biso   1.000  F
  F4       1.0000 0.11390  0.40480  0.40200  Biso   1.000  F
  F5       1.0000 0.06530  0.64720  0.53010  Biso   1.000  F
  F6       1.0000 0.93470  0.35280  0.46990  Biso   1.000  F
  F7       1.0000 0.39680  0.53610  0.89070  Biso   1.000  F
  F8       1.0000 0.60320  0.46390  0.10930  Biso   1.000  F
  F9       1.0000 0.37210  0.52130  0.70270  Biso   1.000  F
  F10      1.0000 0.62790  0.47870  0.29730  Biso   1.000  F
  F11      1.0000 0.30260  0.37220  0.81400  Biso   1.000  F
  F12      1.0000 0.69740  0.62780  0.18600  Biso   1.000  F
  F13      1.0000 0.98280  0.76540  0.32020  Biso   1.000  F
  F14      1.0000 0.01720  0.23460  0.67980  Biso   1.000  F
  F15      1.0000 0.86460  0.85020  0.39250  Biso   1.000  F
  F16      1.0000 0.13540  0.14980  0.60750  Biso   1.000  F
  F17      1.0000 0.05160  0.90120  0.45830  Biso   1.000  F
  F18      1.0000 0.94840  0.09880  0.54170  Biso   1.000  F
  F19      1.0000 0.39620  0.23120  0.17570  Biso   1.000  F
  F20      1.0000 0.60380  0.76880  0.82430  Biso   1.000  F
  F21      1.0000 0.31340  0.28700  0.32060  Biso   1.000  F
  F22      1.0000 0.68660  0.71300  0.67940  Biso   1.000  F
  F23      1.0000 0.29970  0.34670  0.14730  Biso   1.000  F
  F24      1.0000 0.70030  0.65330  0.85270  Biso   1.000  F
  O1       1.0000 0.95230  0.53750  0.81380  Biso   1.000  O
  O2       1.0000 0.04770  0.46250  0.18620  Biso   1.000  O
  O3       1.0000 0.14400  0.46310  0.92260  Biso   1.000  O
  O4       1.0000 0.85600  0.53690  0.07740  Biso   1.000  O
  O5       1.0000 0.95310  0.92710  0.16160  Biso   1.000  O
  O6       1.0000 0.04690  0.07290  0.83840  Biso   1.000  O
  O7       1.0000 0.13860  0.13710  0.07010  Biso   1.000  O
  O8       1.0000 0.86140  0.86290  0.92990  Biso   1.000  O
  N1       1.0000 0.11360  0.67560  0.01940  Biso   1.000  N
  N2       1.0000 0.88640  0.32440  0.98060  Biso   1.000  N
  N3       1.0000 0.13470  0.87760  0.00280  Biso   1.000  N
  N4       1.0000 0.86530  0.12240  0.99720  Biso   1.000  N
  C1       1.0000 0.06940  0.76140  0.99340  Biso   1.000  C
  C2       1.0000 0.93060  0.23860  0.00660  Biso   1.000  C
  C3       1.0000 0.23210  0.71110  0.06100  Biso   1.000  C
  C4       1.0000 0.76790  0.28890  0.93900  Biso   1.000  C
  C5       1.0000 0.30860  0.83140  0.07710  Biso   1.000  C
  C6       1.0000 0.69140  0.16860  0.92290  Biso   1.000  C
  C7       1.0000 0.25430  0.91230  0.04410  Biso   1.000  C
  C8       1.0000 0.74570  0.08770  0.95590  Biso   1.000  C
  C9       1.0000 0.43680  0.86920  0.12800  Biso   1.000  C
  C10      1.0000 0.56320  0.13080  0.87200  Biso   1.000  C
  C11      1.0000 0.50140  0.97690  0.19940  Biso   1.000  C
  C12      1.0000 0.49860  0.02310  0.80060  Biso   1.000  C
  C13      1.0000 0.62250  0.97650  0.23000  Biso   1.000  C
  C14      1.0000 0.37750  0.02350  0.77000  Biso   1.000  C
  C15      1.0000 0.63390  0.87220  0.18120  Biso   1.000  C
  C16      1.0000 0.36610  0.12780  0.81880  Biso   1.000  C
  C17      1.0000 0.51970  0.80500  0.11830  Biso   1.000  C
  C18      1.0000 0.48030  0.19500  0.88170  Biso   1.000  C
  C19      1.0000 0.32280  0.71650  0.37940  Biso   1.000  C
  C20      1.0000 0.67720  0.28350  0.62060  Biso   1.000  C
  C21      1.0000 0.37900  0.81960  0.45020  Biso   1.000  C
  C22      1.0000 0.62100  0.18040  0.54980  Biso   1.000  C
  C23      1.0000 0.50170  0.82270  0.48260  Biso   1.000  C
  C24      1.0000 0.49830  0.17730  0.51740  Biso   1.000  C
  C25      1.0000 0.51450  0.72120  0.43040  Biso   1.000  C
  C26      1.0000 0.48550  0.27880  0.56960  Biso   1.000  C
  C27      1.0000 0.40390  0.65810  0.36720  Biso   1.000  C
  C28      1.0000 0.59610  0.34190  0.63280  Biso   1.000  C
  C29      1.0000 0.00550  0.64290  0.63040  Biso   1.000  C
  C30      1.0000 0.99450  0.35710  0.36960  Biso   1.000  C
  C31      1.0000 0.03450  0.56940  0.73410  Biso   1.000  C
  C32      1.0000 0.96550  0.43060  0.26590  Biso   1.000  C
  C33      1.0000 0.14910  0.55460  0.72810  Biso   1.000  C
  C34      1.0000 0.85090  0.44540  0.27190  Biso   1.000  C
  C35      1.0000 0.19180  0.50020  0.82040  Biso   1.000  C
  C36      1.0000 0.80820  0.49980  0.17960  Biso   1.000  C
  C37      1.0000 0.31690  0.48410  0.80130  Biso   1.000  C
  C38      1.0000 0.68310  0.51590  0.19870  Biso   1.000  C
  C39      1.0000 0.98100  0.86810  0.35790  Biso   1.000  C
  C40      1.0000 0.01900  0.13190  0.64210  Biso   1.000  C
  C41      1.0000 0.02320  0.96010  0.25480  Biso   1.000  C
  C42      1.0000 0.97680  0.03990  0.74520  Biso   1.000  C
  C43      1.0000 0.13060  0.06120  0.27190  Biso   1.000  C
  C44      1.0000 0.86940  0.93880  0.72810  Biso   1.000  C
  C45      1.0000 0.17800  0.14380  0.17900  Biso   1.000  C
  C46      1.0000 0.82200  0.85620  0.82100  Biso   1.000  C
  C47      1.0000 0.29810  0.25550  0.20600  Biso   1.000  C
  C48      1.0000 0.70190  0.74450  0.79400  Biso   1.000  C
  H1       1.0000 0.98420  0.73630  0.96600  Biso   1.000  H
  H2       1.0000 0.01580  0.26370  0.03400  Biso   1.000  H
  H3       1.0000 0.26530  0.65180  0.08050  Biso   1.000  H
  H4       1.0000 0.73470  0.34820  0.91950  Biso   1.000  H
  H5       1.0000 0.30360  0.99590  0.05100  Biso   1.000  H
  H6       1.0000 0.69640  0.00410  0.94900  Biso   1.000  H
  H7       1.0000 0.46970  0.03690  0.22140  Biso   1.000  H
  H8       1.0000 0.53030  0.96310  0.77860  Biso   1.000  H
  H9       1.0000 0.68460  0.03600  0.27870  Biso   1.000  H
  H10      1.0000 0.31540  0.96400  0.72130  Biso   1.000  H
  H11      1.0000 0.70490  0.85000  0.19000  Biso   1.000  H
  H12      1.0000 0.29510  0.15000  0.81000  Biso   1.000  H
  H13      1.0000 0.50160  0.73040  0.07620  Biso   1.000  H
  H14      1.0000 0.49840  0.26960  0.92380  Biso   1.000  H
  H15      1.0000 0.24040  0.69050  0.34460  Biso   1.000  H
  H16      1.0000 0.75960  0.30950  0.65540  Biso   1.000  H
  H17      1.0000 0.34250  0.87550  0.47470  Biso   1.000  H
  H18      1.0000 0.65750  0.12450  0.52530  Biso   1.000  H
  H19      1.0000 0.56280  0.88250  0.53200  Biso   1.000  H
  H20      1.0000 0.43720  0.11750  0.46800  Biso   1.000  H
  H21      1.0000 0.58610  0.69970  0.43690  Biso   1.000  H
  H22      1.0000 0.41390  0.30030  0.56310  Biso   1.000  H
  H23      1.0000 0.38690  0.58520  0.32210  Biso   1.000  H
  H24      1.0000 0.61310  0.41480  0.67790  Biso   1.000  H
  H25      1.0000 0.20040  0.58280  0.65770  Biso   1.000  H
  H26      1.0000 0.79960  0.41720  0.34230  Biso   1.000  H
  H27      1.0000 0.17330  0.07470  0.34920  Biso   1.000  H
  H28      1.0000 0.82670  0.92530  0.65080  Biso   1.000  H
