data_image0
_cell_length_a       7.9536
_cell_length_b       6.7856
_cell_length_c       24.295
_cell_angle_alpha    90
_cell_angle_beta     92.585
_cell_angle_gamma    90

_symmetry_space_group_name_H-M    "P 1"
_symmetry_int_tables_number       1

loop_
  _symmetry_equiv_pos_as_xyz
  'x, y, z'

loop_
  _atom_site_label
  _atom_site_occupancy
  _atom_site_fract_x
  _atom_site_fract_y
  _atom_site_fract_z
  _atom_site_thermal_displace_type
  _atom_site_B_iso_or_equiv
  _atom_site_type_symbol
  Cu1      1.0000 0.25914  0.01252  0.31344  Biso   1.000  Cu
  Cu2      1.0000 0.25914  0.48748  0.81344  Biso   1.000  Cu
  Cu3      1.0000 0.74086  0.98748  0.68656  Biso   1.000  Cu
  Cu4      1.0000 0.74086  0.51252  0.18656  Biso   1.000  Cu
  N1       1.0000 0.96460  0.16460  0.31935  Biso   1.000  N
  N2       1.0000 0.96460  0.33540  0.81935  Biso   1.000  N
  N3       1.0000 0.03540  0.83540  0.68065  Biso   1.000  N
  N4       1.0000 0.03540  0.66460  0.18065  Biso   1.000  N
  N5       1.0000 0.90800  0.24960  0.41548  Biso   1.000  N
  N6       1.0000 0.90800  0.25040  0.91548  Biso   1.000  N
  N7       1.0000 0.09200  0.75040  0.58452  Biso   1.000  N
  N8       1.0000 0.09200  0.74960  0.08452  Biso   1.000  N
  N9       1.0000 0.81630  0.30510  0.23814  Biso   1.000  N
  N10      1.0000 0.81630  0.19490  0.73814  Biso   1.000  N
  N11      1.0000 0.18370  0.69490  0.76186  Biso   1.000  N
  N12      1.0000 0.18370  0.80510  0.26186  Biso   1.000  N
  N13      1.0000 0.57780  0.87690  0.32439  Biso   1.000  N
  N14      1.0000 0.57780  0.62310  0.82439  Biso   1.000  N
  N15      1.0000 0.42220  0.12310  0.67561  Biso   1.000  N
  N16      1.0000 0.42220  0.37690  0.17561  Biso   1.000  N
  N17      1.0000 0.67980  0.68580  0.24727  Biso   1.000  N
  N18      1.0000 0.67980  0.81420  0.74727  Biso   1.000  N
  N19      1.0000 0.32020  0.31420  0.75273  Biso   1.000  N
  N20      1.0000 0.32020  0.18580  0.25273  Biso   1.000  N
  N21      1.0000 0.65540  0.84720  0.42322  Biso   1.000  N
  N22      1.0000 0.65540  0.65280  0.92322  Biso   1.000  N
  N23      1.0000 0.34460  0.15280  0.57678  Biso   1.000  N
  N24      1.0000 0.34460  0.34720  0.07678  Biso   1.000  N
  N25      1.0000 0.19320  0.86540  0.37968  Biso   1.000  N
  N26      1.0000 0.19320  0.63460  0.87968  Biso   1.000  N
  N27      1.0000 0.80680  0.13460  0.62032  Biso   1.000  N
  N28      1.0000 0.80680  0.36540  0.12032  Biso   1.000  N
  N29      1.0000 0.17860  0.86570  0.47113  Biso   1.000  N
  N30      1.0000 0.17860  0.63430  0.97113  Biso   1.000  N
  N31      1.0000 0.82140  0.13430  0.52887  Biso   1.000  N
  N32      1.0000 0.82140  0.36570  0.02887  Biso   1.000  N
  N33      1.0000 0.35206  0.19270  0.37130  Biso   1.000  N
  N34      1.0000 0.35206  0.30730  0.87130  Biso   1.000  N
  N35      1.0000 0.64794  0.80730  0.62870  Biso   1.000  N
  N36      1.0000 0.64794  0.69270  0.12870  Biso   1.000  N
  N37      1.0000 0.40210  0.24260  0.46147  Biso   1.000  N
  N38      1.0000 0.40210  0.25740  0.96147  Biso   1.000  N
  N39      1.0000 0.59790  0.75740  0.53853  Biso   1.000  N
  N40      1.0000 0.59790  0.74260  0.03853  Biso   1.000  N
  C1       1.0000 0.92730  0.21480  0.36991  Biso   1.000  C
  C2       1.0000 0.92730  0.28520  0.86991  Biso   1.000  C
  C3       1.0000 0.07270  0.78520  0.63009  Biso   1.000  C
  C4       1.0000 0.07270  0.71480  0.13009  Biso   1.000  C
  C5       1.0000 0.88220  0.24370  0.27781  Biso   1.000  C
  C6       1.0000 0.88220  0.25630  0.77781  Biso   1.000  C
  C7       1.0000 0.11780  0.75630  0.72219  Biso   1.000  C
  C8       1.0000 0.11780  0.74370  0.22219  Biso   1.000  C
  C9       1.0000 0.63810  0.76990  0.28527  Biso   1.000  C
  C10      1.0000 0.63810  0.73010  0.78527  Biso   1.000  C
  C11      1.0000 0.36190  0.23010  0.71473  Biso   1.000  C
  C12      1.0000 0.36190  0.26990  0.21473  Biso   1.000  C
  C13      1.0000 0.62650  0.85300  0.37618  Biso   1.000  C
  C14      1.0000 0.62650  0.64700  0.87618  Biso   1.000  C
  C15      1.0000 0.37350  0.14700  0.62382  Biso   1.000  C
  C16      1.0000 0.37350  0.35300  0.12382  Biso   1.000  C
  C17      1.0000 0.23210  0.95100  0.42605  Biso   1.000  C
  C18      1.0000 0.23210  0.54900  0.92605  Biso   1.000  C
  C19      1.0000 0.76790  0.04900  0.57395  Biso   1.000  C
  C20      1.0000 0.76790  0.45100  0.07395  Biso   1.000  C
  C21      1.0000 0.07780  0.69210  0.45476  Biso   1.000  C
  C22      1.0000 0.07780  0.80790  0.95476  Biso   1.000  C
  C23      1.0000 0.92220  0.30790  0.54524  Biso   1.000  C
  C24      1.0000 0.92220  0.19210  0.04524  Biso   1.000  C
  C25      1.0000 0.08600  0.69430  0.39126  Biso   1.000  C
  C26      1.0000 0.08600  0.80570  0.89126  Biso   1.000  C
  C27      1.0000 0.91400  0.30570  0.60874  Biso   1.000  C
  C28      1.0000 0.91400  0.19430  0.10874  Biso   1.000  C
  C29      1.0000 0.33040  0.13470  0.42122  Biso   1.000  C
  C30      1.0000 0.33040  0.36530  0.92122  Biso   1.000  C
  C31      1.0000 0.66960  0.86530  0.57878  Biso   1.000  C
  C32      1.0000 0.66960  0.63470  0.07878  Biso   1.000  C
  C33      1.0000 0.48850  0.40960  0.43654  Biso   1.000  C
  C34      1.0000 0.48850  0.09040  0.93654  Biso   1.000  C
  C35      1.0000 0.51150  0.59040  0.56346  Biso   1.000  C
  C36      1.0000 0.51150  0.90960  0.06346  Biso   1.000  C
  C37      1.0000 0.46480  0.36490  0.37411  Biso   1.000  C
  C38      1.0000 0.46480  0.13510  0.87411  Biso   1.000  C
  C39      1.0000 0.53520  0.63510  0.62589  Biso   1.000  C
  C40      1.0000 0.53520  0.86490  0.12589  Biso   1.000  C
  H1       1.0000 0.18300  0.91200  0.50150  Biso   1.000  H
  H2       1.0000 0.18300  0.58800  0.00150  Biso   1.000  H
  H3       1.0000 0.81700  0.08800  0.49850  Biso   1.000  H
  H4       1.0000 0.81700  0.41200  0.99850  Biso   1.000  H
  H5       1.0000 0.96900  0.70700  0.46610  Biso   1.000  H
  H6       1.0000 0.96900  0.79300  0.96610  Biso   1.000  H
  H7       1.0000 0.03100  0.29300  0.53390  Biso   1.000  H
  H8       1.0000 0.03100  0.20700  0.03390  Biso   1.000  H
  H9       1.0000 0.13100  0.57100  0.47080  Biso   1.000  H
  H10      1.0000 0.13100  0.92900  0.97080  Biso   1.000  H
  H11      1.0000 0.86900  0.42900  0.52920  Biso   1.000  H
  H12      1.0000 0.86900  0.07100  0.02920  Biso   1.000  H
  H13      1.0000 0.98200  0.71600  0.37380  Biso   1.000  H
  H14      1.0000 0.98200  0.78400  0.87380  Biso   1.000  H
  H15      1.0000 0.01800  0.28400  0.62620  Biso   1.000  H
  H16      1.0000 0.01800  0.21600  0.12620  Biso   1.000  H
  H17      1.0000 0.13400  0.57000  0.37710  Biso   1.000  H
  H18      1.0000 0.13400  0.93000  0.87710  Biso   1.000  H
  H19      1.0000 0.86600  0.43000  0.62290  Biso   1.000  H
  H20      1.0000 0.86600  0.07000  0.12290  Biso   1.000  H
  H21      1.0000 0.39200  0.22200  0.49500  Biso   1.000  H
  H22      1.0000 0.39200  0.27800  0.99500  Biso   1.000  H
  H23      1.0000 0.60800  0.77800  0.50500  Biso   1.000  H
  H24      1.0000 0.60800  0.72200  0.00500  Biso   1.000  H
  H25      1.0000 0.43400  0.53300  0.44690  Biso   1.000  H
  H26      1.0000 0.43400  0.96700  0.94690  Biso   1.000  H
  H27      1.0000 0.56600  0.46700  0.55310  Biso   1.000  H
  H28      1.0000 0.56600  0.03300  0.05310  Biso   1.000  H
  H29      1.0000 0.60900  0.41500  0.44740  Biso   1.000  H
  H30      1.0000 0.60900  0.08500  0.94740  Biso   1.000  H
  H31      1.0000 0.39100  0.58500  0.55260  Biso   1.000  H
  H32      1.0000 0.39100  0.91500  0.05260  Biso   1.000  H
  H33      1.0000 0.41300  0.47400  0.35620  Biso   1.000  H
  H34      1.0000 0.41300  0.02600  0.85620  Biso   1.000  H
  H35      1.0000 0.58700  0.52600  0.64380  Biso   1.000  H
  H36      1.0000 0.58700  0.97400  0.14380  Biso   1.000  H
  H37      1.0000 0.56700  0.33700  0.35690  Biso   1.000  H
  H38      1.0000 0.56700  0.16300  0.85690  Biso   1.000  H
  H39      1.0000 0.43300  0.66300  0.64310  Biso   1.000  H
  H40      1.0000 0.43300  0.83700  0.14310  Biso   1.000  H
