data_image0
_cell_length_a       7.3569
_cell_length_b       13.4482
_cell_length_c       7.4559
_cell_angle_alpha    90
_cell_angle_beta     98.984
_cell_angle_gamma    90

_symmetry_space_group_name_H-M    "P 1"
_symmetry_int_tables_number       1

loop_
  _symmetry_equiv_pos_as_xyz
  'x, y, z'

loop_
  _atom_site_label
  _atom_site_occupancy
  _atom_site_fract_x
  _atom_site_fract_y
  _atom_site_fract_z
  _atom_site_thermal_displace_type
  _atom_site_B_iso_or_equiv
  _atom_site_type_symbol
  Cu1      1.0000 0.00000  0.00000  0.00000  Biso   1.000  Cu
  Cu2      1.0000 0.00000  0.50000  0.50000  Biso   1.000  Cu
  N1       1.0000 0.84610  0.04500  0.18260  Biso   1.000  N
  N2       1.0000 0.84610  0.45500  0.68260  Biso   1.000  N
  N3       1.0000 0.15390  0.95500  0.81740  Biso   1.000  N
  N4       1.0000 0.15390  0.54500  0.31740  Biso   1.000  N
  N5       1.0000 0.14070  0.13070  0.02640  Biso   1.000  N
  N6       1.0000 0.14070  0.36930  0.52640  Biso   1.000  N
  N7       1.0000 0.85930  0.86930  0.97360  Biso   1.000  N
  N8       1.0000 0.85930  0.63070  0.47360  Biso   1.000  N
  C1       1.0000 0.78190  0.06400  0.30770  Biso   1.000  C
  C2       1.0000 0.78190  0.43600  0.80770  Biso   1.000  C
  C3       1.0000 0.21810  0.93600  0.69230  Biso   1.000  C
  C4       1.0000 0.21810  0.56400  0.19230  Biso   1.000  C
  N9       1.0000 0.13070  0.30690  0.02370  Biso   1.000  N
  N10      1.0000 0.13070  0.19310  0.52370  Biso   1.000  N
  N11      1.0000 0.86930  0.69310  0.97630  Biso   1.000  N
  N12      1.0000 0.86930  0.80690  0.47630  Biso   1.000  N
  C5       1.0000 0.05300  0.21770  0.01120  Biso   1.000  C
  C6       1.0000 0.05300  0.28230  0.51120  Biso   1.000  C
  C7       1.0000 0.94700  0.78230  0.98880  Biso   1.000  C
  C8       1.0000 0.94700  0.71770  0.48880  Biso   1.000  C
  H1       1.0000 0.92510  0.21570  0.98980  Biso   1.000  H
  H2       1.0000 0.92510  0.28430  0.48980  Biso   1.000  H
  H3       1.0000 0.07490  0.78430  0.01020  Biso   1.000  H
  H4       1.0000 0.07490  0.71570  0.51020  Biso   1.000  H
  C9       1.0000 0.32380  0.13440  0.05830  Biso   1.000  C
  C10      1.0000 0.32380  0.36560  0.55830  Biso   1.000  C
  C11      1.0000 0.67620  0.86560  0.94170  Biso   1.000  C
  C12      1.0000 0.67620  0.63440  0.44170  Biso   1.000  C
  H5       1.0000 0.39030  0.07540  0.07090  Biso   1.000  H
  H6       1.0000 0.39030  0.42460  0.57090  Biso   1.000  H
  H7       1.0000 0.60970  0.92460  0.92910  Biso   1.000  H
  H8       1.0000 0.60970  0.57540  0.42910  Biso   1.000  H
  N13      1.0000 0.69170  0.08830  0.43430  Biso   1.000  N
  N14      1.0000 0.69170  0.41170  0.93430  Biso   1.000  N
  N15      1.0000 0.30830  0.91170  0.56570  Biso   1.000  N
  N16      1.0000 0.30830  0.58830  0.06570  Biso   1.000  N
  C13      1.0000 0.41660  0.22270  0.07300  Biso   1.000  C
  C14      1.0000 0.41660  0.27730  0.57300  Biso   1.000  C
  C15      1.0000 0.58340  0.77730  0.92700  Biso   1.000  C
  C16      1.0000 0.58340  0.72270  0.42700  Biso   1.000  C
  H9       1.0000 0.54450  0.22500  0.09390  Biso   1.000  H
  H10      1.0000 0.54450  0.27500  0.59390  Biso   1.000  H
  H11      1.0000 0.45550  0.77500  0.90610  Biso   1.000  H
  H12      1.0000 0.45550  0.72500  0.40610  Biso   1.000  H
  C17      1.0000 0.31380  0.30730  0.05570  Biso   1.000  C
  C18      1.0000 0.31380  0.19270  0.55570  Biso   1.000  C
  C19      1.0000 0.68620  0.69270  0.94430  Biso   1.000  C
  C20      1.0000 0.68620  0.80730  0.44430  Biso   1.000  C
  H13      1.0000 0.37440  0.36820  0.06680  Biso   1.000  H
  H14      1.0000 0.37440  0.13180  0.56680  Biso   1.000  H
  H15      1.0000 0.62560  0.63180  0.93320  Biso   1.000  H
  H16      1.0000 0.62560  0.86820  0.43320  Biso   1.000  H
  C21      1.0000 0.74850  0.07670  0.60470  Biso   1.000  C
  C22      1.0000 0.74850  0.42330  0.10470  Biso   1.000  C
  C23      1.0000 0.25150  0.92330  0.39530  Biso   1.000  C
  C24      1.0000 0.25150  0.57670  0.89530  Biso   1.000  C
  N17      1.0000 0.77840  0.07150  0.75970  Biso   1.000  N
  N18      1.0000 0.77840  0.42850  0.25970  Biso   1.000  N
  N19      1.0000 0.22160  0.92850  0.24030  Biso   1.000  N
  N20      1.0000 0.22160  0.57150  0.74030  Biso   1.000  N
