data_image0
_cell_length_a       7.7439
_cell_length_b       9.3388
_cell_length_c       10.1779
_cell_angle_alpha    86.014
_cell_angle_beta     88.505
_cell_angle_gamma    73.623

_symmetry_space_group_name_H-M    "P 1"
_symmetry_int_tables_number       1

loop_
  _symmetry_equiv_pos_as_xyz
  'x, y, z'

loop_
  _atom_site_label
  _atom_site_occupancy
  _atom_site_fract_x
  _atom_site_fract_y
  _atom_site_fract_z
  _atom_site_thermal_displace_type
  _atom_site_B_iso_or_equiv
  _atom_site_type_symbol
  Cu1      1.0000 0.00000  0.00000  0.50000  Biso   1.000  Cu
  Cu2      1.0000 0.33652  0.27891  0.08026  Biso   1.000  Cu
  Cu3      1.0000 0.66348  0.72109  0.91974  Biso   1.000  Cu
  N1       1.0000 0.37150  0.10300  0.22328  Biso   1.000  N
  N2       1.0000 0.62850  0.89700  0.77672  Biso   1.000  N
  C1       1.0000 0.51970  0.86050  0.31590  Biso   1.000  C
  C2       1.0000 0.48030  0.13950  0.68410  Biso   1.000  C
  H1       1.0000 0.61980  0.77720  0.32030  Biso   1.000  H
  H2       1.0000 0.38020  0.22280  0.67970  Biso   1.000  H
  N3       1.0000 0.57580  0.18230  0.00534  Biso   1.000  N
  N4       1.0000 0.42420  0.81770  0.99466  Biso   1.000  N
  C3       1.0000 0.51600  0.98320  0.23090  Biso   1.000  C
  C4       1.0000 0.48400  0.01680  0.76910  Biso   1.000  C
  H3       1.0000 0.61580  0.98260  0.17780  Biso   1.000  H
  H4       1.0000 0.38420  0.01740  0.82220  Biso   1.000  H
  N5       1.0000 0.31840  0.44390  0.94560  Biso   1.000  N
  N6       1.0000 0.68160  0.55610  0.05440  Biso   1.000  N
  N7       1.0000 0.01310  0.19170  0.56230  Biso   1.000  N
  N8       1.0000 0.98690  0.80830  0.43770  Biso   1.000  N
  N9       1.0000 0.22730  0.98656  0.38829  Biso   1.000  N
  N10      1.0000 0.77270  0.01344  0.61171  Biso   1.000  N
  C5       1.0000 0.23310  0.09870  0.30320  Biso   1.000  C
  C6       1.0000 0.76690  0.90130  0.69680  Biso   1.000  C
  H5       1.0000 0.13250  0.18160  0.29850  Biso   1.000  H
  H6       1.0000 0.86750  0.81840  0.70150  Biso   1.000  H
  N11      1.0000 0.85590  0.18040  0.89060  Biso   1.000  N
  N12      1.0000 0.14410  0.81960  0.10940  Biso   1.000  N
  C7       1.0000 0.71210  0.18300  0.95770  Biso   1.000  C
  C8       1.0000 0.28790  0.81700  0.04230  Biso   1.000  C
  C9       1.0000 0.01510  0.29640  0.61310  Biso   1.000  C
  C10      1.0000 0.98490  0.70360  0.38690  Biso   1.000  C
  C11      1.0000 0.37110  0.86520  0.39390  Biso   1.000  C
  C12      1.0000 0.62890  0.13480  0.60610  Biso   1.000  C
  H7       1.0000 0.36980  0.78350  0.45120  Biso   1.000  H
  H8       1.0000 0.63020  0.21650  0.54880  Biso   1.000  H
  C13      1.0000 0.33430  0.52420  0.85940  Biso   1.000  C
  C14      1.0000 0.66570  0.47580  0.14060  Biso   1.000  C
  N13      1.0000 0.37100  0.60480  0.75900  Biso   1.000  N
  N14      1.0000 0.62900  0.39520  0.24100  Biso   1.000  N
  C15      1.0000 0.92270  0.49900  0.73710  Biso   1.000  C
  C16      1.0000 0.07730  0.50100  0.26290  Biso   1.000  C
  N15      1.0000 0.04220  0.41070  0.66500  Biso   1.000  N
  N16      1.0000 0.95780  0.58930  0.33500  Biso   1.000  N
  N17      1.0000 0.83080  0.58610  0.80060  Biso   1.000  N
  N18      1.0000 0.16920  0.41390  0.19940  Biso   1.000  N
  O1       1.0000 0.61380  0.53770  0.52250  Biso   1.000  O
  O2       1.0000 0.38620  0.46230  0.47750  Biso   1.000  O
  C17      1.0000 0.26470  0.73550  0.72210  Biso   1.000  C
  C18      1.0000 0.73530  0.26450  0.27790  Biso   1.000  C
  N19      1.0000 0.18600  0.85170  0.67970  Biso   1.000  N
  N20      1.0000 0.81400  0.14830  0.32030  Biso   1.000  N
  C19      1.0000 0.00350  0.18680  0.94580  Biso   1.000  C
  C20      1.0000 0.99650  0.81320  0.05420  Biso   1.000  C
  N21      1.0000 0.14010  0.19130  0.98400  Biso   1.000  N
  N22      1.0000 0.85990  0.80870  0.01600  Biso   1.000  N
