data_image0
_cell_length_a       7.6475
_cell_length_b       12.2422
_cell_length_c       11.0286
_cell_angle_alpha    90
_cell_angle_beta     106.585
_cell_angle_gamma    90

_symmetry_space_group_name_H-M    "P 1"
_symmetry_int_tables_number       1

loop_
  _symmetry_equiv_pos_as_xyz
  'x, y, z'

loop_
  _atom_site_label
  _atom_site_occupancy
  _atom_site_fract_x
  _atom_site_fract_y
  _atom_site_fract_z
  _atom_site_thermal_displace_type
  _atom_site_B_iso_or_equiv
  _atom_site_type_symbol
  Cu1      1.0000 0.04251  0.76054  0.24474  Biso   1.000  Cu
  Cu2      1.0000 0.54251  0.73946  0.74474  Biso   1.000  Cu
  Cu3      1.0000 0.95749  0.23946  0.75526  Biso   1.000  Cu
  Cu4      1.0000 0.45749  0.26054  0.25526  Biso   1.000  Cu
  N1       1.0000 0.68763  0.65472  0.89810  Biso   1.000  N
  N2       1.0000 0.18763  0.84528  0.39810  Biso   1.000  N
  N3       1.0000 0.31237  0.34528  0.10190  Biso   1.000  N
  N4       1.0000 0.81237  0.15472  0.60190  Biso   1.000  N
  N5       1.0000 0.12970  0.85526  0.12690  Biso   1.000  N
  N6       1.0000 0.62970  0.64474  0.62690  Biso   1.000  N
  N7       1.0000 0.87030  0.14474  0.87310  Biso   1.000  N
  N8       1.0000 0.37030  0.35526  0.37310  Biso   1.000  N
  C1       1.0000 0.20640  0.88714  0.05884  Biso   1.000  C
  C2       1.0000 0.70640  0.61286  0.55884  Biso   1.000  C
  C3       1.0000 0.79360  0.11286  0.94116  Biso   1.000  C
  C4       1.0000 0.29360  0.38714  0.44116  Biso   1.000  C
  C5       1.0000 0.80250  0.70863  0.99267  Biso   1.000  C
  C6       1.0000 0.30250  0.79137  0.49267  Biso   1.000  C
  C7       1.0000 0.19750  0.29137  0.00733  Biso   1.000  C
  C8       1.0000 0.69750  0.20863  0.50733  Biso   1.000  C
  H1       1.0000 0.81400  0.78350  0.98320  Biso   1.000  H
  H2       1.0000 0.31400  0.71650  0.48320  Biso   1.000  H
  H3       1.0000 0.18600  0.21650  0.01680  Biso   1.000  H
  H4       1.0000 0.68600  0.28350  0.51680  Biso   1.000  H
  O1       1.0000 0.79820  0.87948  0.21654  Biso   1.000  O
  O2       1.0000 0.29820  0.62052  0.71654  Biso   1.000  O
  O3       1.0000 0.20180  0.12052  0.78346  Biso   1.000  O
  O4       1.0000 0.70180  0.37948  0.28346  Biso   1.000  O
  N9       1.0000 0.28890  0.93367  0.98366  Biso   1.000  N
  N10      1.0000 0.78890  0.56633  0.48366  Biso   1.000  N
  N11      1.0000 0.71110  0.06633  0.01634  Biso   1.000  N
  N12      1.0000 0.21110  0.43367  0.51634  Biso   1.000  N
  C9       1.0000 0.67080  0.54690  0.91027  Biso   1.000  C
  C10      1.0000 0.17080  0.95310  0.41027  Biso   1.000  C
  C11      1.0000 0.32920  0.45310  0.08973  Biso   1.000  C
  C12      1.0000 0.82920  0.04690  0.58973  Biso   1.000  C
  H5       1.0000 0.59050  0.50770  0.84570  Biso   1.000  H
  H6       1.0000 0.09050  0.99230  0.34570  Biso   1.000  H
  H7       1.0000 0.40950  0.49230  0.15430  Biso   1.000  H
  H8       1.0000 0.90950  0.00770  0.65430  Biso   1.000  H
  N13      1.0000 0.45320  0.71032  0.24151  Biso   1.000  N
  N14      1.0000 0.95320  0.78968  0.74151  Biso   1.000  N
  N15      1.0000 0.54680  0.28968  0.75849  Biso   1.000  N
  N16      1.0000 0.04680  0.21032  0.25849  Biso   1.000  N
  O5       1.0000 0.53280  0.78316  0.31590  Biso   1.000  O
  O6       1.0000 0.03280  0.71684  0.81590  Biso   1.000  O
  O7       1.0000 0.46720  0.21684  0.68410  Biso   1.000  O
  O8       1.0000 0.96720  0.28316  0.18410  Biso   1.000  O
  O9       1.0000 0.49430  0.69508  0.14238  Biso   1.000  O
  O10      1.0000 0.99430  0.80492  0.64238  Biso   1.000  O
  O11      1.0000 0.50570  0.30492  0.85762  Biso   1.000  O
  O12      1.0000 0.00570  0.19508  0.35762  Biso   1.000  O
  O13      1.0000 0.32890  0.65468  0.26591  Biso   1.000  O
  O14      1.0000 0.82890  0.84532  0.76591  Biso   1.000  O
  O15      1.0000 0.67110  0.34532  0.73409  Biso   1.000  O
  O16      1.0000 0.17110  0.15468  0.23409  Biso   1.000  O
  C13      1.0000 0.77160  0.49302  0.01792  Biso   1.000  C
  C14      1.0000 0.27160  0.00698  0.51792  Biso   1.000  C
  C15      1.0000 0.22840  0.50698  0.98208  Biso   1.000  C
  C16      1.0000 0.72840  0.99302  0.48208  Biso   1.000  C
  H9       1.0000 0.76190  0.41790  0.02650  Biso   1.000  H
  H10      1.0000 0.26190  0.08210  0.52650  Biso   1.000  H
  H11      1.0000 0.23810  0.58210  0.97350  Biso   1.000  H
  H12      1.0000 0.73810  0.91790  0.47350  Biso   1.000  H
  N17      1.0000 0.90184  0.66336  0.09961  Biso   1.000  N
  N18      1.0000 0.40184  0.83664  0.59961  Biso   1.000  N
  N19      1.0000 0.09816  0.33664  0.90039  Biso   1.000  N
  N20      1.0000 0.59816  0.16336  0.40039  Biso   1.000  N
  C17      1.0000 0.88630  0.55443  0.11158  Biso   1.000  C
  C18      1.0000 0.38630  0.94557  0.61158  Biso   1.000  C
  C19      1.0000 0.11370  0.44557  0.88842  Biso   1.000  C
  C20      1.0000 0.61370  0.05443  0.38842  Biso   1.000  C
  H13      1.0000 0.95500  0.52010  0.18500  Biso   1.000  H
  H14      1.0000 0.45500  0.97990  0.68500  Biso   1.000  H
  H15      1.0000 0.04500  0.47990  0.81500  Biso   1.000  H
  H16      1.0000 0.54500  0.02010  0.31500  Biso   1.000  H
  H17      1.0000 0.71000  0.84500  0.22100  Biso   1.000  H
  H18      1.0000 0.21000  0.65500  0.72100  Biso   1.000  H
  H19      1.0000 0.29000  0.15500  0.77900  Biso   1.000  H
  H20      1.0000 0.79000  0.34500  0.27900  Biso   1.000  H
  H21      1.0000 0.78000  0.91000  0.15800  Biso   1.000  H
  H22      1.0000 0.28000  0.59000  0.65800  Biso   1.000  H
  H23      1.0000 0.22000  0.09000  0.84200  Biso   1.000  H
  H24      1.0000 0.72000  0.41000  0.34200  Biso   1.000  H
  C21      1.0000 0.37700  0.87501  0.92196  Biso   1.000  C
  C22      1.0000 0.87700  0.62499  0.42196  Biso   1.000  C
  C23      1.0000 0.62300  0.12499  0.07804  Biso   1.000  C
  C24      1.0000 0.12300  0.37501  0.57804  Biso   1.000  C
  N21      1.0000 0.45960  0.83513  0.86215  Biso   1.000  N
  N22      1.0000 0.95960  0.66487  0.36215  Biso   1.000  N
  N23      1.0000 0.54040  0.16487  0.13785  Biso   1.000  N
  N24      1.0000 0.04040  0.33513  0.63785  Biso   1.000  N
