data_image0
_cell_length_a       7.5006
_cell_length_b       12.0252
_cell_length_c       14.2116
_cell_angle_alpha    73.878
_cell_angle_beta     89.642
_cell_angle_gamma    73.102

_symmetry_space_group_name_H-M    "P 1"
_symmetry_int_tables_number       1

loop_
  _symmetry_equiv_pos_as_xyz
  'x, y, z'

loop_
  _atom_site_label
  _atom_site_occupancy
  _atom_site_fract_x
  _atom_site_fract_y
  _atom_site_fract_z
  _atom_site_thermal_displace_type
  _atom_site_B_iso_or_equiv
  _atom_site_type_symbol
  Au1      1.0000 0.00000  0.00000  0.00000  Biso   1.000  Au
  Au2      1.0000 0.03006  0.64519  0.27849  Biso   1.000  Au
  Au3      1.0000 0.96994  0.35481  0.72151  Biso   1.000  Au
  Au4      1.0000 0.50000  0.50000  0.00000  Biso   1.000  Au
  Cu1      1.0000 0.41659  0.10868  0.21454  Biso   1.000  Cu
  Cu2      1.0000 0.58341  0.89132  0.78546  Biso   1.000  Cu
  O1       1.0000 0.29290  0.27730  0.12300  Biso   1.000  O
  O2       1.0000 0.70710  0.72270  0.87700  Biso   1.000  O
  O3       1.0000 0.13780  0.11890  0.31160  Biso   1.000  O
  O4       1.0000 0.86220  0.88110  0.68840  Biso   1.000  O
  N1       1.0000 0.54190  0.16290  0.30770  Biso   1.000  N
  N2       1.0000 0.45810  0.83710  0.69230  Biso   1.000  N
  N3       1.0000 0.53600  0.94660  0.31150  Biso   1.000  N
  N4       1.0000 0.46400  0.05340  0.68850  Biso   1.000  N
  N5       1.0000 0.66110  0.10680  0.10910  Biso   1.000  N
  N6       1.0000 0.33890  0.89320  0.89090  Biso   1.000  N
  N7       1.0000 0.28340  0.04540  0.13240  Biso   1.000  N
  N8       1.0000 0.71660  0.95460  0.86760  Biso   1.000  N
  N9       1.0000 0.80010  0.72660  0.07590  Biso   1.000  N
  N10      1.0000 0.19990  0.27340  0.92410  Biso   1.000  N
  N11      1.0000 0.02100  0.90560  0.28310  Biso   1.000  N
  N12      1.0000 0.97900  0.09440  0.71690  Biso   1.000  N
  N13      1.0000 0.24400  0.55290  0.48500  Biso   1.000  N
  N14      1.0000 0.75600  0.44710  0.51500  Biso   1.000  N
  N15      1.0000 0.05460  0.37680  0.29980  Biso   1.000  N
  N16      1.0000 0.94540  0.62320  0.70020  Biso   1.000  N
  N17      1.0000 0.89720  0.35190  0.10420  Biso   1.000  N
  N18      1.0000 0.10280  0.64810  0.89580  Biso   1.000  N
  N19      1.0000 0.61280  0.38440  0.82860  Biso   1.000  N
  N20      1.0000 0.38720  0.61560  0.17140  Biso   1.000  N
  C1       1.0000 0.53970  0.27690  0.29790  Biso   1.000  C
  C2       1.0000 0.46030  0.72310  0.70210  Biso   1.000  C
  C3       1.0000 0.63680  0.30580  0.36500  Biso   1.000  C
  C4       1.0000 0.36320  0.69420  0.63500  Biso   1.000  C
  C5       1.0000 0.73740  0.21320  0.44570  Biso   1.000  C
  C6       1.0000 0.26260  0.78680  0.55430  Biso   1.000  C
  C7       1.0000 0.73800  0.09680  0.45600  Biso   1.000  C
  C8       1.0000 0.26200  0.90320  0.54400  Biso   1.000  C
  C9       1.0000 0.63890  0.07340  0.38700  Biso   1.000  C
  C10      1.0000 0.36110  0.92660  0.61300  Biso   1.000  C
  C11      1.0000 0.63060  0.95160  0.38870  Biso   1.000  C
  C12      1.0000 0.36940  0.04840  0.61130  Biso   1.000  C
  C13      1.0000 0.71500  0.84830  0.46580  Biso   1.000  C
  C14      1.0000 0.28500  0.15170  0.53420  Biso   1.000  C
  C15      1.0000 0.70050  0.73870  0.46030  Biso   1.000  C
  C16      1.0000 0.29950  0.26130  0.53970  Biso   1.000  C
  C17      1.0000 0.60220  0.73460  0.37940  Biso   1.000  C
  C18      1.0000 0.39780  0.26540  0.62060  Biso   1.000  C
  C19      1.0000 0.52400  0.84000  0.30640  Biso   1.000  C
  C20      1.0000 0.47600  0.16000  0.69360  Biso   1.000  C
  C21      1.0000 0.78500  0.07160  0.07000  Biso   1.000  C
  C22      1.0000 0.21500  0.92840  0.93000  Biso   1.000  C
  C23      1.0000 0.18100  0.02800  0.08590  Biso   1.000  C
  C24      1.0000 0.81900  0.97200  0.91410  Biso   1.000  C
  C25      1.0000 0.88360  0.70000  0.14830  Biso   1.000  C
  C26      1.0000 0.11640  0.30000  0.85170  Biso   1.000  C
  C27      1.0000 0.02190  0.81460  0.27800  Biso   1.000  C
  C28      1.0000 0.97810  0.18540  0.72200  Biso   1.000  C
  C29      1.0000 0.16990  0.58630  0.40980  Biso   1.000  C
  C30      1.0000 0.83010  0.41370  0.59020  Biso   1.000  C
  C31      1.0000 0.04190  0.47560  0.28910  Biso   1.000  C
  C32      1.0000 0.95810  0.52440  0.71090  Biso   1.000  C
  C33      1.0000 0.75170  0.40460  0.06830  Biso   1.000  C
  C34      1.0000 0.24830  0.59540  0.93170  Biso   1.000  C
  C35      1.0000 0.57010  0.42300  0.89190  Biso   1.000  C
  C36      1.0000 0.42990  0.57700  0.10810  Biso   1.000  C
  H1       1.0000 0.27270  0.27840  0.05860  Biso   1.000  H
  H2       1.0000 0.72730  0.72160  0.94140  Biso   1.000  H
  H3       1.0000 0.16640  0.29320  0.13180  Biso   1.000  H
  H4       1.0000 0.83360  0.70680  0.86820  Biso   1.000  H
  H5       1.0000 0.05950  0.08300  0.28940  Biso   1.000  H
  H6       1.0000 0.94050  0.91700  0.71060  Biso   1.000  H
  H7       1.0000 0.10440  0.20250  0.29320  Biso   1.000  H
  H8       1.0000 0.89560  0.79750  0.70680  Biso   1.000  H
  H9       1.0000 0.47010  0.33990  0.24300  Biso   1.000  H
  H10      1.0000 0.52990  0.66010  0.75700  Biso   1.000  H
  H11      1.0000 0.63450  0.38740  0.35670  Biso   1.000  H
  H12      1.0000 0.36550  0.61260  0.64330  Biso   1.000  H
  H13      1.0000 0.80600  0.23090  0.49270  Biso   1.000  H
  H14      1.0000 0.19400  0.76910  0.50730  Biso   1.000  H
  H15      1.0000 0.80500  0.03270  0.51090  Biso   1.000  H
  H16      1.0000 0.19500  0.96730  0.48910  Biso   1.000  H
  H17      1.0000 0.78000  0.85340  0.52080  Biso   1.000  H
  H18      1.0000 0.22000  0.14660  0.47920  Biso   1.000  H
  H19      1.0000 0.75760  0.66650  0.51150  Biso   1.000  H
  H20      1.0000 0.24240  0.33350  0.48850  Biso   1.000  H
  H21      1.0000 0.59000  0.65970  0.37490  Biso   1.000  H
  H22      1.0000 0.41000  0.34030  0.62510  Biso   1.000  H
  H23      1.0000 0.45900  0.83690  0.25050  Biso   1.000  H
  H24      1.0000 0.54100  0.16310  0.74950  Biso   1.000  H
