data_image0
_cell_length_a       7.863
_cell_length_b       11.0034
_cell_length_c       14.3323
_cell_angle_alpha    90
_cell_angle_beta     90
_cell_angle_gamma    90

_symmetry_space_group_name_H-M    "P 1"
_symmetry_int_tables_number       1

loop_
  _symmetry_equiv_pos_as_xyz
  'x, y, z'

loop_
  _atom_site_label
  _atom_site_occupancy
  _atom_site_fract_x
  _atom_site_fract_y
  _atom_site_fract_z
  _atom_site_thermal_displace_type
  _atom_site_B_iso_or_equiv
  _atom_site_type_symbol
  C1       1.0000 0.91130  0.01300  0.12331  Biso   1.000  C
  C2       1.0000 0.58870  0.98700  0.62331  Biso   1.000  C
  C3       1.0000 0.41130  0.48700  0.87669  Biso   1.000  C
  C4       1.0000 0.08870  0.51300  0.37669  Biso   1.000  C
  C5       1.0000 0.89760  0.01230  0.21919  Biso   1.000  C
  C6       1.0000 0.60240  0.98770  0.71919  Biso   1.000  C
  C7       1.0000 0.39760  0.48770  0.78081  Biso   1.000  C
  C8       1.0000 0.10240  0.51230  0.28081  Biso   1.000  C
  H1       1.0000 0.83430  0.07120  0.25020  Biso   1.000  H
  H2       1.0000 0.66570  0.92880  0.75020  Biso   1.000  H
  H3       1.0000 0.33430  0.42880  0.74980  Biso   1.000  H
  H4       1.0000 0.16570  0.57120  0.24980  Biso   1.000  H
  C9       1.0000 0.98060  0.92150  0.26788  Biso   1.000  C
  C10      1.0000 0.51940  0.07850  0.76788  Biso   1.000  C
  C11      1.0000 0.48060  0.57850  0.73212  Biso   1.000  C
  C12      1.0000 0.01940  0.42150  0.23212  Biso   1.000  C
  H5       1.0000 0.97260  0.91900  0.33260  Biso   1.000  H
  H6       1.0000 0.52740  0.08100  0.83260  Biso   1.000  H
  H7       1.0000 0.47260  0.58100  0.66740  Biso   1.000  H
  H8       1.0000 0.02740  0.41900  0.16740  Biso   1.000  H
  C13      1.0000 0.07530  0.83470  0.22174  Biso   1.000  C
  C14      1.0000 0.42470  0.16530  0.72174  Biso   1.000  C
  C15      1.0000 0.57530  0.66530  0.77826  Biso   1.000  C
  C16      1.0000 0.92470  0.33470  0.27826  Biso   1.000  C
  H9       1.0000 0.13430  0.77530  0.25460  Biso   1.000  H
  H10      1.0000 0.36570  0.22470  0.75460  Biso   1.000  H
  H11      1.0000 0.63430  0.72470  0.74540  Biso   1.000  H
  H12      1.0000 0.86570  0.27530  0.24540  Biso   1.000  H
  C17      1.0000 0.08020  0.83835  0.12599  Biso   1.000  C
  C18      1.0000 0.41980  0.16165  0.62599  Biso   1.000  C
  C19      1.0000 0.58020  0.66165  0.87401  Biso   1.000  C
  C20      1.0000 0.91980  0.33835  0.37401  Biso   1.000  C
  C21      1.0000 0.18080  0.75673  0.06089  Biso   1.000  C
  C22      1.0000 0.31920  0.24327  0.56089  Biso   1.000  C
  C23      1.0000 0.68080  0.74327  0.93911  Biso   1.000  C
  C24      1.0000 0.81920  0.25673  0.43911  Biso   1.000  C
  C25      1.0000 0.84580  0.10848  0.05621  Biso   1.000  C
  C26      1.0000 0.65420  0.89152  0.55621  Biso   1.000  C
  C27      1.0000 0.34580  0.39152  0.94379  Biso   1.000  C
  C28      1.0000 0.15420  0.60848  0.44379  Biso   1.000  C
  C29      1.0000 0.49600  0.95730  0.26651  Biso   1.000  C
  C30      1.0000 0.00400  0.04270  0.76651  Biso   1.000  C
  C31      1.0000 0.99600  0.54270  0.73349  Biso   1.000  C
  C32      1.0000 0.50400  0.45730  0.23349  Biso   1.000  C
  H13      1.0000 0.54730  0.89360  0.29850  Biso   1.000  H
  H14      1.0000 0.95270  0.10640  0.79850  Biso   1.000  H
  H15      1.0000 0.04730  0.60640  0.70150  Biso   1.000  H
  H16      1.0000 0.45270  0.39360  0.20150  Biso   1.000  H
  C33      1.0000 0.48600  0.95200  0.17014  Biso   1.000  C
  C34      1.0000 0.01400  0.04800  0.67014  Biso   1.000  C
  C35      1.0000 0.98600  0.54800  0.82986  Biso   1.000  C
  C36      1.0000 0.51400  0.45200  0.32986  Biso   1.000  C
  H17      1.0000 0.53100  0.88570  0.13840  Biso   1.000  H
  H18      1.0000 0.96900  0.11430  0.63840  Biso   1.000  H
  H19      1.0000 0.03100  0.61430  0.86160  Biso   1.000  H
  H20      1.0000 0.46900  0.38570  0.36160  Biso   1.000  H
  C37      1.0000 0.41040  0.04400  0.12187  Biso   1.000  C
  C38      1.0000 0.08960  0.95600  0.62187  Biso   1.000  C
  C39      1.0000 0.91040  0.45600  0.87813  Biso   1.000  C
  C40      1.0000 0.58960  0.54400  0.37813  Biso   1.000  C
  C41      1.0000 0.33880  0.13780  0.17219  Biso   1.000  C
  C42      1.0000 0.16120  0.86220  0.67219  Biso   1.000  C
  C43      1.0000 0.83880  0.36220  0.82781  Biso   1.000  C
  C44      1.0000 0.66120  0.63780  0.32781  Biso   1.000  C
  H21      1.0000 0.28090  0.20000  0.14180  Biso   1.000  H
  H22      1.0000 0.21910  0.80000  0.64180  Biso   1.000  H
  H23      1.0000 0.78090  0.30000  0.85820  Biso   1.000  H
  H24      1.0000 0.71910  0.70000  0.35820  Biso   1.000  H
  C45      1.0000 0.35390  0.13850  0.26763  Biso   1.000  C
  C46      1.0000 0.14610  0.86150  0.76763  Biso   1.000  C
  C47      1.0000 0.85390  0.36150  0.73237  Biso   1.000  C
  C48      1.0000 0.64610  0.63850  0.23237  Biso   1.000  C
  H25      1.0000 0.30640  0.20250  0.30100  Biso   1.000  H
  H26      1.0000 0.19360  0.79750  0.80100  Biso   1.000  H
  H27      1.0000 0.80640  0.29750  0.69900  Biso   1.000  H
  H28      1.0000 0.69360  0.70250  0.19900  Biso   1.000  H
  C49      1.0000 0.41070  0.04570  0.01637  Biso   1.000  C
  C50      1.0000 0.08930  0.95430  0.51637  Biso   1.000  C
  C51      1.0000 0.91070  0.45430  0.98363  Biso   1.000  C
  C52      1.0000 0.58930  0.54570  0.48363  Biso   1.000  C
  H29      1.0000 0.49560  0.10310  0.99480  Biso   1.000  H
  H30      1.0000 0.00440  0.89690  0.49480  Biso   1.000  H
  H31      1.0000 0.99560  0.39690  0.00520  Biso   1.000  H
  H32      1.0000 0.50440  0.60310  0.50520  Biso   1.000  H
  H33      1.0000 0.44230  0.96580  0.99350  Biso   1.000  H
  H34      1.0000 0.05770  0.03420  0.49350  Biso   1.000  H
  H35      1.0000 0.94230  0.53420  0.00650  Biso   1.000  H
  H36      1.0000 0.55770  0.46580  0.50650  Biso   1.000  H
  Cu1      1.0000 0.02225  0.93538  0.94861  Biso   1.000  Cu
  Cu2      1.0000 0.47775  0.06462  0.44861  Biso   1.000  Cu
  Cu3      1.0000 0.52225  0.56462  0.05139  Biso   1.000  Cu
  Cu4      1.0000 0.97775  0.43538  0.55139  Biso   1.000  Cu
  N1       1.0000 0.99750  0.92572  0.08035  Biso   1.000  N
  N2       1.0000 0.50250  0.07428  0.58035  Biso   1.000  N
  N3       1.0000 0.49750  0.57428  0.91965  Biso   1.000  N
  N4       1.0000 0.00250  0.42572  0.41965  Biso   1.000  N
  N5       1.0000 0.43450  0.05047  0.31449  Biso   1.000  N
  N6       1.0000 0.06550  0.94953  0.81449  Biso   1.000  N
  N7       1.0000 0.93450  0.44953  0.68551  Biso   1.000  N
  N8       1.0000 0.56550  0.55047  0.18551  Biso   1.000  N
  O1       1.0000 0.87300  0.08725  0.97032  Biso   1.000  O
  O2       1.0000 0.62700  0.91275  0.47032  Biso   1.000  O
  O3       1.0000 0.37300  0.41275  0.02968  Biso   1.000  O
  O4       1.0000 0.12700  0.58725  0.52968  Biso   1.000  O
  O5       1.0000 0.16900  0.78479  0.97438  Biso   1.000  O
  O6       1.0000 0.33100  0.21521  0.47438  Biso   1.000  O
  O7       1.0000 0.66900  0.71521  0.02562  Biso   1.000  O
  O8       1.0000 0.83100  0.28479  0.52562  Biso   1.000  O
  O9       1.0000 0.26460  0.67380  0.09430  Biso   1.000  O
  O10      1.0000 0.23540  0.32620  0.59430  Biso   1.000  O
  O11      1.0000 0.76460  0.82620  0.90570  Biso   1.000  O
  O12      1.0000 0.73540  0.17380  0.40570  Biso   1.000  O
  O13      1.0000 0.77410  0.19820  0.08925  Biso   1.000  O
  O14      1.0000 0.72590  0.80180  0.58925  Biso   1.000  O
  O15      1.0000 0.27410  0.30180  0.91075  Biso   1.000  O
  O16      1.0000 0.22590  0.69820  0.41075  Biso   1.000  O
  O17      1.0000 0.25160  0.07781  0.97897  Biso   1.000  O
  O18      1.0000 0.24840  0.92219  0.47897  Biso   1.000  O
  O19      1.0000 0.75160  0.42219  0.02103  Biso   1.000  O
  O20      1.0000 0.74840  0.57781  0.52103  Biso   1.000  O
  H37      1.0000 0.25600  0.14780  0.96100  Biso   1.000  H
  H38      1.0000 0.24400  0.85220  0.46100  Biso   1.000  H
  H39      1.0000 0.75600  0.35220  0.03900  Biso   1.000  H
  H40      1.0000 0.74400  0.64780  0.53900  Biso   1.000  H
