data_image0
_cell_length_a       9.757
_cell_length_b       10.62
_cell_length_c       12.297
_cell_angle_alpha    87.17
_cell_angle_beta     77.24
_cell_angle_gamma    69.65

_symmetry_space_group_name_H-M    "P 1"
_symmetry_int_tables_number       1

loop_
  _symmetry_equiv_pos_as_xyz
  'x, y, z'

loop_
  _atom_site_label
  _atom_site_occupancy
  _atom_site_fract_x
  _atom_site_fract_y
  _atom_site_fract_z
  _atom_site_thermal_displace_type
  _atom_site_B_iso_or_equiv
  _atom_site_type_symbol
  Cu1      1.0000 0.56141  0.09705  0.13005  Biso   1.000  Cu
  Cu2      1.0000 0.43859  0.90295  0.86995  Biso   1.000  Cu
  S1       1.0000 0.71000  0.87897  0.01225  Biso   1.000  S
  S2       1.0000 0.29000  0.12103  0.98775  Biso   1.000  S
  S3       1.0000 0.00160  0.21727  0.55521  Biso   1.000  S
  S4       1.0000 0.99840  0.78273  0.44479  Biso   1.000  S
  S5       1.0000 0.90398  0.45592  0.41066  Biso   1.000  S
  S6       1.0000 0.09602  0.54408  0.58934  Biso   1.000  S
  S7       1.0000 0.84794  0.55506  0.18689  Biso   1.000  S
  S8       1.0000 0.15206  0.44494  0.81311  Biso   1.000  S
  O1       1.0000 0.65830  0.83180  0.92530  Biso   1.000  O
  O2       1.0000 0.34170  0.16820  0.07470  Biso   1.000  O
  O3       1.0000 0.85460  0.78580  0.02460  Biso   1.000  O
  O4       1.0000 0.14540  0.21420  0.97540  Biso   1.000  O
  O5       1.0000 0.71360  0.01820  0.99060  Biso   1.000  O
  O6       1.0000 0.28640  0.98180  0.00940  Biso   1.000  O
  O7       1.0000 0.59770  0.90080  0.12090  Biso   1.000  O
  O8       1.0000 0.40230  0.09920  0.87910  Biso   1.000  O
  O9       1.0000 0.90040  0.88190  0.22200  Biso   1.000  O
  O10      1.0000 0.09960  0.11810  0.77800  Biso   1.000  O
  H1       1.0000 0.87770  0.84930  0.17260  Biso   1.000  H
  H2       1.0000 0.12230  0.15070  0.82740  Biso   1.000  H
  N1       1.0000 0.45150  0.11970  0.28840  Biso   1.000  N
  N2       1.0000 0.54850  0.88030  0.71160  Biso   1.000  N
  N3       1.0000 0.28810  0.09490  0.43670  Biso   1.000  N
  N4       1.0000 0.71190  0.90510  0.56330  Biso   1.000  N
  N5       1.0000 0.97070  0.21590  0.34240  Biso   1.000  N
  N6       1.0000 0.02930  0.78410  0.65760  Biso   1.000  N
  N7       1.0000 0.93240  0.29620  0.25300  Biso   1.000  N
  N8       1.0000 0.06760  0.70380  0.74700  Biso   1.000  N
  N9       1.0000 0.70770  0.41990  0.09310  Biso   1.000  N
  N10      1.0000 0.29230  0.58010  0.90690  Biso   1.000  N
  N11      1.0000 0.59180  0.27040  0.12070  Biso   1.000  N
  N12      1.0000 0.40820  0.72960  0.87930  Biso   1.000  N
  C1       1.0000 0.33930  0.07770  0.32490  Biso   1.000  C
  C2       1.0000 0.66070  0.92230  0.67510  Biso   1.000  C
  H3       1.0000 0.29890  0.03990  0.27910  Biso   1.000  H
  H4       1.0000 0.70110  0.96010  0.72090  Biso   1.000  H
  C3       1.0000 0.47650  0.17000  0.38260  Biso   1.000  C
  C4       1.0000 0.52350  0.83000  0.61740  Biso   1.000  C
  C5       1.0000 0.58060  0.22830  0.39240  Biso   1.000  C
  C6       1.0000 0.41940  0.77170  0.60760  Biso   1.000  C
  H5       1.0000 0.65030  0.23870  0.33090  Biso   1.000  H
  H6       1.0000 0.34970  0.76130  0.66910  Biso   1.000  H
  C7       1.0000 0.57510  0.27000  0.49880  Biso   1.000  C
  C8       1.0000 0.42490  0.73000  0.50120  Biso   1.000  C
  H7       1.0000 0.64100  0.31210  0.50830  Biso   1.000  H
  H8       1.0000 0.35900  0.68790  0.49170  Biso   1.000  H
  C9       1.0000 0.47480  0.25120  0.59160  Biso   1.000  C
  C10      1.0000 0.52520  0.74880  0.40840  Biso   1.000  C
  H9       1.0000 0.47740  0.27880  0.66150  Biso   1.000  H
  H10      1.0000 0.52260  0.72120  0.33850  Biso   1.000  H
  C11      1.0000 0.37090  0.19260  0.58350  Biso   1.000  C
  C12      1.0000 0.62910  0.80740  0.41650  Biso   1.000  C
  H11      1.0000 0.30360  0.17950  0.64560  Biso   1.000  H
  H12      1.0000 0.69640  0.82050  0.35440  Biso   1.000  H
  C13      1.0000 0.37430  0.15480  0.47620  Biso   1.000  C
  C14      1.0000 0.62570  0.84520  0.52380  Biso   1.000  C
  C15      1.0000 0.16080  0.06670  0.50260  Biso   1.000  C
  C16      1.0000 0.83920  0.93330  0.49740  Biso   1.000  C
  H13      1.0000 0.19070  0.01340  0.56530  Biso   1.000  H
  H14      1.0000 0.80930  0.98660  0.43470  Biso   1.000  H
  H15      1.0000 0.13000  0.01350  0.45750  Biso   1.000  H
  H16      1.0000 0.87000  0.98650  0.54250  Biso   1.000  H
  C17      1.0000 0.96170  0.28490  0.42770  Biso   1.000  C
  C18      1.0000 0.03830  0.71510  0.57230  Biso   1.000  C
  C19      1.0000 0.89750  0.42230  0.27590  Biso   1.000  C
  C20      1.0000 0.10250  0.57770  0.72410  Biso   1.000  C
  C21      1.0000 0.83180  0.47060  0.06810  Biso   1.000  C
  C22      1.0000 0.16820  0.52940  0.93190  Biso   1.000  C
  H17      1.0000 0.81840  0.53280  0.00760  Biso   1.000  H
  H18      1.0000 0.18160  0.46720  0.99240  Biso   1.000  H
  H19      1.0000 0.92440  0.39610  0.04290  Biso   1.000  H
  H20      1.0000 0.07560  0.60390  0.95710  Biso   1.000  H
  C23      1.0000 0.55760  0.49320  0.12840  Biso   1.000  C
  C24      1.0000 0.44240  0.50680  0.87160  Biso   1.000  C
  C25      1.0000 0.47950  0.63040  0.14320  Biso   1.000  C
  C26      1.0000 0.52050  0.36960  0.85680  Biso   1.000  C
  H21      1.0000 0.52790  0.69300  0.12870  Biso   1.000  H
  H22      1.0000 0.47210  0.30700  0.87130  Biso   1.000  H
  C27      1.0000 0.32670  0.66860  0.18060  Biso   1.000  C
  C28      1.0000 0.67330  0.33140  0.81940  Biso   1.000  C
  H23      1.0000 0.27060  0.75950  0.19300  Biso   1.000  H
  H24      1.0000 0.72940  0.24050  0.80700  Biso   1.000  H
  C29      1.0000 0.25290  0.57500  0.20060  Biso   1.000  C
  C30      1.0000 0.74710  0.42500  0.79940  Biso   1.000  C
  H25      1.0000 0.14940  0.60520  0.22610  Biso   1.000  H
  H26      1.0000 0.85060  0.39480  0.77390  Biso   1.000  H
  C31      1.0000 0.33030  0.43870  0.18350  Biso   1.000  C
  C32      1.0000 0.66970  0.56130  0.81650  Biso   1.000  C
  H27      1.0000 0.28140  0.37650  0.19580  Biso   1.000  H
  H28      1.0000 0.71860  0.62350  0.80420  Biso   1.000  H
  C33      1.0000 0.48480  0.39910  0.14700  Biso   1.000  C
  C34      1.0000 0.51520  0.60090  0.85300  Biso   1.000  C
  C35      1.0000 0.72220  0.28900  0.08980  Biso   1.000  C
  C36      1.0000 0.27780  0.71100  0.91020  Biso   1.000  C
  H29      1.0000 0.81350  0.21960  0.06830  Biso   1.000  H
  H30      1.0000 0.18650  0.78040  0.93170  Biso   1.000  H
  C37      1.0000 0.96970  0.96520  0.17800  Biso   1.000  C
  C38      1.0000 0.03030  0.03480  0.82200  Biso   1.000  C
  H31      1.0000 0.89750  0.05350  0.17660  Biso   1.000  H
  H32      1.0000 0.10250  0.94650  0.82340  Biso   1.000  H
  H33      1.0000 0.02360  0.93490  0.10330  Biso   1.000  H
  H34      1.0000 0.97640  0.06510  0.89670  Biso   1.000  H
  H35      1.0000 0.03860  0.96770  0.22210  Biso   1.000  H
  H36      1.0000 0.96140  0.03230  0.77790  Biso   1.000  H
