data_image0
_cell_length_a       9.805
_cell_length_b       11.677
_cell_length_c       14.064
_cell_angle_alpha    90
_cell_angle_beta     90
_cell_angle_gamma    90

_symmetry_space_group_name_H-M    "P 1"
_symmetry_int_tables_number       1

loop_
  _symmetry_equiv_pos_as_xyz
  'x, y, z'

loop_
  _atom_site_label
  _atom_site_occupancy
  _atom_site_fract_x
  _atom_site_fract_y
  _atom_site_fract_z
  _atom_site_thermal_displace_type
  _atom_site_B_iso_or_equiv
  _atom_site_type_symbol
  Cu1      1.0000 0.61359  0.16815  0.50556  Biso   1.000  Cu
  Cu2      1.0000 0.88641  0.83185  0.00556  Biso   1.000  Cu
  Cu3      1.0000 0.38641  0.66815  0.99444  Biso   1.000  Cu
  Cu4      1.0000 0.11359  0.33185  0.49444  Biso   1.000  Cu
  O1       1.0000 0.69730  0.30340  0.45003  Biso   1.000  O
  O2       1.0000 0.80270  0.69660  0.95003  Biso   1.000  O
  O3       1.0000 0.30270  0.80340  0.04997  Biso   1.000  O
  O4       1.0000 0.19730  0.19660  0.54997  Biso   1.000  O
  O5       1.0000 0.90840  0.25666  0.49470  Biso   1.000  O
  O6       1.0000 0.59160  0.74334  0.99470  Biso   1.000  O
  O7       1.0000 0.09160  0.75666  0.00530  Biso   1.000  O
  O8       1.0000 0.40840  0.24334  0.50530  Biso   1.000  O
  N1       1.0000 0.15760  0.30290  0.35860  Biso   1.000  N
  N2       1.0000 0.34240  0.69710  0.85860  Biso   1.000  N
  N3       1.0000 0.84240  0.80290  0.14140  Biso   1.000  N
  N4       1.0000 0.65760  0.19710  0.64140  Biso   1.000  N
  N5       1.0000 0.08400  0.41180  0.61700  Biso   1.000  N
  N6       1.0000 0.41600  0.58820  0.11700  Biso   1.000  N
  N7       1.0000 0.91600  0.91180  0.88300  Biso   1.000  N
  N8       1.0000 0.58400  0.08820  0.38300  Biso   1.000  N
  N9       1.0000 0.01210  0.47060  0.43740  Biso   1.000  N
  N10      1.0000 0.48790  0.52940  0.93740  Biso   1.000  N
  N11      1.0000 0.98790  0.97060  0.06260  Biso   1.000  N
  N12      1.0000 0.51210  0.02940  0.56260  Biso   1.000  N
  C1       1.0000 0.20030  0.20320  0.32000  Biso   1.000  C
  C2       1.0000 0.29970  0.79680  0.82000  Biso   1.000  C
  C3       1.0000 0.79970  0.70320  0.18000  Biso   1.000  C
  C4       1.0000 0.70030  0.29680  0.68000  Biso   1.000  C
  H1       1.0000 0.21320  0.13990  0.35910  Biso   1.000  H
  H2       1.0000 0.28680  0.86010  0.85910  Biso   1.000  H
  H3       1.0000 0.78680  0.63990  0.14090  Biso   1.000  H
  H4       1.0000 0.71320  0.36010  0.64090  Biso   1.000  H
  C5       1.0000 0.22520  0.19360  0.22370  Biso   1.000  C
  C6       1.0000 0.27480  0.80640  0.72370  Biso   1.000  C
  C7       1.0000 0.77480  0.69360  0.27630  Biso   1.000  C
  C8       1.0000 0.72520  0.30640  0.77630  Biso   1.000  C
  H5       1.0000 0.25710  0.12500  0.19850  Biso   1.000  H
  H6       1.0000 0.24290  0.87500  0.69850  Biso   1.000  H
  H7       1.0000 0.74290  0.62500  0.30150  Biso   1.000  H
  H8       1.0000 0.75710  0.37500  0.80150  Biso   1.000  H
  C9       1.0000 0.20290  0.28530  0.16560  Biso   1.000  C
  C10      1.0000 0.29710  0.71470  0.66560  Biso   1.000  C
  C11      1.0000 0.79710  0.78530  0.33440  Biso   1.000  C
  C12      1.0000 0.70290  0.21470  0.83440  Biso   1.000  C
  H9       1.0000 0.21880  0.27950  0.10060  Biso   1.000  H
  H10      1.0000 0.28120  0.72050  0.60060  Biso   1.000  H
  H11      1.0000 0.78120  0.77950  0.39940  Biso   1.000  H
  H12      1.0000 0.71880  0.22050  0.89940  Biso   1.000  H
  C13      1.0000 0.15630  0.38720  0.20420  Biso   1.000  C
  C14      1.0000 0.34370  0.61280  0.70420  Biso   1.000  C
  C15      1.0000 0.84370  0.88720  0.29580  Biso   1.000  C
  C16      1.0000 0.65630  0.11280  0.79580  Biso   1.000  C
  H13      1.0000 0.13920  0.45040  0.16580  Biso   1.000  H
  H14      1.0000 0.36080  0.54960  0.66580  Biso   1.000  H
  H15      1.0000 0.86080  0.95040  0.33420  Biso   1.000  H
  H16      1.0000 0.63920  0.04960  0.83420  Biso   1.000  H
  C17      1.0000 0.13590  0.39250  0.30150  Biso   1.000  C
  C18      1.0000 0.36410  0.60750  0.80150  Biso   1.000  C
  C19      1.0000 0.86410  0.89250  0.19850  Biso   1.000  C
  C20      1.0000 0.63590  0.10750  0.69850  Biso   1.000  C
  C21      1.0000 0.08970  0.50010  0.35100  Biso   1.000  C
  C22      1.0000 0.41030  0.49990  0.85100  Biso   1.000  C
  C23      1.0000 0.91030  0.00010  0.14900  Biso   1.000  C
  C24      1.0000 0.58970  0.99990  0.64900  Biso   1.000  C
  H17      1.0000 0.16840  0.54600  0.36800  Biso   1.000  H
  H18      1.0000 0.33160  0.45400  0.86800  Biso   1.000  H
  H19      1.0000 0.83160  0.04600  0.13200  Biso   1.000  H
  H20      1.0000 0.66840  0.95400  0.63200  Biso   1.000  H
  H21      1.0000 0.03280  0.54480  0.30850  Biso   1.000  H
  H22      1.0000 0.46720  0.45520  0.80850  Biso   1.000  H
  H23      1.0000 0.96720  0.04480  0.19150  Biso   1.000  H
  H24      1.0000 0.53280  0.95520  0.69150  Biso   1.000  H
  C25      1.0000 0.01640  0.56310  0.50960  Biso   1.000  C
  C26      1.0000 0.48360  0.43690  0.00960  Biso   1.000  C
  C27      1.0000 0.98360  0.06310  0.99040  Biso   1.000  C
  C28      1.0000 0.51640  0.93690  0.49040  Biso   1.000  C
  H25      1.0000 0.93550  0.61030  0.50350  Biso   1.000  H
  H26      1.0000 0.56450  0.38970  0.00350  Biso   1.000  H
  H27      1.0000 0.06450  0.11030  0.99650  Biso   1.000  H
  H28      1.0000 0.43550  0.88970  0.49650  Biso   1.000  H
  H29      1.0000 0.09540  0.61120  0.49810  Biso   1.000  H
  H30      1.0000 0.40460  0.38880  0.99810  Biso   1.000  H
  H31      1.0000 0.90460  0.11120  0.00190  Biso   1.000  H
  H32      1.0000 0.59540  0.88880  0.50190  Biso   1.000  H
  C29      1.0000 0.02380  0.51540  0.60900  Biso   1.000  C
  C30      1.0000 0.47620  0.48460  0.10900  Biso   1.000  C
  C31      1.0000 0.97620  0.01540  0.89100  Biso   1.000  C
  C32      1.0000 0.52380  0.98460  0.39100  Biso   1.000  C
  C33      1.0000 0.97960  0.57480  0.68840  Biso   1.000  C
  C34      1.0000 0.52040  0.42520  0.18840  Biso   1.000  C
  C35      1.0000 0.02040  0.07480  0.81160  Biso   1.000  C
  C36      1.0000 0.47960  0.92520  0.31160  Biso   1.000  C
  H33      1.0000 0.93580  0.64500  0.68160  Biso   1.000  H
  H34      1.0000 0.56420  0.35500  0.18160  Biso   1.000  H
  H35      1.0000 0.06420  0.14500  0.81840  Biso   1.000  H
  H36      1.0000 0.43580  0.85500  0.31840  Biso   1.000  H
  C37      1.0000 0.00090  0.52960  0.77690  Biso   1.000  C
  C38      1.0000 0.49910  0.47040  0.27690  Biso   1.000  C
  C39      1.0000 0.99910  0.02960  0.72310  Biso   1.000  C
  C40      1.0000 0.50090  0.97040  0.22310  Biso   1.000  C
  H37      1.0000 0.97290  0.56920  0.83080  Biso   1.000  H
  H38      1.0000 0.52710  0.43080  0.33080  Biso   1.000  H
  H39      1.0000 0.02710  0.06920  0.66920  Biso   1.000  H
  H40      1.0000 0.47290  0.93080  0.16920  Biso   1.000  H
  C41      1.0000 0.06460  0.42400  0.78530  Biso   1.000  C
  C42      1.0000 0.43540  0.57600  0.28530  Biso   1.000  C
  C43      1.0000 0.93540  0.92400  0.71470  Biso   1.000  C
  C44      1.0000 0.56460  0.07600  0.21470  Biso   1.000  C
  H41      1.0000 0.07980  0.39170  0.84480  Biso   1.000  H
  H42      1.0000 0.42020  0.60830  0.34480  Biso   1.000  H
  H43      1.0000 0.92020  0.89170  0.65520  Biso   1.000  H
  H44      1.0000 0.57980  0.10830  0.15520  Biso   1.000  H
  C45      1.0000 0.10450  0.36840  0.70440  Biso   1.000  C
  C46      1.0000 0.39550  0.63160  0.20440  Biso   1.000  C
  C47      1.0000 0.89550  0.86840  0.79560  Biso   1.000  C
  C48      1.0000 0.60450  0.13160  0.29560  Biso   1.000  C
  H45      1.0000 0.14760  0.29770  0.71000  Biso   1.000  H
  H46      1.0000 0.35240  0.70230  0.21000  Biso   1.000  H
  H47      1.0000 0.85240  0.79770  0.79000  Biso   1.000  H
  H48      1.0000 0.64760  0.20230  0.29000  Biso   1.000  H
  C49      1.0000 0.82480  0.32200  0.45740  Biso   1.000  C
  C50      1.0000 0.67520  0.67800  0.95740  Biso   1.000  C
  C51      1.0000 0.17520  0.82200  0.04260  Biso   1.000  C
  C52      1.0000 0.32480  0.17800  0.54260  Biso   1.000  C
  C53      1.0000 0.87030  0.43490  0.41400  Biso   1.000  C
  C54      1.0000 0.62970  0.56510  0.91400  Biso   1.000  C
  C55      1.0000 0.12970  0.93490  0.08600  Biso   1.000  C
  C56      1.0000 0.37030  0.06510  0.58600  Biso   1.000  C
  H49      1.0000 0.86230  0.42920  0.34540  Biso   1.000  H
  H50      1.0000 0.63770  0.57080  0.84540  Biso   1.000  H
  H51      1.0000 0.13770  0.92920  0.15460  Biso   1.000  H
  H52      1.0000 0.36230  0.07080  0.65460  Biso   1.000  H
  H53      1.0000 0.80840  0.49450  0.43490  Biso   1.000  H
  H54      1.0000 0.69160  0.50550  0.93490  Biso   1.000  H
  H55      1.0000 0.19160  0.99450  0.06510  Biso   1.000  H
  H56      1.0000 0.30840  0.00550  0.56510  Biso   1.000  H
  N13      1.0000 0.83710  0.35020  0.09370  Biso   1.000  N
  N14      1.0000 0.66290  0.64980  0.59370  Biso   1.000  N
  N15      1.0000 0.16290  0.85020  0.40630  Biso   1.000  N
  N16      1.0000 0.33710  0.14980  0.90630  Biso   1.000  N
  O9       1.0000 0.89190  0.36470  0.01200  Biso   1.000  O
  O10      1.0000 0.60810  0.63530  0.51200  Biso   1.000  O
  O11      1.0000 0.10810  0.86470  0.48800  Biso   1.000  O
  O12      1.0000 0.39190  0.13530  0.98800  Biso   1.000  O
  O13      1.0000 0.84800  0.42950  0.14980  Biso   1.000  O
  O14      1.0000 0.65200  0.57050  0.64980  Biso   1.000  O
  O15      1.0000 0.15200  0.92950  0.35020  Biso   1.000  O
  O16      1.0000 0.34800  0.07050  0.85020  Biso   1.000  O
  O17      1.0000 0.77560  0.26250  0.10360  Biso   1.000  O
  O18      1.0000 0.72440  0.73750  0.60360  Biso   1.000  O
  O19      1.0000 0.22440  0.76250  0.39640  Biso   1.000  O
  O20      1.0000 0.27560  0.23750  0.89640  Biso   1.000  O
  O21      1.0000 0.37380  0.48380  0.49980  Biso   1.000  O
  O22      1.0000 0.12620  0.51620  0.99980  Biso   1.000  O
  O23      1.0000 0.62620  0.98380  0.00020  Biso   1.000  O
  O24      1.0000 0.87380  0.01620  0.50020  Biso   1.000  O
  H57      1.0000 0.40600  0.42200  0.50500  Biso   1.000  H
  H58      1.0000 0.09400  0.57800  0.00500  Biso   1.000  H
  H59      1.0000 0.59400  0.92200  0.99500  Biso   1.000  H
  H60      1.0000 0.90600  0.07800  0.49500  Biso   1.000  H
  H61      1.0000 0.44800  0.50800  0.50800  Biso   1.000  H
  H62      1.0000 0.05200  0.49200  0.00800  Biso   1.000  H
  H63      1.0000 0.55200  0.00800  0.99200  Biso   1.000  H
  H64      1.0000 0.94800  0.99200  0.49200  Biso   1.000  H
  O25      1.0000 0.84100  0.32300  0.18380  Biso   1.000  O
  O26      1.0000 0.65900  0.67700  0.68380  Biso   1.000  O
  O27      1.0000 0.15900  0.82300  0.31620  Biso   1.000  O
  O28      1.0000 0.34100  0.17700  0.81620  Biso   1.000  O
  O29      1.0000 0.85000  0.44390  0.07280  Biso   1.000  O
  O30      1.0000 0.65000  0.55610  0.57280  Biso   1.000  O
  O31      1.0000 0.15000  0.94390  0.42720  Biso   1.000  O
  O32      1.0000 0.35000  0.05610  0.92720  Biso   1.000  O
  O33      1.0000 0.78300  0.27310  0.05080  Biso   1.000  O
  O34      1.0000 0.71700  0.72690  0.55080  Biso   1.000  O
  O35      1.0000 0.21700  0.77310  0.44920  Biso   1.000  O
  O36      1.0000 0.28300  0.22690  0.94920  Biso   1.000  O
