data_image0
_cell_length_a       9.7458
_cell_length_b       11.5723
_cell_length_c       13.9449
_cell_angle_alpha    90
_cell_angle_beta     90
_cell_angle_gamma    90

_symmetry_space_group_name_H-M    "P 1"
_symmetry_int_tables_number       1

loop_
  _symmetry_equiv_pos_as_xyz
  'x, y, z'

loop_
  _atom_site_label
  _atom_site_occupancy
  _atom_site_fract_x
  _atom_site_fract_y
  _atom_site_fract_z
  _atom_site_thermal_displace_type
  _atom_site_B_iso_or_equiv
  _atom_site_type_symbol
  Cu1      1.0000 0.11598  0.16601  0.50655  Biso   1.000  Cu
  Cu2      1.0000 0.38402  0.83399  0.00655  Biso   1.000  Cu
  Cu3      1.0000 0.88402  0.66601  0.99345  Biso   1.000  Cu
  Cu4      1.0000 0.61598  0.33399  0.49345  Biso   1.000  Cu
  O1       1.0000 0.91023  0.24257  0.50541  Biso   1.000  O
  O2       1.0000 0.58977  0.75743  0.00541  Biso   1.000  O
  O3       1.0000 0.08977  0.74257  0.99459  Biso   1.000  O
  O4       1.0000 0.41023  0.25743  0.49459  Biso   1.000  O
  O5       1.0000 0.69730  0.19638  0.54978  Biso   1.000  O
  O6       1.0000 0.80270  0.80362  0.04978  Biso   1.000  O
  O7       1.0000 0.30270  0.69638  0.95022  Biso   1.000  O
  O8       1.0000 0.19730  0.30362  0.45022  Biso   1.000  O
  N1       1.0000 0.08480  0.08630  0.38276  Biso   1.000  N
  N2       1.0000 0.41520  0.91370  0.88276  Biso   1.000  N
  N3       1.0000 0.91520  0.58630  0.11724  Biso   1.000  N
  N4       1.0000 0.58480  0.41370  0.61724  Biso   1.000  N
  N5       1.0000 0.01290  0.02670  0.56346  Biso   1.000  N
  N6       1.0000 0.48710  0.97330  0.06346  Biso   1.000  N
  N7       1.0000 0.98710  0.52670  0.93654  Biso   1.000  N
  N8       1.0000 0.51290  0.47330  0.43654  Biso   1.000  N
  N9       1.0000 0.15960  0.19600  0.64289  Biso   1.000  N
  N10      1.0000 0.34040  0.80400  0.14289  Biso   1.000  N
  N11      1.0000 0.84040  0.69600  0.85711  Biso   1.000  N
  N12      1.0000 0.65960  0.30400  0.35711  Biso   1.000  N
  C1       1.0000 0.10480  0.13210  0.29520  Biso   1.000  C
  C2       1.0000 0.39520  0.86790  0.79520  Biso   1.000  C
  C3       1.0000 0.89520  0.63210  0.20480  Biso   1.000  C
  C4       1.0000 0.60480  0.36790  0.70480  Biso   1.000  C
  H1       1.0000 0.14840  0.20520  0.28990  Biso   1.000  H
  H2       1.0000 0.35160  0.79480  0.78990  Biso   1.000  H
  H3       1.0000 0.85160  0.70520  0.21010  Biso   1.000  H
  H4       1.0000 0.64840  0.29480  0.71010  Biso   1.000  H
  C5       1.0000 0.06340  0.07550  0.21280  Biso   1.000  C
  C6       1.0000 0.43660  0.92450  0.71280  Biso   1.000  C
  C7       1.0000 0.93660  0.57550  0.28720  Biso   1.000  C
  C8       1.0000 0.56340  0.42450  0.78720  Biso   1.000  C
  H5       1.0000 0.07930  0.10890  0.15150  Biso   1.000  H
  H6       1.0000 0.42070  0.89110  0.65150  Biso   1.000  H
  H7       1.0000 0.92070  0.60890  0.34850  Biso   1.000  H
  H8       1.0000 0.57930  0.39110  0.84850  Biso   1.000  H
  C9       1.0000 0.99820  0.96920  0.22090  Biso   1.000  C
  C10      1.0000 0.50180  0.03080  0.72090  Biso   1.000  C
  C11      1.0000 0.00180  0.46920  0.27910  Biso   1.000  C
  C12      1.0000 0.49820  0.53080  0.77910  Biso   1.000  C
  H9       1.0000 0.96820  0.92910  0.16520  Biso   1.000  H
  H10      1.0000 0.53180  0.07090  0.66520  Biso   1.000  H
  H11      1.0000 0.03180  0.42910  0.33480  Biso   1.000  H
  H12      1.0000 0.46820  0.57090  0.83480  Biso   1.000  H
  C13      1.0000 0.97760  0.92250  0.31050  Biso   1.000  C
  C14      1.0000 0.52240  0.07750  0.81050  Biso   1.000  C
  C15      1.0000 0.02240  0.42250  0.18950  Biso   1.000  C
  C16      1.0000 0.47760  0.57750  0.68950  Biso   1.000  C
  H13      1.0000 0.93250  0.85020  0.31770  Biso   1.000  H
  H14      1.0000 0.56750  0.14980  0.81770  Biso   1.000  H
  H15      1.0000 0.06750  0.35020  0.18230  Biso   1.000  H
  H16      1.0000 0.43250  0.64980  0.68230  Biso   1.000  H
  C17      1.0000 0.02410  0.98300  0.39090  Biso   1.000  C
  C18      1.0000 0.47590  0.01700  0.89090  Biso   1.000  C
  C19      1.0000 0.97590  0.48300  0.10910  Biso   1.000  C
  C20      1.0000 0.52410  0.51700  0.60910  Biso   1.000  C
  C21      1.0000 0.01720  0.93290  0.49080  Biso   1.000  C
  C22      1.0000 0.48280  0.06710  0.99080  Biso   1.000  C
  C23      1.0000 0.98280  0.43290  0.00920  Biso   1.000  C
  C24      1.0000 0.51720  0.56710  0.50920  Biso   1.000  C
  H17      1.0000 0.93410  0.88410  0.49690  Biso   1.000  H
  H18      1.0000 0.56590  0.11590  0.99690  Biso   1.000  H
  H19      1.0000 0.06590  0.38410  0.00310  Biso   1.000  H
  H20      1.0000 0.43410  0.61590  0.50310  Biso   1.000  H
  H21      1.0000 0.09840  0.88340  0.50230  Biso   1.000  H
  H22      1.0000 0.40160  0.11660  0.00230  Biso   1.000  H
  H23      1.0000 0.90160  0.38340  0.99770  Biso   1.000  H
  H24      1.0000 0.59840  0.61660  0.49770  Biso   1.000  H
  C25      1.0000 0.09140  0.99570  0.65160  Biso   1.000  C
  C26      1.0000 0.40860  0.00430  0.15160  Biso   1.000  C
  C27      1.0000 0.90860  0.49570  0.84840  Biso   1.000  C
  C28      1.0000 0.59140  0.50430  0.34840  Biso   1.000  C
  H25      1.0000 0.17250  0.94870  0.63430  Biso   1.000  H
  H26      1.0000 0.32750  0.05130  0.13430  Biso   1.000  H
  H27      1.0000 0.82750  0.44870  0.86570  Biso   1.000  H
  H28      1.0000 0.67250  0.55130  0.36570  Biso   1.000  H
  H29      1.0000 0.03280  0.94960  0.69520  Biso   1.000  H
  H30      1.0000 0.46720  0.05040  0.19520  Biso   1.000  H
  H31      1.0000 0.96720  0.44960  0.80480  Biso   1.000  H
  H32      1.0000 0.53280  0.55040  0.30480  Biso   1.000  H
  C29      1.0000 0.13640  0.10500  0.70090  Biso   1.000  C
  C30      1.0000 0.36360  0.89500  0.20090  Biso   1.000  C
  C31      1.0000 0.86360  0.60500  0.79910  Biso   1.000  C
  C32      1.0000 0.63640  0.39500  0.29910  Biso   1.000  C
  C33      1.0000 0.15790  0.11110  0.79910  Biso   1.000  C
  C34      1.0000 0.34210  0.88890  0.29910  Biso   1.000  C
  C35      1.0000 0.84210  0.61110  0.70090  Biso   1.000  C
  C36      1.0000 0.65790  0.38890  0.20090  Biso   1.000  C
  H33      1.0000 0.14070  0.04600  0.83890  Biso   1.000  H
  H34      1.0000 0.35930  0.95400  0.33890  Biso   1.000  H
  H35      1.0000 0.85930  0.54600  0.66110  Biso   1.000  H
  H36      1.0000 0.64070  0.45400  0.16110  Biso   1.000  H
  C37      1.0000 0.20500  0.21380  0.83810  Biso   1.000  C
  C38      1.0000 0.29500  0.78620  0.33810  Biso   1.000  C
  C39      1.0000 0.79500  0.71380  0.66190  Biso   1.000  C
  C40      1.0000 0.70500  0.28620  0.16190  Biso   1.000  C
  H37      1.0000 0.22100  0.22020  0.90510  Biso   1.000  H
  H38      1.0000 0.27900  0.77980  0.40510  Biso   1.000  H
  H39      1.0000 0.77900  0.72020  0.59490  Biso   1.000  H
  H40      1.0000 0.72100  0.27980  0.09490  Biso   1.000  H
  C41      1.0000 0.22830  0.30680  0.77820  Biso   1.000  C
  C42      1.0000 0.27170  0.69320  0.27820  Biso   1.000  C
  C43      1.0000 0.77170  0.80680  0.72180  Biso   1.000  C
  C44      1.0000 0.72830  0.19320  0.22180  Biso   1.000  C
  H41      1.0000 0.26100  0.37780  0.80360  Biso   1.000  H
  H42      1.0000 0.23900  0.62220  0.30360  Biso   1.000  H
  H43      1.0000 0.73900  0.87780  0.69640  Biso   1.000  H
  H44      1.0000 0.76100  0.12220  0.19640  Biso   1.000  H
  C45      1.0000 0.20390  0.29600  0.68160  Biso   1.000  C
  C46      1.0000 0.29610  0.70400  0.18160  Biso   1.000  C
  C47      1.0000 0.79610  0.79600  0.81840  Biso   1.000  C
  C48      1.0000 0.70390  0.20400  0.31840  Biso   1.000  C
  H45      1.0000 0.21860  0.36070  0.64100  Biso   1.000  H
  H46      1.0000 0.28140  0.63930  0.14100  Biso   1.000  H
  H47      1.0000 0.78140  0.86070  0.85900  Biso   1.000  H
  H48      1.0000 0.71860  0.13930  0.35900  Biso   1.000  H
  C49      1.0000 0.87010  0.06280  0.58690  Biso   1.000  C
  C50      1.0000 0.62990  0.93720  0.08690  Biso   1.000  C
  C51      1.0000 0.12990  0.56280  0.91310  Biso   1.000  C
  C52      1.0000 0.37010  0.43720  0.41310  Biso   1.000  C
  H49      1.0000 0.86150  0.06870  0.65750  Biso   1.000  H
  H50      1.0000 0.63850  0.93130  0.15750  Biso   1.000  H
  H51      1.0000 0.13850  0.56870  0.84250  Biso   1.000  H
  H52      1.0000 0.36150  0.43130  0.34250  Biso   1.000  H
  H53      1.0000 0.80650  0.00150  0.56520  Biso   1.000  H
  H54      1.0000 0.69350  0.99850  0.06520  Biso   1.000  H
  H55      1.0000 0.19350  0.50150  0.93480  Biso   1.000  H
  H56      1.0000 0.30650  0.49850  0.43480  Biso   1.000  H
  C53      1.0000 0.82420  0.17760  0.54273  Biso   1.000  C
  C54      1.0000 0.67580  0.82240  0.04273  Biso   1.000  C
  C55      1.0000 0.17580  0.67760  0.95727  Biso   1.000  C
  C56      1.0000 0.32420  0.32240  0.45727  Biso   1.000  C
  O9       1.0000 0.89130  0.12800  0.99210  Biso   1.000  O
  O10      1.0000 0.60870  0.87200  0.49210  Biso   1.000  O
  O11      1.0000 0.10870  0.62800  0.50790  Biso   1.000  O
  O12      1.0000 0.39130  0.37200  0.00790  Biso   1.000  O
  O13      1.0000 0.77230  0.23680  0.90060  Biso   1.000  O
  O14      1.0000 0.72770  0.76320  0.40060  Biso   1.000  O
  O15      1.0000 0.22770  0.73680  0.59940  Biso   1.000  O
  O16      1.0000 0.27230  0.26320  0.09940  Biso   1.000  O
  O17      1.0000 0.84850  0.07200  0.84740  Biso   1.000  O
  O18      1.0000 0.65150  0.92800  0.34740  Biso   1.000  O
  O19      1.0000 0.15150  0.57200  0.65260  Biso   1.000  O
  O20      1.0000 0.34850  0.42800  0.15260  Biso   1.000  O
  N13      1.0000 0.83760  0.14620  0.91150  Biso   1.000  N
  N14      1.0000 0.66240  0.85380  0.41150  Biso   1.000  N
  N15      1.0000 0.16240  0.64620  0.58850  Biso   1.000  N
  N16      1.0000 0.33760  0.35380  0.08850  Biso   1.000  N
  O21      1.0000 0.86950  0.48196  0.49867  Biso   1.000  O
  O22      1.0000 0.63050  0.51804  0.99867  Biso   1.000  O
  O23      1.0000 0.13050  0.98196  0.00133  Biso   1.000  O
  O24      1.0000 0.36950  0.01804  0.50133  Biso   1.000  O
  H57      1.0000 0.93600  0.52000  0.50100  Biso   1.000  H
  H58      1.0000 0.56400  0.48000  0.00100  Biso   1.000  H
  H59      1.0000 0.06400  0.02000  0.99900  Biso   1.000  H
  H60      1.0000 0.43600  0.98000  0.49900  Biso   1.000  H
  H61      1.0000 0.89600  0.41630  0.50200  Biso   1.000  H
  H62      1.0000 0.60400  0.58370  0.00200  Biso   1.000  H
  H63      1.0000 0.10400  0.91630  0.99800  Biso   1.000  H
  H64      1.0000 0.39600  0.08370  0.49800  Biso   1.000  H
