data_image0
_cell_length_a       8.4079
_cell_length_b       10.0611
_cell_length_c       23.0809
_cell_angle_alpha    90
_cell_angle_beta     90
_cell_angle_gamma    90

_symmetry_space_group_name_H-M    "P 1"
_symmetry_int_tables_number       1

loop_
  _symmetry_equiv_pos_as_xyz
  'x, y, z'

loop_
  _atom_site_label
  _atom_site_occupancy
  _atom_site_fract_x
  _atom_site_fract_y
  _atom_site_fract_z
  _atom_site_thermal_displace_type
  _atom_site_B_iso_or_equiv
  _atom_site_type_symbol
  Cu1      1.0000 0.47415  0.33299  0.29595  Biso   1.000  Cu
  Cu2      1.0000 0.02585  0.66701  0.79595  Biso   1.000  Cu
  Cu3      1.0000 0.52585  0.83299  0.20405  Biso   1.000  Cu
  Cu4      1.0000 0.97415  0.16701  0.70405  Biso   1.000  Cu
  O1       1.0000 0.53420  0.42414  0.22544  Biso   1.000  O
  O2       1.0000 0.96580  0.57586  0.72544  Biso   1.000  O
  O3       1.0000 0.46580  0.92414  0.27456  Biso   1.000  O
  O4       1.0000 0.03420  0.07586  0.77456  Biso   1.000  O
  O5       1.0000 0.46600  0.63320  0.24514  Biso   1.000  O
  O6       1.0000 0.03400  0.36680  0.74514  Biso   1.000  O
  O7       1.0000 0.53400  0.13320  0.25486  Biso   1.000  O
  O8       1.0000 0.96600  0.86680  0.75486  Biso   1.000  O
  N1       1.0000 0.75270  0.79760  0.22815  Biso   1.000  N
  N2       1.0000 0.74730  0.20240  0.72815  Biso   1.000  N
  N3       1.0000 0.24730  0.29760  0.27185  Biso   1.000  N
  N4       1.0000 0.25270  0.70240  0.77185  Biso   1.000  N
  N5       1.0000 0.33920  0.88190  0.15505  Biso   1.000  N
  N6       1.0000 0.16080  0.11810  0.65505  Biso   1.000  N
  N7       1.0000 0.66080  0.38190  0.34495  Biso   1.000  N
  N8       1.0000 0.83920  0.61810  0.84495  Biso   1.000  N
  N9       1.0000 0.58130  0.71322  0.13513  Biso   1.000  N
  N10      1.0000 0.91870  0.28678  0.63513  Biso   1.000  N
  N11      1.0000 0.41870  0.21322  0.36487  Biso   1.000  N
  N12      1.0000 0.08130  0.78678  0.86487  Biso   1.000  N
  C1       1.0000 0.82050  0.82030  0.27968  Biso   1.000  C
  C2       1.0000 0.67950  0.17970  0.77968  Biso   1.000  C
  C3       1.0000 0.17950  0.32030  0.22032  Biso   1.000  C
  C4       1.0000 0.32050  0.67970  0.72032  Biso   1.000  C
  H1       1.0000 0.76340  0.86630  0.30780  Biso   1.000  H
  H2       1.0000 0.73660  0.13370  0.80780  Biso   1.000  H
  H3       1.0000 0.23660  0.36630  0.19220  Biso   1.000  H
  H4       1.0000 0.26340  0.63370  0.69220  Biso   1.000  H
  C5       1.0000 0.97200  0.77760  0.29238  Biso   1.000  C
  C6       1.0000 0.52800  0.22240  0.79238  Biso   1.000  C
  C7       1.0000 0.02800  0.27760  0.20762  Biso   1.000  C
  C8       1.0000 0.47200  0.72240  0.70762  Biso   1.000  C
  H5       1.0000 0.01830  0.79800  0.32790  Biso   1.000  H
  H6       1.0000 0.48170  0.20200  0.82790  Biso   1.000  H
  H7       1.0000 0.98170  0.29800  0.17210  Biso   1.000  H
  H8       1.0000 0.51830  0.70200  0.67210  Biso   1.000  H
  C9       1.0000 0.05380  0.70470  0.25206  Biso   1.000  C
  C10      1.0000 0.44620  0.29530  0.75206  Biso   1.000  C
  C11      1.0000 0.94620  0.20470  0.24794  Biso   1.000  C
  C12      1.0000 0.55380  0.79530  0.74794  Biso   1.000  C
  H9       1.0000 0.15470  0.67220  0.26050  Biso   1.000  H
  H10      1.0000 0.34530  0.32780  0.76050  Biso   1.000  H
  H11      1.0000 0.84530  0.17220  0.23950  Biso   1.000  H
  H12      1.0000 0.65470  0.82780  0.73950  Biso   1.000  H
  C13      1.0000 0.98540  0.67970  0.19866  Biso   1.000  C
  C14      1.0000 0.51460  0.32030  0.69866  Biso   1.000  C
  C15      1.0000 0.01460  0.17970  0.30134  Biso   1.000  C
  C16      1.0000 0.48540  0.82030  0.80134  Biso   1.000  C
  H13      1.0000 0.03910  0.63040  0.17080  Biso   1.000  H
  H14      1.0000 0.46090  0.36960  0.67080  Biso   1.000  H
  H15      1.0000 0.96090  0.13040  0.32920  Biso   1.000  H
  H16      1.0000 0.53910  0.86960  0.82920  Biso   1.000  H
  C17      1.0000 0.83510  0.72970  0.18771  Biso   1.000  C
  C18      1.0000 0.66490  0.27030  0.68771  Biso   1.000  C
  C19      1.0000 0.16490  0.22970  0.31229  Biso   1.000  C
  C20      1.0000 0.33510  0.77030  0.81229  Biso   1.000  C
  C21      1.0000 0.75760  0.72290  0.12931  Biso   1.000  C
  C22      1.0000 0.74240  0.27710  0.62931  Biso   1.000  C
  C23      1.0000 0.24240  0.22290  0.37069  Biso   1.000  C
  C24      1.0000 0.25760  0.77710  0.87069  Biso   1.000  C
  H17      1.0000 0.78460  0.80170  0.10720  Biso   1.000  H
  H18      1.0000 0.71540  0.19830  0.60720  Biso   1.000  H
  H19      1.0000 0.21540  0.30170  0.39280  Biso   1.000  H
  H20      1.0000 0.28460  0.69830  0.89280  Biso   1.000  H
  H21      1.0000 0.79720  0.64610  0.10840  Biso   1.000  H
  H22      1.0000 0.70280  0.35390  0.60840  Biso   1.000  H
  H23      1.0000 0.20280  0.14610  0.39160  Biso   1.000  H
  H24      1.0000 0.29720  0.85390  0.89160  Biso   1.000  H
  C25      1.0000 0.49950  0.76920  0.08339  Biso   1.000  C
  C26      1.0000 0.00050  0.23080  0.58339  Biso   1.000  C
  C27      1.0000 0.50050  0.26920  0.41661  Biso   1.000  C
  C28      1.0000 0.99950  0.73080  0.91661  Biso   1.000  C
  H25      1.0000 0.47660  0.69840  0.05610  Biso   1.000  H
  H26      1.0000 0.02340  0.30160  0.55610  Biso   1.000  H
  H27      1.0000 0.52340  0.19840  0.44390  Biso   1.000  H
  H28      1.0000 0.97660  0.80160  0.94390  Biso   1.000  H
  H29      1.0000 0.56880  0.83280  0.06440  Biso   1.000  H
  H30      1.0000 0.93120  0.16720  0.56440  Biso   1.000  H
  H31      1.0000 0.43120  0.33280  0.43560  Biso   1.000  H
  H32      1.0000 0.06880  0.66720  0.93560  Biso   1.000  H
  C29      1.0000 0.34680  0.83680  0.10066  Biso   1.000  C
  C30      1.0000 0.15320  0.16320  0.60066  Biso   1.000  C
  C31      1.0000 0.65320  0.33680  0.39934  Biso   1.000  C
  C32      1.0000 0.84680  0.66320  0.89934  Biso   1.000  C
  C33      1.0000 0.22490  0.85710  0.06137  Biso   1.000  C
  C34      1.0000 0.27510  0.14290  0.56137  Biso   1.000  C
  C35      1.0000 0.77510  0.35710  0.43863  Biso   1.000  C
  C36      1.0000 0.72490  0.64290  0.93863  Biso   1.000  C
  H33      1.0000 0.23160  0.82290  0.02400  Biso   1.000  H
  H34      1.0000 0.26840  0.17710  0.52400  Biso   1.000  H
  H35      1.0000 0.76840  0.32290  0.47600  Biso   1.000  H
  H36      1.0000 0.73160  0.67710  0.97600  Biso   1.000  H
  C37      1.0000 0.09240  0.92920  0.07867  Biso   1.000  C
  C38      1.0000 0.40760  0.07080  0.57867  Biso   1.000  C
  C39      1.0000 0.90760  0.42920  0.42133  Biso   1.000  C
  C40      1.0000 0.59240  0.57080  0.92133  Biso   1.000  C
  H37      1.0000 0.00920  0.94450  0.05290  Biso   1.000  H
  H38      1.0000 0.49080  0.05550  0.55290  Biso   1.000  H
  H39      1.0000 0.99080  0.44450  0.44710  Biso   1.000  H
  H40      1.0000 0.50920  0.55550  0.94710  Biso   1.000  H
  C41      1.0000 0.08560  0.97770  0.13411  Biso   1.000  C
  C42      1.0000 0.41440  0.02230  0.63411  Biso   1.000  C
  C43      1.0000 0.91440  0.47770  0.36589  Biso   1.000  C
  C44      1.0000 0.58560  0.52230  0.86589  Biso   1.000  C
  H41      1.0000 0.99840  0.02710  0.14640  Biso   1.000  H
  H42      1.0000 0.50160  0.97290  0.64640  Biso   1.000  H
  H43      1.0000 0.00160  0.52710  0.35360  Biso   1.000  H
  H44      1.0000 0.49840  0.47290  0.85360  Biso   1.000  H
  C45      1.0000 0.20980  0.95220  0.17145  Biso   1.000  C
  C46      1.0000 0.29020  0.04780  0.67145  Biso   1.000  C
  C47      1.0000 0.79020  0.45220  0.32855  Biso   1.000  C
  C48      1.0000 0.70980  0.54780  0.82855  Biso   1.000  C
  H45      1.0000 0.20440  0.98450  0.20920  Biso   1.000  H
  H46      1.0000 0.29560  0.01550  0.70920  Biso   1.000  H
  H47      1.0000 0.79560  0.48450  0.29080  Biso   1.000  H
  H48      1.0000 0.70440  0.51550  0.79080  Biso   1.000  H
  C49      1.0000 0.50920  0.54350  0.21158  Biso   1.000  C
  C50      1.0000 0.99080  0.45650  0.71158  Biso   1.000  C
  C51      1.0000 0.49080  0.04350  0.28842  Biso   1.000  C
  C52      1.0000 0.00920  0.95650  0.78842  Biso   1.000  C
  C53      1.0000 0.52130  0.57500  0.14647  Biso   1.000  C
  C54      1.0000 0.97870  0.42500  0.64647  Biso   1.000  C
  C55      1.0000 0.47870  0.07500  0.35353  Biso   1.000  C
  C56      1.0000 0.02130  0.92500  0.85353  Biso   1.000  C
  H49      1.0000 0.41090  0.57590  0.13280  Biso   1.000  H
  H50      1.0000 0.08910  0.42410  0.63280  Biso   1.000  H
  H51      1.0000 0.58910  0.07590  0.36720  Biso   1.000  H
  H52      1.0000 0.91090  0.92410  0.86720  Biso   1.000  H
  C57      1.0000 0.60120  0.46620  0.11133  Biso   1.000  C
  C58      1.0000 0.89880  0.53380  0.61133  Biso   1.000  C
  C59      1.0000 0.39880  0.96620  0.38867  Biso   1.000  C
  C60      1.0000 0.10120  0.03380  0.88867  Biso   1.000  C
  H53      1.0000 0.60480  0.49190  0.07130  Biso   1.000  H
  H54      1.0000 0.89520  0.50810  0.57130  Biso   1.000  H
  H55      1.0000 0.39520  0.99190  0.42870  Biso   1.000  H
  H56      1.0000 0.10480  0.00810  0.92870  Biso   1.000  H
  H57      1.0000 0.54170  0.38510  0.11510  Biso   1.000  H
  H58      1.0000 0.95830  0.61490  0.61510  Biso   1.000  H
  H59      1.0000 0.45830  0.88510  0.38490  Biso   1.000  H
  H60      1.0000 0.04170  0.11490  0.88490  Biso   1.000  H
  H61      1.0000 0.70740  0.45260  0.12540  Biso   1.000  H
  H62      1.0000 0.79260  0.54740  0.62540  Biso   1.000  H
  H63      1.0000 0.29260  0.95260  0.37460  Biso   1.000  H
  H64      1.0000 0.20740  0.04740  0.87460  Biso   1.000  H
  C61      1.0000 0.05800  0.32720  0.02273  Biso   1.000  C
  C62      1.0000 0.44200  0.67280  0.52273  Biso   1.000  C
  C63      1.0000 0.94200  0.82720  0.47727  Biso   1.000  C
  C64      1.0000 0.55800  0.17280  0.97727  Biso   1.000  C
  F1       1.0000 0.03420  0.31510  0.96780  Biso   1.000  F
  F2       1.0000 0.46580  0.68490  0.46780  Biso   1.000  F
  F3       1.0000 0.96580  0.81510  0.53220  Biso   1.000  F
  F4       1.0000 0.53420  0.18490  0.03220  Biso   1.000  F
  F5       1.0000 0.93210  0.29440  0.05400  Biso   1.000  F
  F6       1.0000 0.56790  0.70560  0.55400  Biso   1.000  F
  F7       1.0000 0.06790  0.79440  0.44600  Biso   1.000  F
  F8       1.0000 0.43210  0.20560  0.94600  Biso   1.000  F
  F9       1.0000 0.16990  0.23830  0.03750  Biso   1.000  F
  F10      1.0000 0.33010  0.76170  0.53750  Biso   1.000  F
  F11      1.0000 0.83010  0.73830  0.46250  Biso   1.000  F
  F12      1.0000 0.66990  0.26170  0.96250  Biso   1.000  F
  S1       1.0000 0.12711  0.49142  0.04090  Biso   1.000  S
  S2       1.0000 0.37289  0.50858  0.54090  Biso   1.000  S
  S3       1.0000 0.87289  0.99142  0.45910  Biso   1.000  S
  S4       1.0000 0.62711  0.00858  0.95910  Biso   1.000  S
  O9       1.0000 0.24940  0.52110  0.99927  Biso   1.000  O
  O10      1.0000 0.25060  0.47890  0.49927  Biso   1.000  O
  O11      1.0000 0.75060  0.02110  0.50073  Biso   1.000  O
  O12      1.0000 0.74940  0.97890  0.00073  Biso   1.000  O
  O13      1.0000 0.17720  0.48100  0.09974  Biso   1.000  O
  O14      1.0000 0.32280  0.51900  0.59974  Biso   1.000  O
  O15      1.0000 0.82280  0.98100  0.40026  Biso   1.000  O
  O16      1.0000 0.67720  0.01900  0.90026  Biso   1.000  O
  O17      1.0000 0.98610  0.56960  0.03410  Biso   1.000  O
  O18      1.0000 0.51390  0.43040  0.53410  Biso   1.000  O
  O19      1.0000 0.01390  0.06960  0.46590  Biso   1.000  O
  O20      1.0000 0.48610  0.93040  0.96590  Biso   1.000  O
  O21      1.0000 0.67480  0.05190  0.14681  Biso   1.000  O
  O22      1.0000 0.82520  0.94810  0.64681  Biso   1.000  O
  O23      1.0000 0.32520  0.55190  0.35319  Biso   1.000  O
  O24      1.0000 0.17480  0.44810  0.85319  Biso   1.000  O
  H65      1.0000 0.68400  0.07800  0.11920  Biso   1.000  H
  H66      1.0000 0.81600  0.92200  0.61920  Biso   1.000  H
  H67      1.0000 0.31600  0.57800  0.38080  Biso   1.000  H
  H68      1.0000 0.18400  0.42200  0.88080  Biso   1.000  H
  H69      1.0000 0.64600  0.08400  0.17210  Biso   1.000  H
  H70      1.0000 0.85400  0.91600  0.67210  Biso   1.000  H
  H71      1.0000 0.35400  0.58400  0.32790  Biso   1.000  H
  H72      1.0000 0.14600  0.41600  0.82790  Biso   1.000  H
  F13      1.0000 0.98200  0.33640  0.96960  Biso   1.000  F
  F14      1.0000 0.51800  0.66360  0.46960  Biso   1.000  F
  F15      1.0000 0.01800  0.83640  0.53040  Biso   1.000  F
  F16      1.0000 0.48200  0.16360  0.03040  Biso   1.000  F
  F17      1.0000 0.96100  0.27660  0.05990  Biso   1.000  F
  F18      1.0000 0.53900  0.72340  0.55990  Biso   1.000  F
  F19      1.0000 0.03900  0.77660  0.44010  Biso   1.000  F
  F20      1.0000 0.46100  0.22340  0.94010  Biso   1.000  F
  F21      1.0000 0.17600  0.24380  0.01390  Biso   1.000  F
  F22      1.0000 0.32400  0.75620  0.51390  Biso   1.000  F
  F23      1.0000 0.82400  0.74380  0.48610  Biso   1.000  F
  F24      1.0000 0.67600  0.25620  0.98610  Biso   1.000  F
