data_image0
_cell_length_a       8.137
_cell_length_b       15.942
_cell_length_c       15.971
_cell_angle_alpha    90
_cell_angle_beta     93.39
_cell_angle_gamma    90

_symmetry_space_group_name_H-M    "P 1"
_symmetry_int_tables_number       1

loop_
  _symmetry_equiv_pos_as_xyz
  'x, y, z'

loop_
  _atom_site_label
  _atom_site_occupancy
  _atom_site_fract_x
  _atom_site_fract_y
  _atom_site_fract_z
  _atom_site_thermal_displace_type
  _atom_site_B_iso_or_equiv
  _atom_site_type_symbol
  Cu1      1.0000 0.00000  0.50000  0.00000  Biso   1.000  Cu
  Cu2      1.0000 0.00000  0.00000  0.50000  Biso   1.000  Cu
  Cu3      1.0000 0.92540  0.16469  0.03848  Biso   1.000  Cu
  Cu4      1.0000 0.92540  0.33531  0.53848  Biso   1.000  Cu
  Cu5      1.0000 0.07460  0.83531  0.96152  Biso   1.000  Cu
  Cu6      1.0000 0.07460  0.66469  0.46152  Biso   1.000  Cu
  O1       1.0000 0.06470  0.39710  0.09720  Biso   1.000  O
  O2       1.0000 0.06470  0.10290  0.59720  Biso   1.000  O
  O3       1.0000 0.93530  0.60290  0.90280  Biso   1.000  O
  O4       1.0000 0.93530  0.89710  0.40280  Biso   1.000  O
  O5       1.0000 0.84190  0.41040  0.96230  Biso   1.000  O
  O6       1.0000 0.84190  0.08960  0.46230  Biso   1.000  O
  O7       1.0000 0.15810  0.58960  0.03770  Biso   1.000  O
  O8       1.0000 0.15810  0.91040  0.53770  Biso   1.000  O
  O9       1.0000 0.78330  0.27390  0.97240  Biso   1.000  O
  O10      1.0000 0.78330  0.22610  0.47240  Biso   1.000  O
  O11      1.0000 0.21670  0.72610  0.02760  Biso   1.000  O
  O12      1.0000 0.21670  0.77390  0.52760  Biso   1.000  O
  O13      1.0000 0.02140  0.25870  0.10360  Biso   1.000  O
  O14      1.0000 0.02140  0.24130  0.60360  Biso   1.000  O
  O15      1.0000 0.97860  0.74130  0.89640  Biso   1.000  O
  O16      1.0000 0.97860  0.75870  0.39640  Biso   1.000  O
  O17      1.0000 0.83780  0.06980  0.96760  Biso   1.000  O
  O18      1.0000 0.83780  0.43020  0.46760  Biso   1.000  O
  O19      1.0000 0.16220  0.93020  0.03240  Biso   1.000  O
  O20      1.0000 0.16220  0.56980  0.53240  Biso   1.000  O
  O21      1.0000 0.90160  0.94530  0.91590  Biso   1.000  O
  O22      1.0000 0.90160  0.55470  0.41590  Biso   1.000  O
  O23      1.0000 0.09840  0.05470  0.08410  Biso   1.000  O
  O24      1.0000 0.09840  0.44530  0.58410  Biso   1.000  O
  C1       1.0000 0.99350  0.33260  0.07200  Biso   1.000  C
  C2       1.0000 0.99350  0.16740  0.57200  Biso   1.000  C
  C3       1.0000 0.00650  0.66740  0.92800  Biso   1.000  C
  C4       1.0000 0.00650  0.83260  0.42800  Biso   1.000  C
  C5       1.0000 0.86020  0.33660  0.99720  Biso   1.000  C
  C6       1.0000 0.86020  0.16340  0.49720  Biso   1.000  C
  C7       1.0000 0.13980  0.66340  0.00280  Biso   1.000  C
  C8       1.0000 0.13980  0.83660  0.50280  Biso   1.000  C
  C9       1.0000 0.92220  0.00400  0.96540  Biso   1.000  C
  C10      1.0000 0.92220  0.49600  0.46540  Biso   1.000  C
  C11      1.0000 0.07780  0.99600  0.03460  Biso   1.000  C
  C12      1.0000 0.07780  0.50400  0.53460  Biso   1.000  C
  N1       1.0000 0.16620  0.45050  0.92100  Biso   1.000  N
  N2       1.0000 0.16620  0.04950  0.42100  Biso   1.000  N
  N3       1.0000 0.83380  0.54950  0.07900  Biso   1.000  N
  N4       1.0000 0.83380  0.95050  0.57900  Biso   1.000  N
  C13      1.0000 0.32880  0.44190  0.94630  Biso   1.000  C
  C14      1.0000 0.32880  0.05810  0.44630  Biso   1.000  C
  C15      1.0000 0.67120  0.55810  0.05370  Biso   1.000  C
  C16      1.0000 0.67120  0.94190  0.55370  Biso   1.000  C
  H1       1.0000 0.36230  0.45120  0.00220  Biso   1.000  H
  H2       1.0000 0.36230  0.04880  0.50220  Biso   1.000  H
  H3       1.0000 0.63770  0.54880  0.99780  Biso   1.000  H
  H4       1.0000 0.63770  0.95120  0.49780  Biso   1.000  H
  C17      1.0000 0.44340  0.41960  0.89070  Biso   1.000  C
  C18      1.0000 0.44340  0.08040  0.39070  Biso   1.000  C
  C19      1.0000 0.55660  0.58040  0.10930  Biso   1.000  C
  C20      1.0000 0.55660  0.91960  0.60930  Biso   1.000  C
  H5       1.0000 0.55290  0.41270  0.90960  Biso   1.000  H
  H6       1.0000 0.55290  0.08730  0.40960  Biso   1.000  H
  H7       1.0000 0.44710  0.58730  0.09040  Biso   1.000  H
  H8       1.0000 0.44710  0.91270  0.59040  Biso   1.000  H
  C21      1.0000 0.39830  0.40760  0.80710  Biso   1.000  C
  C22      1.0000 0.39830  0.09240  0.30710  Biso   1.000  C
  C23      1.0000 0.60170  0.59240  0.19290  Biso   1.000  C
  C24      1.0000 0.60170  0.90760  0.69290  Biso   1.000  C
  C25      1.0000 0.22950  0.41190  0.78090  Biso   1.000  C
  C26      1.0000 0.22950  0.08810  0.28090  Biso   1.000  C
  C27      1.0000 0.77050  0.58810  0.21910  Biso   1.000  C
  C28      1.0000 0.77050  0.91190  0.71910  Biso   1.000  C
  H9       1.0000 0.19370  0.40050  0.72570  Biso   1.000  H
  H10      1.0000 0.19370  0.09950  0.22570  Biso   1.000  H
  H11      1.0000 0.80630  0.59950  0.27430  Biso   1.000  H
  H12      1.0000 0.80630  0.90050  0.77430  Biso   1.000  H
  C29      1.0000 0.11940  0.43380  0.83970  Biso   1.000  C
  C30      1.0000 0.11940  0.06620  0.33970  Biso   1.000  C
  C31      1.0000 0.88060  0.56620  0.16030  Biso   1.000  C
  C32      1.0000 0.88060  0.93380  0.66030  Biso   1.000  C
  H13      1.0000 0.00820  0.43710  0.82290  Biso   1.000  H
  H14      1.0000 0.00820  0.06290  0.32290  Biso   1.000  H
  H15      1.0000 0.99180  0.56290  0.17710  Biso   1.000  H
  H16      1.0000 0.99180  0.93710  0.67710  Biso   1.000  H
  C33      1.0000 0.52480  0.38970  0.74500  Biso   1.000  C
  C34      1.0000 0.52480  0.11030  0.24500  Biso   1.000  C
  C35      1.0000 0.47520  0.61030  0.25500  Biso   1.000  C
  C36      1.0000 0.47520  0.88970  0.75500  Biso   1.000  C
  C37      1.0000 0.67430  0.35010  0.76790  Biso   1.000  C
  C38      1.0000 0.67430  0.14990  0.26790  Biso   1.000  C
  C39      1.0000 0.32570  0.64990  0.23210  Biso   1.000  C
  C40      1.0000 0.32570  0.85010  0.73210  Biso   1.000  C
  H17      1.0000 0.69840  0.33300  0.82300  Biso   1.000  H
  H18      1.0000 0.69840  0.16700  0.32300  Biso   1.000  H
  H19      1.0000 0.30160  0.66700  0.17700  Biso   1.000  H
  H20      1.0000 0.30160  0.83300  0.67700  Biso   1.000  H
  C41      1.0000 0.78520  0.33710  0.70720  Biso   1.000  C
  C42      1.0000 0.78520  0.16290  0.20720  Biso   1.000  C
  C43      1.0000 0.21480  0.66290  0.29280  Biso   1.000  C
  C44      1.0000 0.21480  0.83710  0.79280  Biso   1.000  C
  H21      1.0000 0.88480  0.31130  0.72280  Biso   1.000  H
  H22      1.0000 0.88480  0.18870  0.22280  Biso   1.000  H
  H23      1.0000 0.11520  0.68870  0.27720  Biso   1.000  H
  H24      1.0000 0.11520  0.81130  0.77720  Biso   1.000  H
  N5       1.0000 0.75630  0.36000  0.62640  Biso   1.000  N
  N6       1.0000 0.75630  0.14000  0.12640  Biso   1.000  N
  N7       1.0000 0.24370  0.64000  0.37360  Biso   1.000  N
  N8       1.0000 0.24370  0.86000  0.87360  Biso   1.000  N
  C45      1.0000 0.61250  0.39880  0.60270  Biso   1.000  C
  C46      1.0000 0.61250  0.10120  0.10270  Biso   1.000  C
  C47      1.0000 0.38750  0.60120  0.39730  Biso   1.000  C
  C48      1.0000 0.38750  0.89880  0.89730  Biso   1.000  C
  H25      1.0000 0.59270  0.41510  0.54710  Biso   1.000  H
  H26      1.0000 0.59270  0.08490  0.04710  Biso   1.000  H
  H27      1.0000 0.40730  0.58490  0.45290  Biso   1.000  H
  H28      1.0000 0.40730  0.91510  0.95290  Biso   1.000  H
  C49      1.0000 0.49350  0.41480  0.66040  Biso   1.000  C
  C50      1.0000 0.49350  0.08520  0.16040  Biso   1.000  C
  C51      1.0000 0.50650  0.58520  0.33960  Biso   1.000  C
  C52      1.0000 0.50650  0.91480  0.83960  Biso   1.000  C
  H29      1.0000 0.39540  0.44140  0.64350  Biso   1.000  H
  H30      1.0000 0.39540  0.05860  0.14350  Biso   1.000  H
  H31      1.0000 0.60460  0.55860  0.35650  Biso   1.000  H
  H32      1.0000 0.60460  0.94140  0.85650  Biso   1.000  H
  N9       1.0000 0.10200  0.18190  0.94940  Biso   1.000  N
  N10      1.0000 0.10200  0.31810  0.44940  Biso   1.000  N
  N11      1.0000 0.89800  0.81810  0.05060  Biso   1.000  N
  N12      1.0000 0.89800  0.68190  0.55060  Biso   1.000  N
  C53      1.0000 0.26610  0.19010  0.97110  Biso   1.000  C
  C54      1.0000 0.26610  0.30990  0.47110  Biso   1.000  C
  C55      1.0000 0.73390  0.80990  0.02890  Biso   1.000  C
  C56      1.0000 0.73390  0.69010  0.52890  Biso   1.000  C
  H33      1.0000 0.29840  0.19880  0.02730  Biso   1.000  H
  H34      1.0000 0.29840  0.30120  0.52730  Biso   1.000  H
  H35      1.0000 0.70160  0.80120  0.97270  Biso   1.000  H
  H36      1.0000 0.70160  0.69880  0.47270  Biso   1.000  H
  C57      1.0000 0.38460  0.18620  0.91440  Biso   1.000  C
  C58      1.0000 0.38460  0.31380  0.41440  Biso   1.000  C
  C59      1.0000 0.61540  0.81380  0.08560  Biso   1.000  C
  C60      1.0000 0.61540  0.68620  0.58560  Biso   1.000  C
  H37      1.0000 0.49520  0.19290  0.93120  Biso   1.000  H
  H38      1.0000 0.49520  0.30710  0.43120  Biso   1.000  H
  H39      1.0000 0.50480  0.80710  0.06880  Biso   1.000  H
  H40      1.0000 0.50480  0.69290  0.56880  Biso   1.000  H
  C61      1.0000 0.33370  0.17140  0.82740  Biso   1.000  C
  C62      1.0000 0.33370  0.32860  0.32740  Biso   1.000  C
  C63      1.0000 0.66630  0.82860  0.17260  Biso   1.000  C
  C64      1.0000 0.66630  0.67140  0.67260  Biso   1.000  C
  C65      1.0000 0.16650  0.17160  0.80560  Biso   1.000  C
  C66      1.0000 0.16650  0.32840  0.30560  Biso   1.000  C
  C67      1.0000 0.83350  0.82840  0.19440  Biso   1.000  C
  C68      1.0000 0.83350  0.67160  0.69440  Biso   1.000  C
  H41      1.0000 0.13010  0.16630  0.74950  Biso   1.000  H
  H42      1.0000 0.13010  0.33370  0.24950  Biso   1.000  H
  H43      1.0000 0.86990  0.83370  0.25050  Biso   1.000  H
  H44      1.0000 0.86990  0.66630  0.75050  Biso   1.000  H
  C69      1.0000 0.05220  0.17960  0.86690  Biso   1.000  C
  C70      1.0000 0.05220  0.32040  0.36690  Biso   1.000  C
  C71      1.0000 0.94780  0.82040  0.13310  Biso   1.000  C
  C72      1.0000 0.94780  0.67960  0.63310  Biso   1.000  C
  H45      1.0000 0.94060  0.18340  0.85100  Biso   1.000  H
  H46      1.0000 0.94060  0.31660  0.35100  Biso   1.000  H
  H47      1.0000 0.05940  0.81660  0.14900  Biso   1.000  H
  H48      1.0000 0.05940  0.68340  0.64900  Biso   1.000  H
  C73      1.0000 0.45860  0.16080  0.76420  Biso   1.000  C
  C74      1.0000 0.45860  0.33920  0.26420  Biso   1.000  C
  C75      1.0000 0.54140  0.83920  0.23580  Biso   1.000  C
  C76      1.0000 0.54140  0.66080  0.73580  Biso   1.000  C
  C77      1.0000 0.61670  0.12980  0.78640  Biso   1.000  C
  C78      1.0000 0.61670  0.37020  0.28640  Biso   1.000  C
  C79      1.0000 0.38330  0.87020  0.21360  Biso   1.000  C
  C80      1.0000 0.38330  0.62980  0.71360  Biso   1.000  C
  H49      1.0000 0.64630  0.11630  0.84190  Biso   1.000  H
  H50      1.0000 0.64630  0.38370  0.34190  Biso   1.000  H
  H51      1.0000 0.35370  0.88370  0.15810  Biso   1.000  H
  H52      1.0000 0.35370  0.61630  0.65810  Biso   1.000  H
  C81      1.0000 0.72730  0.11960  0.72560  Biso   1.000  C
  C82      1.0000 0.72730  0.38040  0.22560  Biso   1.000  C
  C83      1.0000 0.27270  0.88040  0.27440  Biso   1.000  C
  C84      1.0000 0.27270  0.61960  0.77440  Biso   1.000  C
  H53      1.0000 0.83150  0.09870  0.74090  Biso   1.000  H
  H54      1.0000 0.83150  0.40130  0.24090  Biso   1.000  H
  H55      1.0000 0.16850  0.90130  0.25910  Biso   1.000  H
  H56      1.0000 0.16850  0.59870  0.75910  Biso   1.000  H
  N13      1.0000 0.68950  0.13910  0.64290  Biso   1.000  N
  N14      1.0000 0.68950  0.36090  0.14290  Biso   1.000  N
  N15      1.0000 0.31050  0.86090  0.35710  Biso   1.000  N
  N16      1.0000 0.31050  0.63910  0.85710  Biso   1.000  N
  C85      1.0000 0.53650  0.17260  0.62350  Biso   1.000  C
  C86      1.0000 0.53650  0.32740  0.12350  Biso   1.000  C
  C87      1.0000 0.46350  0.82740  0.37650  Biso   1.000  C
  C88      1.0000 0.46350  0.67260  0.87650  Biso   1.000  C
  H57      1.0000 0.51130  0.18850  0.56820  Biso   1.000  H
  H58      1.0000 0.51130  0.31150  0.06820  Biso   1.000  H
  H59      1.0000 0.48870  0.81150  0.43180  Biso   1.000  H
  H60      1.0000 0.48870  0.68850  0.93180  Biso   1.000  H
  C89      1.0000 0.41870  0.18400  0.68000  Biso   1.000  C
  C90      1.0000 0.41870  0.31600  0.18000  Biso   1.000  C
  C91      1.0000 0.58130  0.81600  0.32000  Biso   1.000  C
  C92      1.0000 0.58130  0.68400  0.82000  Biso   1.000  C
  H61      1.0000 0.31610  0.20630  0.66360  Biso   1.000  H
  H62      1.0000 0.31610  0.29370  0.16360  Biso   1.000  H
  H63      1.0000 0.68390  0.79370  0.33640  Biso   1.000  H
  H64      1.0000 0.68390  0.70630  0.83640  Biso   1.000  H
