data_image0
_cell_length_a       9.0754
_cell_length_b       9.9729
_cell_length_c       12.745
_cell_angle_alpha    98.342
_cell_angle_beta     95.367
_cell_angle_gamma    114.153

_symmetry_space_group_name_H-M    "P 1"
_symmetry_int_tables_number       1

loop_
  _symmetry_equiv_pos_as_xyz
  'x, y, z'

loop_
  _atom_site_label
  _atom_site_occupancy
  _atom_site_fract_x
  _atom_site_fract_y
  _atom_site_fract_z
  _atom_site_thermal_displace_type
  _atom_site_B_iso_or_equiv
  _atom_site_type_symbol
  Cu1      1.0000 0.50000  0.50000  0.00000  Biso   1.000  Cu
  Cu2      1.0000 0.50000  0.50000  0.50000  Biso   1.000  Cu
  S1       1.0000 0.47277  0.68647  0.26575  Biso   1.000  S
  S2       1.0000 0.52723  0.31353  0.73425  Biso   1.000  S
  O1       1.0000 0.62890  0.82150  0.29770  Biso   1.000  O
  O2       1.0000 0.37110  0.17850  0.70230  Biso   1.000  O
  O3       1.0000 0.33710  0.72150  0.29200  Biso   1.000  O
  O4       1.0000 0.66290  0.27850  0.70800  Biso   1.000  O
  O5       1.0000 0.44510  0.62870  0.14930  Biso   1.000  O
  O6       1.0000 0.55490  0.37130  0.85070  Biso   1.000  O
  O7       1.0000 0.47940  0.56970  0.32250  Biso   1.000  O
  O8       1.0000 0.52060  0.43030  0.67750  Biso   1.000  O
  N1       1.0000 0.70410  0.50610  0.08310  Biso   1.000  N
  N2       1.0000 0.29590  0.49390  0.91690  Biso   1.000  N
  N3       1.0000 0.91670  0.45830  0.11840  Biso   1.000  N
  N4       1.0000 0.08330  0.54170  0.88160  Biso   1.000  N
  N5       1.0000 0.63610  0.70000  0.96370  Biso   1.000  N
  N6       1.0000 0.36390  0.30000  0.03630  Biso   1.000  N
  N7       1.0000 0.78040  0.86720  0.87430  Biso   1.000  N
  N8       1.0000 0.21960  0.13280  0.12570  Biso   1.000  N
  N9       1.0000 0.48070  0.68180  0.57800  Biso   1.000  N
  N10      1.0000 0.51930  0.31820  0.42200  Biso   1.000  N
  N11      1.0000 0.43950  0.83140  0.70240  Biso   1.000  N
  N12      1.0000 0.56050  0.16860  0.29760  Biso   1.000  N
  N13      1.0000 0.25700  0.38930  0.47860  Biso   1.000  N
  N14      1.0000 0.74300  0.61070  0.52140  Biso   1.000  N
  N15      1.0000 0.00900  0.24460  0.49800  Biso   1.000  N
  N16      1.0000 0.99100  0.75540  0.50200  Biso   1.000  N
  C1       1.0000 0.77340  0.41730  0.05410  Biso   1.000  C
  C2       1.0000 0.22660  0.58270  0.94590  Biso   1.000  C
  C3       1.0000 0.02470  0.38370  0.11260  Biso   1.000  C
  C4       1.0000 0.97530  0.61630  0.88740  Biso   1.000  C
  C5       1.0000 0.94040  0.58080  0.19360  Biso   1.000  C
  C6       1.0000 0.05960  0.41920  0.80640  Biso   1.000  C
  C7       1.0000 0.80860  0.60980  0.17110  Biso   1.000  C
  C8       1.0000 0.19140  0.39020  0.82890  Biso   1.000  C
  C9       1.0000 0.68650  0.72130  0.87110  Biso   1.000  C
  C10      1.0000 0.31350  0.27870  0.12890  Biso   1.000  C
  C11      1.0000 0.85740  0.93080  0.78660  Biso   1.000  C
  C12      1.0000 0.14260  0.06920  0.21340  Biso   1.000  C
  C13      1.0000 0.78880  0.94180  0.97450  Biso   1.000  C
  C14      1.0000 0.21120  0.05820  0.02550  Biso   1.000  C
  C15      1.0000 0.70220  0.83990  0.02920  Biso   1.000  C
  C16      1.0000 0.29780  0.16010  0.97080  Biso   1.000  C
  C17      1.0000 0.42690  0.69270  0.66940  Biso   1.000  C
  C18      1.0000 0.57310  0.30730  0.33060  Biso   1.000  C
  C19      1.0000 0.39580  0.88800  0.80070  Biso   1.000  C
  C20      1.0000 0.60420  0.11200  0.19930  Biso   1.000  C
  C21      1.0000 0.50380  0.91390  0.62710  Biso   1.000  C
  C22      1.0000 0.49620  0.08610  0.37290  Biso   1.000  C
  C23      1.0000 0.52750  0.81920  0.55070  Biso   1.000  C
  C24      1.0000 0.47250  0.18080  0.44930  Biso   1.000  C
  C25      1.0000 0.16780  0.28460  0.52690  Biso   1.000  C
  C26      1.0000 0.83220  0.71540  0.47310  Biso   1.000  C
  C27      1.0000 0.87440  0.13080  0.53470  Biso   1.000  C
  C28      1.0000 0.12560  0.86920  0.46530  Biso   1.000  C
  C29      1.0000 0.99500  0.33020  0.42710  Biso   1.000  C
  C30      1.0000 0.00500  0.66980  0.57290  Biso   1.000  C
  C31      1.0000 0.14770  0.41960  0.41470  Biso   1.000  C
  C32      1.0000 0.85230  0.58040  0.58530  Biso   1.000  C
  H1       1.0000 0.72600  0.33220  0.99460  Biso   1.000  H
  H2       1.0000 0.27400  0.66780  0.00540  Biso   1.000  H
  H3       1.0000 0.13700  0.45540  0.13100  Biso   1.000  H
  H4       1.0000 0.86300  0.54460  0.86900  Biso   1.000  H
  H5       1.0000 0.00450  0.31550  0.16100  Biso   1.000  H
  H6       1.0000 0.99550  0.68450  0.83900  Biso   1.000  H
  H7       1.0000 0.00810  0.32770  0.04120  Biso   1.000  H
  H8       1.0000 0.99190  0.67230  0.95880  Biso   1.000  H
  H9       1.0000 0.03310  0.63620  0.25120  Biso   1.000  H
  H10      1.0000 0.96690  0.36380  0.74880  Biso   1.000  H
  H11      1.0000 0.79250  0.69260  0.20960  Biso   1.000  H
  H12      1.0000 0.20750  0.30740  0.79040  Biso   1.000  H
  H13      1.0000 0.66000  0.64240  0.80870  Biso   1.000  H
  H14      1.0000 0.34000  0.35760  0.19130  Biso   1.000  H
  H15      1.0000 0.84170  0.01830  0.77860  Biso   1.000  H
  H16      1.0000 0.15830  0.98170  0.22140  Biso   1.000  H
  H17      1.0000 0.97370  0.96000  0.80070  Biso   1.000  H
  H18      1.0000 0.02630  0.04000  0.19930  Biso   1.000  H
  H19      1.0000 0.81320  0.85980  0.72010  Biso   1.000  H
  H20      1.0000 0.18680  0.14020  0.27990  Biso   1.000  H
  H21      1.0000 0.84690  0.04860  0.00050  Biso   1.000  H
  H22      1.0000 0.15310  0.95140  0.99950  Biso   1.000  H
  H23      1.0000 0.68770  0.86010  0.10330  Biso   1.000  H
  H24      1.0000 0.31230  0.13990  0.89670  Biso   1.000  H
  H25      1.0000 0.38390  0.61160  0.70820  Biso   1.000  H
  H26      1.0000 0.61610  0.38840  0.29180  Biso   1.000  H
  H27      1.0000 0.48420  0.97860  0.84010  Biso   1.000  H
  H28      1.0000 0.51580  0.02140  0.15990  Biso   1.000  H
  H29      1.0000 0.36720  0.81580  0.84590  Biso   1.000  H
  H30      1.0000 0.63280  0.18420  0.15410  Biso   1.000  H
  H31      1.0000 0.30250  0.90950  0.78440  Biso   1.000  H
  H32      1.0000 0.69750  0.09050  0.21560  Biso   1.000  H
  H33      1.0000 0.52710  0.01730  0.62860  Biso   1.000  H
  H34      1.0000 0.47290  0.98270  0.37140  Biso   1.000  H
  H35      1.0000 0.57190  0.84450  0.48620  Biso   1.000  H
  H36      1.0000 0.42810  0.15550  0.51380  Biso   1.000  H
  H37      1.0000 0.21210  0.24120  0.57750  Biso   1.000  H
  H38      1.0000 0.78790  0.75880  0.42250  Biso   1.000  H
  H39      1.0000 0.80030  0.05520  0.47620  Biso   1.000  H
  H40      1.0000 0.19970  0.94480  0.52380  Biso   1.000  H
  H41      1.0000 0.81250  0.17660  0.57210  Biso   1.000  H
  H42      1.0000 0.18750  0.82340  0.42790  Biso   1.000  H
  H43      1.0000 0.91400  0.08510  0.58400  Biso   1.000  H
  H44      1.0000 0.08600  0.91490  0.41600  Biso   1.000  H
  H45      1.0000 0.89420  0.32760  0.39210  Biso   1.000  H
  H46      1.0000 0.10580  0.67240  0.60790  Biso   1.000  H
  H47      1.0000 0.17700  0.49270  0.36870  Biso   1.000  H
  H48      1.0000 0.82300  0.50730  0.63130  Biso   1.000  H
