data_image0
_cell_length_a       9.6342
_cell_length_b       12.1379
_cell_length_c       13.3493
_cell_angle_alpha    90
_cell_angle_beta     104.034
_cell_angle_gamma    90

_symmetry_space_group_name_H-M    "P 1"
_symmetry_int_tables_number       1

loop_
  _symmetry_equiv_pos_as_xyz
  'x, y, z'

loop_
  _atom_site_label
  _atom_site_occupancy
  _atom_site_fract_x
  _atom_site_fract_y
  _atom_site_fract_z
  _atom_site_thermal_displace_type
  _atom_site_B_iso_or_equiv
  _atom_site_type_symbol
  Cu1      1.0000 0.35350  0.97815  0.54270  Biso   1.000  Cu
  Cu2      1.0000 0.64650  0.47815  0.95730  Biso   1.000  Cu
  Cu3      1.0000 0.64650  0.02185  0.45730  Biso   1.000  Cu
  Cu4      1.0000 0.35350  0.52185  0.04270  Biso   1.000  Cu
  O1       1.0000 0.50480  0.80760  0.90400  Biso   1.000  O
  O2       1.0000 0.49520  0.30760  0.59600  Biso   1.000  O
  O3       1.0000 0.49520  0.19240  0.09600  Biso   1.000  O
  O4       1.0000 0.50480  0.69240  0.40400  Biso   1.000  O
  O5       1.0000 0.76810  0.06070  0.02690  Biso   1.000  O
  O6       1.0000 0.23190  0.56070  0.47310  Biso   1.000  O
  O7       1.0000 0.23190  0.93930  0.97310  Biso   1.000  O
  O8       1.0000 0.76810  0.43930  0.52690  Biso   1.000  O
  O9       1.0000 0.43750  0.98230  0.68760  Biso   1.000  O
  O10      1.0000 0.56250  0.48230  0.81240  Biso   1.000  O
  O11      1.0000 0.56250  0.01770  0.31240  Biso   1.000  O
  O12      1.0000 0.43750  0.51770  0.18760  Biso   1.000  O
  O13      1.0000 0.33120  0.82430  0.71240  Biso   1.000  O
  O14      1.0000 0.66880  0.32430  0.78760  Biso   1.000  O
  O15      1.0000 0.66880  0.17570  0.28760  Biso   1.000  O
  O16      1.0000 0.33120  0.67570  0.21240  Biso   1.000  O
  O17      1.0000 0.48520  0.62660  0.00610  Biso   1.000  O
  O18      1.0000 0.51480  0.12660  0.49390  Biso   1.000  O
  O19      1.0000 0.51480  0.37340  0.99390  Biso   1.000  O
  O20      1.0000 0.48520  0.87340  0.50610  Biso   1.000  O
  O21      1.0000 0.63360  0.69320  0.15010  Biso   1.000  O
  O22      1.0000 0.36640  0.19320  0.34990  Biso   1.000  O
  O23      1.0000 0.36640  0.30680  0.84990  Biso   1.000  O
  O24      1.0000 0.63360  0.80680  0.65010  Biso   1.000  O
  C1       1.0000 0.51440  0.90050  0.84750  Biso   1.000  C
  C2       1.0000 0.48560  0.40050  0.65250  Biso   1.000  C
  C3       1.0000 0.48560  0.09950  0.15250  Biso   1.000  C
  C4       1.0000 0.51440  0.59950  0.34750  Biso   1.000  C
  C5       1.0000 0.59960  0.98540  0.88580  Biso   1.000  C
  C6       1.0000 0.40040  0.48540  0.61420  Biso   1.000  C
  C7       1.0000 0.40040  0.01460  0.11420  Biso   1.000  C
  C8       1.0000 0.59960  0.51460  0.38580  Biso   1.000  C
  H1       1.0000 0.60070  0.04690  0.84450  Biso   1.000  H
  H2       1.0000 0.39930  0.54690  0.65550  Biso   1.000  H
  H3       1.0000 0.39930  0.95310  0.15550  Biso   1.000  H
  H4       1.0000 0.60070  0.45310  0.34450  Biso   1.000  H
  C9       1.0000 0.68940  0.98380  0.98910  Biso   1.000  C
  C10      1.0000 0.31060  0.48380  0.51090  Biso   1.000  C
  C11      1.0000 0.31060  0.01620  0.01090  Biso   1.000  C
  C12      1.0000 0.68940  0.51620  0.48910  Biso   1.000  C
  C13      1.0000 0.67520  0.88330  0.04480  Biso   1.000  C
  C14      1.0000 0.32480  0.38330  0.45520  Biso   1.000  C
  C15      1.0000 0.32480  0.11670  0.95520  Biso   1.000  C
  C16      1.0000 0.67520  0.61670  0.54480  Biso   1.000  C
  H5       1.0000 0.72990  0.87450  0.11200  Biso   1.000  H
  H6       1.0000 0.27010  0.37450  0.38800  Biso   1.000  H
  H7       1.0000 0.27010  0.12550  0.88800  Biso   1.000  H
  H8       1.0000 0.72990  0.62550  0.61200  Biso   1.000  H
  C17      1.0000 0.58590  0.80380  0.00170  Biso   1.000  C
  C18      1.0000 0.41410  0.30380  0.49830  Biso   1.000  C
  C19      1.0000 0.41410  0.19620  0.99830  Biso   1.000  C
  C20      1.0000 0.58590  0.69620  0.50170  Biso   1.000  C
  C21      1.0000 0.41700  0.89870  0.74040  Biso   1.000  C
  C22      1.0000 0.58300  0.39870  0.75960  Biso   1.000  C
  C23      1.0000 0.58300  0.10130  0.25960  Biso   1.000  C
  C24      1.0000 0.41700  0.60130  0.24040  Biso   1.000  C
  C25      1.0000 0.56670  0.69910  0.06090  Biso   1.000  C
  C26      1.0000 0.43330  0.19910  0.43910  Biso   1.000  C
  C27      1.0000 0.43330  0.30090  0.93910  Biso   1.000  C
  C28      1.0000 0.56670  0.80090  0.56090  Biso   1.000  C
  N1       1.0000 0.21380  0.09470  0.55400  Biso   1.000  N
  N2       1.0000 0.78620  0.59470  0.94600  Biso   1.000  N
  N3       1.0000 0.78620  0.90530  0.44600  Biso   1.000  N
  N4       1.0000 0.21380  0.40530  0.05400  Biso   1.000  N
  N5       1.0000 0.22480  0.96560  0.40180  Biso   1.000  N
  N6       1.0000 0.77520  0.46560  0.09820  Biso   1.000  N
  N7       1.0000 0.77520  0.03440  0.59820  Biso   1.000  N
  N8       1.0000 0.22480  0.53440  0.90180  Biso   1.000  N
  C29      1.0000 0.22320  0.16110  0.63600  Biso   1.000  C
  C30      1.0000 0.77680  0.66110  0.86400  Biso   1.000  C
  C31      1.0000 0.77680  0.83890  0.36400  Biso   1.000  C
  C32      1.0000 0.22320  0.33890  0.13600  Biso   1.000  C
  H9       1.0000 0.30130  0.15400  0.69240  Biso   1.000  H
  H10      1.0000 0.69870  0.65400  0.80760  Biso   1.000  H
  H11      1.0000 0.69870  0.84600  0.30760  Biso   1.000  H
  H12      1.0000 0.30130  0.34600  0.19240  Biso   1.000  H
  C33      1.0000 0.12070  0.23920  0.63920  Biso   1.000  C
  C34      1.0000 0.87930  0.73920  0.86080  Biso   1.000  C
  C35      1.0000 0.87930  0.76080  0.36080  Biso   1.000  C
  C36      1.0000 0.12070  0.26080  0.13920  Biso   1.000  C
  H13      1.0000 0.13000  0.28530  0.69610  Biso   1.000  H
  H14      1.0000 0.87000  0.78530  0.80390  Biso   1.000  H
  H15      1.0000 0.87000  0.71470  0.30390  Biso   1.000  H
  H16      1.0000 0.13000  0.21470  0.19610  Biso   1.000  H
  C37      1.0000 0.00420  0.24760  0.55620  Biso   1.000  C
  C38      1.0000 0.99580  0.74760  0.94380  Biso   1.000  C
  C39      1.0000 0.99580  0.75240  0.44380  Biso   1.000  C
  C40      1.0000 0.00420  0.25240  0.05620  Biso   1.000  C
  H17      1.0000 0.93240  0.29840  0.55760  Biso   1.000  H
  H18      1.0000 0.06760  0.79840  0.94240  Biso   1.000  H
  H19      1.0000 0.06760  0.70160  0.44240  Biso   1.000  H
  H20      1.0000 0.93240  0.20160  0.05760  Biso   1.000  H
  C41      1.0000 0.99350  0.18110  0.47090  Biso   1.000  C
  C42      1.0000 0.00650  0.68110  0.02910  Biso   1.000  C
  C43      1.0000 0.00650  0.81890  0.52910  Biso   1.000  C
  C44      1.0000 0.99350  0.31890  0.97090  Biso   1.000  C
  H21      1.0000 0.91520  0.18650  0.41450  Biso   1.000  H
  H22      1.0000 0.08480  0.68650  0.08550  Biso   1.000  H
  H23      1.0000 0.08480  0.81350  0.58550  Biso   1.000  H
  H24      1.0000 0.91520  0.31350  0.91450  Biso   1.000  H
  C45      1.0000 0.10200  0.10610  0.47110  Biso   1.000  C
  C46      1.0000 0.89800  0.60610  0.02890  Biso   1.000  C
  C47      1.0000 0.89800  0.89390  0.52890  Biso   1.000  C
  C48      1.0000 0.10200  0.39390  0.97110  Biso   1.000  C
  C49      1.0000 0.10960  0.03380  0.38290  Biso   1.000  C
  C50      1.0000 0.89040  0.53380  0.11710  Biso   1.000  C
  C51      1.0000 0.89040  0.96620  0.61710  Biso   1.000  C
  C52      1.0000 0.10960  0.46620  0.88290  Biso   1.000  C
  C53      1.0000 0.01230  0.03610  0.28880  Biso   1.000  C
  C54      1.0000 0.98770  0.53610  0.21120  Biso   1.000  C
  C55      1.0000 0.98770  0.96390  0.71120  Biso   1.000  C
  C56      1.0000 0.01230  0.46390  0.78880  Biso   1.000  C
  H25      1.0000 0.93250  0.08170  0.27790  Biso   1.000  H
  H26      1.0000 0.06750  0.58170  0.22210  Biso   1.000  H
  H27      1.0000 0.06750  0.91830  0.72210  Biso   1.000  H
  H28      1.0000 0.93250  0.41830  0.77790  Biso   1.000  H
  C57      1.0000 0.03560  0.96870  0.20990  Biso   1.000  C
  C58      1.0000 0.96440  0.46870  0.29010  Biso   1.000  C
  C59      1.0000 0.96440  0.03130  0.79010  Biso   1.000  C
  C60      1.0000 0.03560  0.53130  0.70990  Biso   1.000  C
  H29      1.0000 0.97310  0.97060  0.14480  Biso   1.000  H
  H30      1.0000 0.02690  0.47060  0.35520  Biso   1.000  H
  H31      1.0000 0.02690  0.02940  0.85520  Biso   1.000  H
  H32      1.0000 0.97310  0.52940  0.64480  Biso   1.000  H
  C61      1.0000 0.15130  0.89980  0.22930  Biso   1.000  C
  C62      1.0000 0.84870  0.39980  0.27070  Biso   1.000  C
  C63      1.0000 0.84870  0.10020  0.77070  Biso   1.000  C
  C64      1.0000 0.15130  0.60020  0.72930  Biso   1.000  C
  H33      1.0000 0.16710  0.85320  0.17790  Biso   1.000  H
  H34      1.0000 0.83290  0.35320  0.32210  Biso   1.000  H
  H35      1.0000 0.83290  0.14680  0.82210  Biso   1.000  H
  H36      1.0000 0.16710  0.64680  0.67790  Biso   1.000  H
  C65      1.0000 0.24510  0.89980  0.32650  Biso   1.000  C
  C66      1.0000 0.75490  0.39980  0.17350  Biso   1.000  C
  C67      1.0000 0.75490  0.10020  0.67350  Biso   1.000  C
  C68      1.0000 0.24510  0.60020  0.82650  Biso   1.000  C
  H37      1.0000 0.32380  0.85300  0.33930  Biso   1.000  H
  H38      1.0000 0.67620  0.35300  0.16070  Biso   1.000  H
  H39      1.0000 0.67620  0.14700  0.66070  Biso   1.000  H
  H40      1.0000 0.32380  0.64700  0.83930  Biso   1.000  H
