data_image0
_cell_length_a       9.7125
_cell_length_b       18.472
_cell_length_c       11.85
_cell_angle_alpha    90
_cell_angle_beta     94.31
_cell_angle_gamma    90

_symmetry_space_group_name_H-M    "P 1"
_symmetry_int_tables_number       1

loop_
  _symmetry_equiv_pos_as_xyz
  'x, y, z'

loop_
  _atom_site_label
  _atom_site_occupancy
  _atom_site_fract_x
  _atom_site_fract_y
  _atom_site_fract_z
  _atom_site_thermal_displace_type
  _atom_site_B_iso_or_equiv
  _atom_site_type_symbol
  Cu1      1.0000 0.65934  0.10757  0.11165  Biso   1.000  Cu
  Cu2      1.0000 0.84066  0.60757  0.38835  Biso   1.000  Cu
  Cu3      1.0000 0.34066  0.89243  0.88835  Biso   1.000  Cu
  Cu4      1.0000 0.15934  0.39243  0.61165  Biso   1.000  Cu
  Cu5      1.0000 0.65058  0.32072  0.83895  Biso   1.000  Cu
  Cu6      1.0000 0.84942  0.82072  0.66105  Biso   1.000  Cu
  Cu7      1.0000 0.34942  0.67928  0.16105  Biso   1.000  Cu
  Cu8      1.0000 0.15058  0.17928  0.33895  Biso   1.000  Cu
  O1       1.0000 0.66349  0.01958  0.02041  Biso   1.000  O
  O2       1.0000 0.83651  0.51958  0.47959  Biso   1.000  O
  O3       1.0000 0.33651  0.98042  0.97959  Biso   1.000  O
  O4       1.0000 0.16349  0.48042  0.52041  Biso   1.000  O
  N1       1.0000 0.53354  0.90823  0.84615  Biso   1.000  N
  N2       1.0000 0.96646  0.40823  0.65385  Biso   1.000  N
  N3       1.0000 0.46646  0.09177  0.15385  Biso   1.000  N
  N4       1.0000 0.03354  0.59177  0.34615  Biso   1.000  N
  O5       1.0000 0.51702  0.73339  0.72364  Biso   1.000  O
  O6       1.0000 0.98298  0.23339  0.77636  Biso   1.000  O
  O7       1.0000 0.48298  0.26661  0.27636  Biso   1.000  O
  O8       1.0000 0.01702  0.76661  0.22364  Biso   1.000  O
  N5       1.0000 0.47803  0.28062  0.89633  Biso   1.000  N
  N6       1.0000 0.02197  0.78062  0.60367  Biso   1.000  N
  N7       1.0000 0.52197  0.71938  0.10367  Biso   1.000  N
  N8       1.0000 0.97803  0.21938  0.39633  Biso   1.000  N
  N9       1.0000 0.84685  0.14318  0.07055  Biso   1.000  N
  N10      1.0000 0.65315  0.64318  0.42945  Biso   1.000  N
  N11      1.0000 0.15315  0.85682  0.92945  Biso   1.000  N
  N12      1.0000 0.34685  0.35682  0.57055  Biso   1.000  N
  O9       1.0000 0.36759  0.79867  0.81286  Biso   1.000  O
  O10      1.0000 0.13241  0.29867  0.68714  Biso   1.000  O
  O11      1.0000 0.63241  0.20133  0.18714  Biso   1.000  O
  O12      1.0000 0.86759  0.70133  0.31286  Biso   1.000  O
  O13      1.0000 0.94462  0.91265  0.70071  Biso   1.000  O
  O14      1.0000 0.55538  0.41265  0.79929  Biso   1.000  O
  O15      1.0000 0.05538  0.08735  0.29929  Biso   1.000  O
  O16      1.0000 0.44462  0.58735  0.20071  Biso   1.000  O
  C1       1.0000 0.63660  0.95838  0.84698  Biso   1.000  C
  C2       1.0000 0.86340  0.45838  0.65302  Biso   1.000  C
  C3       1.0000 0.36340  0.04162  0.15302  Biso   1.000  C
  C4       1.0000 0.13660  0.54162  0.34698  Biso   1.000  C
  O17      1.0000 0.91552  0.01855  0.78786  Biso   1.000  O
  O18      1.0000 0.58448  0.51855  0.71214  Biso   1.000  O
  O19      1.0000 0.08448  0.98145  0.21214  Biso   1.000  O
  O20      1.0000 0.41552  0.48145  0.28786  Biso   1.000  O
  C5       1.0000 0.48269  0.78998  0.77032  Biso   1.000  C
  C6       1.0000 0.01731  0.28998  0.72968  Biso   1.000  C
  C7       1.0000 0.51731  0.21002  0.22968  Biso   1.000  C
  C8       1.0000 0.98269  0.71002  0.27032  Biso   1.000  C
  C9       1.0000 0.87411  0.95824  0.75628  Biso   1.000  C
  C10      1.0000 0.62589  0.45824  0.74372  Biso   1.000  C
  C11      1.0000 0.12589  0.04176  0.24372  Biso   1.000  C
  C12      1.0000 0.37411  0.54176  0.25628  Biso   1.000  C
  N13      1.0000 0.69895  0.86437  0.74387  Biso   1.000  N
  N14      1.0000 0.80105  0.36437  0.75613  Biso   1.000  N
  N15      1.0000 0.30105  0.13563  0.25613  Biso   1.000  N
  N16      1.0000 0.19895  0.63563  0.24387  Biso   1.000  N
  C13      1.0000 0.63841  0.02739  0.91476  Biso   1.000  C
  C14      1.0000 0.86159  0.52739  0.58524  Biso   1.000  C
  C15      1.0000 0.36159  0.97261  0.08524  Biso   1.000  C
  C16      1.0000 0.13841  0.47261  0.41476  Biso   1.000  C
  C17      1.0000 0.73718  0.93130  0.78306  Biso   1.000  C
  C18      1.0000 0.76282  0.43130  0.71694  Biso   1.000  C
  C19      1.0000 0.26282  0.06870  0.21694  Biso   1.000  C
  C20      1.0000 0.23718  0.56870  0.28306  Biso   1.000  C
  O21      1.0000 0.62003  0.08561  0.86519  Biso   1.000  O
  O22      1.0000 0.87997  0.58561  0.63481  Biso   1.000  O
  O23      1.0000 0.37997  0.91439  0.13481  Biso   1.000  O
  O24      1.0000 0.12003  0.41439  0.36519  Biso   1.000  O
  C21      1.0000 0.57546  0.85299  0.78324  Biso   1.000  C
  C22      1.0000 0.92454  0.35299  0.71676  Biso   1.000  C
  C23      1.0000 0.42454  0.14701  0.21676  Biso   1.000  C
  C24      1.0000 0.07546  0.64701  0.28324  Biso   1.000  C
  C25      1.0000 0.42802  0.21636  0.86038  Biso   1.000  C
  C26      1.0000 0.07198  0.71636  0.63962  Biso   1.000  C
  C27      1.0000 0.57198  0.78364  0.13962  Biso   1.000  C
  C28      1.0000 0.92802  0.28364  0.36038  Biso   1.000  C
  H1       1.0000 0.47430  0.19120  0.80670  Biso   1.000  H
  H2       1.0000 0.02570  0.69120  0.69330  Biso   1.000  H
  H3       1.0000 0.52570  0.80880  0.19330  Biso   1.000  H
  H4       1.0000 0.97430  0.30880  0.30670  Biso   1.000  H
  C29      1.0000 0.06430  0.12246  0.99445  Biso   1.000  C
  C30      1.0000 0.43570  0.62246  0.50555  Biso   1.000  C
  C31      1.0000 0.93570  0.87754  0.00555  Biso   1.000  C
  C32      1.0000 0.56430  0.37754  0.49445  Biso   1.000  C
  H5       1.0000 0.12290  0.09010  0.96170  Biso   1.000  H
  H6       1.0000 0.37710  0.59010  0.53830  Biso   1.000  H
  H7       1.0000 0.87710  0.90990  0.03830  Biso   1.000  H
  H8       1.0000 0.62290  0.40990  0.46170  Biso   1.000  H
  C33      1.0000 0.10531  0.19380  0.01394  Biso   1.000  C
  C34      1.0000 0.39469  0.69380  0.48606  Biso   1.000  C
  C35      1.0000 0.89469  0.80620  0.98606  Biso   1.000  C
  C36      1.0000 0.60531  0.30620  0.51394  Biso   1.000  C
  C37      1.0000 0.93626  0.09978  0.02387  Biso   1.000  C
  C38      1.0000 0.56374  0.59978  0.47613  Biso   1.000  C
  C39      1.0000 0.06374  0.90022  0.97613  Biso   1.000  C
  C40      1.0000 0.43626  0.40022  0.52387  Biso   1.000  C
  H9       1.0000 0.91120  0.05180  0.01040  Biso   1.000  H
  H10      1.0000 0.58880  0.55180  0.48960  Biso   1.000  H
  H11      1.0000 0.08880  0.94820  0.98960  Biso   1.000  H
  H12      1.0000 0.41120  0.44820  0.51040  Biso   1.000  H
  C41      1.0000 0.01242  0.23832  0.06433  Biso   1.000  C
  C42      1.0000 0.48758  0.73832  0.43567  Biso   1.000  C
  C43      1.0000 0.98758  0.76168  0.93567  Biso   1.000  C
  C44      1.0000 0.51242  0.26168  0.56433  Biso   1.000  C
  H13      1.0000 0.03520  0.28630  0.08020  Biso   1.000  H
  H14      1.0000 0.46480  0.78630  0.41980  Biso   1.000  H
  H15      1.0000 0.96480  0.71370  0.91980  Biso   1.000  H
  H16      1.0000 0.53520  0.21370  0.58020  Biso   1.000  H
  C45      1.0000 0.23710  0.22307  0.97677  Biso   1.000  C
  C46      1.0000 0.26290  0.72307  0.52323  Biso   1.000  C
  C47      1.0000 0.76290  0.77693  0.02323  Biso   1.000  C
  C48      1.0000 0.73710  0.27693  0.47677  Biso   1.000  C
  C49      1.0000 0.88670  0.21149  0.09081  Biso   1.000  C
  C50      1.0000 0.61330  0.71149  0.40919  Biso   1.000  C
  C51      1.0000 0.11330  0.78851  0.90919  Biso   1.000  C
  C52      1.0000 0.38670  0.28851  0.59081  Biso   1.000  C
  H17      1.0000 0.82640  0.24250  0.12450  Biso   1.000  H
  H18      1.0000 0.67360  0.74250  0.37550  Biso   1.000  H
  H19      1.0000 0.17360  0.75750  0.87550  Biso   1.000  H
  H20      1.0000 0.32640  0.25750  0.62450  Biso   1.000  H
  C53      1.0000 0.29019  0.28933  0.01413  Biso   1.000  C
  C54      1.0000 0.20981  0.78933  0.48587  Biso   1.000  C
  C55      1.0000 0.70981  0.71067  0.98587  Biso   1.000  C
  C56      1.0000 0.79019  0.21067  0.51413  Biso   1.000  C
  H21      1.0000 0.24610  0.31570  0.06770  Biso   1.000  H
  H22      1.0000 0.25390  0.81570  0.43230  Biso   1.000  H
  H23      1.0000 0.75390  0.68430  0.93230  Biso   1.000  H
  H24      1.0000 0.74610  0.18430  0.56770  Biso   1.000  H
  C57      1.0000 0.31103  0.18592  0.89941  Biso   1.000  C
  C58      1.0000 0.18897  0.68592  0.60059  Biso   1.000  C
  C59      1.0000 0.68897  0.81408  0.10059  Biso   1.000  C
  C60      1.0000 0.81103  0.31408  0.39941  Biso   1.000  C
  H25      1.0000 0.28160  0.14050  0.87390  Biso   1.000  H
  H26      1.0000 0.21840  0.64050  0.62610  Biso   1.000  H
  H27      1.0000 0.71840  0.85950  0.12610  Biso   1.000  H
  H28      1.0000 0.78160  0.35950  0.37390  Biso   1.000  H
  C61      1.0000 0.40832  0.31597  0.97181  Biso   1.000  C
  C62      1.0000 0.09168  0.81597  0.52819  Biso   1.000  C
  C63      1.0000 0.59168  0.68403  0.02819  Biso   1.000  C
  C64      1.0000 0.90832  0.18403  0.47181  Biso   1.000  C
  H29      1.0000 0.44110  0.36090  0.99720  Biso   1.000  H
  H30      1.0000 0.05890  0.86090  0.50280  Biso   1.000  H
  H31      1.0000 0.55890  0.63910  0.00280  Biso   1.000  H
  H32      1.0000 0.94110  0.13910  0.49720  Biso   1.000  H
  O25      1.0000 0.73783  0.36630  0.00877  Biso   1.000  O
  O26      1.0000 0.76217  0.86630  0.49123  Biso   1.000  O
  O27      1.0000 0.26217  0.63370  0.99123  Biso   1.000  O
  O28      1.0000 0.23783  0.13370  0.50877  Biso   1.000  O
  H33      1.0000 0.68900  0.37520  0.06550  Biso   1.000  H
  H34      1.0000 0.81100  0.87520  0.43450  Biso   1.000  H
  H35      1.0000 0.31100  0.62480  0.93450  Biso   1.000  H
  H36      1.0000 0.18900  0.12480  0.56550  Biso   1.000  H
  H37      1.0000 0.77580  0.40800  0.99960  Biso   1.000  H
  H38      1.0000 0.72420  0.90800  0.50040  Biso   1.000  H
  H39      1.0000 0.22420  0.59200  0.00040  Biso   1.000  H
  H40      1.0000 0.27580  0.09200  0.49960  Biso   1.000  H
  O29      1.0000 0.73164  0.22355  0.83134  Biso   1.000  O
  O30      1.0000 0.76836  0.72355  0.66866  Biso   1.000  O
  O31      1.0000 0.26836  0.77645  0.16866  Biso   1.000  O
  O32      1.0000 0.23164  0.27645  0.33134  Biso   1.000  O
  H41      1.0000 0.82120  0.22390  0.81040  Biso   1.000  H
  H42      1.0000 0.67880  0.72390  0.68960  Biso   1.000  H
  H43      1.0000 0.17880  0.77610  0.18960  Biso   1.000  H
  H44      1.0000 0.32120  0.27610  0.31040  Biso   1.000  H
  H45      1.0000 0.71360  0.18600  0.85710  Biso   1.000  H
  H46      1.0000 0.78640  0.68600  0.64290  Biso   1.000  H
  H47      1.0000 0.28640  0.81400  0.14290  Biso   1.000  H
  H48      1.0000 0.21360  0.31400  0.35710  Biso   1.000  H
  O33      1.0000 0.77158  0.04646  0.26910  Biso   1.000  O
  O34      1.0000 0.72842  0.54646  0.23090  Biso   1.000  O
  O35      1.0000 0.22842  0.95354  0.73090  Biso   1.000  O
  O36      1.0000 0.27158  0.45354  0.76910  Biso   1.000  O
  H49      1.0000 0.84340  0.06960  0.29370  Biso   1.000  H
  H50      1.0000 0.65660  0.56960  0.20630  Biso   1.000  H
  H51      1.0000 0.15660  0.93040  0.70630  Biso   1.000  H
  H52      1.0000 0.34340  0.43040  0.79370  Biso   1.000  H
  H53      1.0000 0.79760  0.01070  0.23110  Biso   1.000  H
  H54      1.0000 0.70240  0.51070  0.26890  Biso   1.000  H
  H55      1.0000 0.20240  0.98930  0.76890  Biso   1.000  H
  H56      1.0000 0.29760  0.48930  0.73110  Biso   1.000  H
  O37      1.0000 0.89477  0.89370  0.29885  Biso   1.000  O
  O38      1.0000 0.60523  0.39370  0.20115  Biso   1.000  O
  O39      1.0000 0.10523  0.10630  0.70115  Biso   1.000  O
  O40      1.0000 0.39477  0.60630  0.79885  Biso   1.000  O
  H57      1.0000 0.95550  0.92180  0.28430  Biso   1.000  H
  H58      1.0000 0.54450  0.42180  0.21570  Biso   1.000  H
  H59      1.0000 0.04450  0.07820  0.71570  Biso   1.000  H
  H60      1.0000 0.45550  0.57820  0.78430  Biso   1.000  H
  H61      1.0000 0.90780  0.86140  0.26850  Biso   1.000  H
  H62      1.0000 0.59220  0.36140  0.23150  Biso   1.000  H
  H63      1.0000 0.09220  0.13860  0.73150  Biso   1.000  H
  H64      1.0000 0.40780  0.63860  0.76850  Biso   1.000  H
  O41      1.0000 0.45550  0.91556  0.36860  Biso   1.000  O
  O42      1.0000 0.04450  0.41556  0.13140  Biso   1.000  O
  O43      1.0000 0.54450  0.08444  0.63140  Biso   1.000  O
  O44      1.0000 0.95550  0.58444  0.86860  Biso   1.000  O
  O45      1.0000 0.36720  0.99710  0.53670  Biso   1.000  O
  O46      1.0000 0.13280  0.49710  0.96330  Biso   1.000  O
  O47      1.0000 0.63280  0.00290  0.46330  Biso   1.000  O
  O48      1.0000 0.86720  0.50290  0.03670  Biso   1.000  O
  O49      1.0000 0.23900  0.97660  0.49010  Biso   1.000  O
  O50      1.0000 0.26100  0.47660  0.00990  Biso   1.000  O
  O51      1.0000 0.76100  0.02340  0.50990  Biso   1.000  O
  O52      1.0000 0.73900  0.52340  0.99010  Biso   1.000  O
