data_image0
_cell_length_a       13.1695
_cell_length_b       17.148
_cell_length_c       14.6239
_cell_angle_alpha    90
_cell_angle_beta     107.916
_cell_angle_gamma    90

_symmetry_space_group_name_H-M    "P 1"
_symmetry_int_tables_number       1

loop_
  _symmetry_equiv_pos_as_xyz
  'x, y, z'

loop_
  _atom_site_label
  _atom_site_occupancy
  _atom_site_fract_x
  _atom_site_fract_y
  _atom_site_fract_z
  _atom_site_thermal_displace_type
  _atom_site_B_iso_or_equiv
  _atom_site_type_symbol
  C1       1.0000 0.56040  0.16153  0.85830  Biso   1.000  C
  C2       1.0000 0.43960  0.16153  0.64170  Biso   1.000  C
  C3       1.0000 0.06040  0.66153  0.85830  Biso   1.000  C
  C4       1.0000 0.93960  0.66153  0.64170  Biso   1.000  C
  C5       1.0000 0.43960  0.83847  0.14170  Biso   1.000  C
  C6       1.0000 0.56040  0.83847  0.35830  Biso   1.000  C
  C7       1.0000 0.93960  0.33847  0.14170  Biso   1.000  C
  C8       1.0000 0.06040  0.33847  0.35830  Biso   1.000  C
  C9       1.0000 0.48770  0.09349  0.85490  Biso   1.000  C
  C10      1.0000 0.51230  0.09349  0.64510  Biso   1.000  C
  C11      1.0000 0.98770  0.59349  0.85490  Biso   1.000  C
  C12      1.0000 0.01230  0.59349  0.64510  Biso   1.000  C
  C13      1.0000 0.51230  0.90651  0.14510  Biso   1.000  C
  C14      1.0000 0.48770  0.90651  0.35490  Biso   1.000  C
  C15      1.0000 0.01230  0.40651  0.14510  Biso   1.000  C
  C16      1.0000 0.98770  0.40651  0.35490  Biso   1.000  C
  C17      1.0000 0.43310  0.09214  0.92250  Biso   1.000  C
  C18      1.0000 0.56690  0.09214  0.57750  Biso   1.000  C
  C19      1.0000 0.93310  0.59214  0.92250  Biso   1.000  C
  C20      1.0000 0.06690  0.59214  0.57750  Biso   1.000  C
  C21      1.0000 0.56690  0.90786  0.07750  Biso   1.000  C
  C22      1.0000 0.43310  0.90786  0.42250  Biso   1.000  C
  C23      1.0000 0.06690  0.40786  0.07750  Biso   1.000  C
  C24      1.0000 0.93310  0.40786  0.42250  Biso   1.000  C
  H1       1.0000 0.43750  0.13490  0.96260  Biso   1.000  H
  H2       1.0000 0.56250  0.13490  0.53740  Biso   1.000  H
  H3       1.0000 0.93750  0.63490  0.96260  Biso   1.000  H
  H4       1.0000 0.06250  0.63490  0.53740  Biso   1.000  H
  H5       1.0000 0.56250  0.86510  0.03740  Biso   1.000  H
  H6       1.0000 0.43750  0.86510  0.46260  Biso   1.000  H
  H7       1.0000 0.06250  0.36510  0.03740  Biso   1.000  H
  H8       1.0000 0.93750  0.36510  0.46260  Biso   1.000  H
  C25      1.0000 0.37240  0.02860  0.93110  Biso   1.000  C
  C26      1.0000 0.62760  0.02860  0.56890  Biso   1.000  C
  C27      1.0000 0.87240  0.52860  0.93110  Biso   1.000  C
  C28      1.0000 0.12760  0.52860  0.56890  Biso   1.000  C
  C29      1.0000 0.62760  0.97140  0.06890  Biso   1.000  C
  C30      1.0000 0.37240  0.97140  0.43110  Biso   1.000  C
  C31      1.0000 0.12760  0.47140  0.06890  Biso   1.000  C
  C32      1.0000 0.87240  0.47140  0.43110  Biso   1.000  C
  H9       1.0000 0.33500  0.02910  0.97560  Biso   1.000  H
  H10      1.0000 0.66500  0.02910  0.52440  Biso   1.000  H
  H11      1.0000 0.83500  0.52910  0.97560  Biso   1.000  H
  H12      1.0000 0.16500  0.52910  0.52440  Biso   1.000  H
  H13      1.0000 0.66500  0.97090  0.02440  Biso   1.000  H
  H14      1.0000 0.33500  0.97090  0.47560  Biso   1.000  H
  H15      1.0000 0.16500  0.47090  0.02440  Biso   1.000  H
  H16      1.0000 0.83500  0.47090  0.47560  Biso   1.000  H
  C33      1.0000 0.36770  0.96385  0.87280  Biso   1.000  C
  C34      1.0000 0.63230  0.96385  0.62720  Biso   1.000  C
  C35      1.0000 0.86770  0.46385  0.87280  Biso   1.000  C
  C36      1.0000 0.13230  0.46385  0.62720  Biso   1.000  C
  C37      1.0000 0.63230  0.03615  0.12720  Biso   1.000  C
  C38      1.0000 0.36770  0.03615  0.37280  Biso   1.000  C
  C39      1.0000 0.13230  0.53615  0.12720  Biso   1.000  C
  C40      1.0000 0.86770  0.53615  0.37280  Biso   1.000  C
  C41      1.0000 0.41800  0.96606  0.80250  Biso   1.000  C
  C42      1.0000 0.58200  0.96606  0.69750  Biso   1.000  C
  C43      1.0000 0.91800  0.46606  0.80250  Biso   1.000  C
  C44      1.0000 0.08200  0.46606  0.69750  Biso   1.000  C
  C45      1.0000 0.58200  0.03394  0.19750  Biso   1.000  C
  C46      1.0000 0.41800  0.03394  0.30250  Biso   1.000  C
  C47      1.0000 0.08200  0.53394  0.19750  Biso   1.000  C
  C48      1.0000 0.91800  0.53394  0.30250  Biso   1.000  C
  H17      1.0000 0.41240  0.92320  0.76230  Biso   1.000  H
  H18      1.0000 0.58760  0.92320  0.73770  Biso   1.000  H
  H19      1.0000 0.91240  0.42320  0.76230  Biso   1.000  H
  H20      1.0000 0.08760  0.42320  0.73770  Biso   1.000  H
  H21      1.0000 0.58760  0.07680  0.23770  Biso   1.000  H
  H22      1.0000 0.41240  0.07680  0.26230  Biso   1.000  H
  H23      1.0000 0.08760  0.57680  0.23770  Biso   1.000  H
  H24      1.0000 0.91240  0.57680  0.26230  Biso   1.000  H
  C49      1.0000 0.47680  0.03063  0.79020  Biso   1.000  C
  C50      1.0000 0.52320  0.03063  0.70980  Biso   1.000  C
  C51      1.0000 0.97680  0.53063  0.79020  Biso   1.000  C
  C52      1.0000 0.02320  0.53063  0.70980  Biso   1.000  C
  C53      1.0000 0.52320  0.96937  0.20980  Biso   1.000  C
  C54      1.0000 0.47680  0.96937  0.29020  Biso   1.000  C
  C55      1.0000 0.02320  0.46937  0.20980  Biso   1.000  C
  C56      1.0000 0.97680  0.46937  0.29020  Biso   1.000  C
  C57      1.0000 0.30840  0.89210  0.88660  Biso   1.000  C
  C58      1.0000 0.69160  0.89210  0.61340  Biso   1.000  C
  C59      1.0000 0.80840  0.39210  0.88660  Biso   1.000  C
  C60      1.0000 0.19160  0.39210  0.61340  Biso   1.000  C
  C61      1.0000 0.69160  0.10790  0.11340  Biso   1.000  C
  C62      1.0000 0.30840  0.10790  0.38660  Biso   1.000  C
  C63      1.0000 0.19160  0.60790  0.11340  Biso   1.000  C
  C64      1.0000 0.80840  0.60790  0.38660  Biso   1.000  C
  Cu1      1.0000 0.74601  0.23552  0.84179  Biso   1.000  Cu
  Cu2      1.0000 0.25399  0.23552  0.65821  Biso   1.000  Cu
  Cu3      1.0000 0.24601  0.73552  0.84179  Biso   1.000  Cu
  Cu4      1.0000 0.75399  0.73552  0.65821  Biso   1.000  Cu
  Cu5      1.0000 0.25399  0.76448  0.15821  Biso   1.000  Cu
  Cu6      1.0000 0.74601  0.76448  0.34179  Biso   1.000  Cu
  Cu7      1.0000 0.75399  0.26448  0.15821  Biso   1.000  Cu
  Cu8      1.0000 0.24601  0.26448  0.34179  Biso   1.000  Cu
  O1       1.0000 0.64697  0.14904  0.83904  Biso   1.000  O
  O2       1.0000 0.35303  0.14904  0.66096  Biso   1.000  O
  O3       1.0000 0.14697  0.64904  0.83904  Biso   1.000  O
  O4       1.0000 0.85303  0.64904  0.66096  Biso   1.000  O
  O5       1.0000 0.35303  0.85096  0.16096  Biso   1.000  O
  O6       1.0000 0.64697  0.85096  0.33904  Biso   1.000  O
  O7       1.0000 0.85303  0.35096  0.16096  Biso   1.000  O
  O8       1.0000 0.14697  0.35096  0.33904  Biso   1.000  O
  O9       1.0000 0.53470  0.22696  0.88180  Biso   1.000  O
  O10      1.0000 0.46530  0.22696  0.61820  Biso   1.000  O
  O11      1.0000 0.03470  0.72696  0.88180  Biso   1.000  O
  O12      1.0000 0.96530  0.72696  0.61820  Biso   1.000  O
  O13      1.0000 0.46530  0.77304  0.11820  Biso   1.000  O
  O14      1.0000 0.53470  0.77304  0.38180  Biso   1.000  O
  O15      1.0000 0.96530  0.27304  0.11820  Biso   1.000  O
  O16      1.0000 0.03470  0.27304  0.38180  Biso   1.000  O
  O17      1.0000 0.33640  0.82809  0.85600  Biso   1.000  O
  O18      1.0000 0.66360  0.82809  0.64400  Biso   1.000  O
  O19      1.0000 0.83640  0.32809  0.85600  Biso   1.000  O
  O20      1.0000 0.16360  0.32809  0.64400  Biso   1.000  O
  O21      1.0000 0.66360  0.17191  0.14400  Biso   1.000  O
  O22      1.0000 0.33640  0.17191  0.35600  Biso   1.000  O
  O23      1.0000 0.16360  0.67191  0.14400  Biso   1.000  O
  O24      1.0000 0.83640  0.67191  0.35600  Biso   1.000  O
  O25      1.0000 0.23800  0.89787  0.92520  Biso   1.000  O
  O26      1.0000 0.76200  0.89787  0.57480  Biso   1.000  O
  O27      1.0000 0.73800  0.39787  0.92520  Biso   1.000  O
  O28      1.0000 0.26200  0.39787  0.57480  Biso   1.000  O
  O29      1.0000 0.76200  0.10213  0.07480  Biso   1.000  O
  O30      1.0000 0.23800  0.10213  0.42520  Biso   1.000  O
  O31      1.0000 0.26200  0.60213  0.07480  Biso   1.000  O
  O32      1.0000 0.73800  0.60213  0.42520  Biso   1.000  O
  O33      1.0000 0.83660  0.19494  0.96479  Biso   1.000  O
  O34      1.0000 0.16340  0.19494  0.53521  Biso   1.000  O
  O35      1.0000 0.33660  0.69494  0.96479  Biso   1.000  O
  O36      1.0000 0.66340  0.69494  0.53521  Biso   1.000  O
  O37      1.0000 0.16340  0.80506  0.03521  Biso   1.000  O
  O38      1.0000 0.83660  0.80506  0.46479  Biso   1.000  O
  O39      1.0000 0.66340  0.30506  0.03521  Biso   1.000  O
  O40      1.0000 0.33660  0.30506  0.46479  Biso   1.000  O
  H25      1.0000 0.86940  0.23250  0.99940  Biso   1.000  H
  H26      1.0000 0.13060  0.23250  0.50060  Biso   1.000  H
  H27      1.0000 0.36940  0.73250  0.99940  Biso   1.000  H
  H28      1.0000 0.63060  0.73250  0.50060  Biso   1.000  H
  H29      1.0000 0.13060  0.76750  0.00060  Biso   1.000  H
  H30      1.0000 0.86940  0.76750  0.49940  Biso   1.000  H
  H31      1.0000 0.63060  0.26750  0.00060  Biso   1.000  H
  H32      1.0000 0.36940  0.26750  0.49940  Biso   1.000  H
  H33      1.0000 0.80340  0.16660  0.99390  Biso   1.000  H
  H34      1.0000 0.19660  0.16660  0.50610  Biso   1.000  H
  H35      1.0000 0.30340  0.66660  0.99390  Biso   1.000  H
  H36      1.0000 0.69660  0.66660  0.50610  Biso   1.000  H
  H37      1.0000 0.19660  0.83340  0.00610  Biso   1.000  H
  H38      1.0000 0.80340  0.83340  0.49390  Biso   1.000  H
  H39      1.0000 0.69660  0.33340  0.00610  Biso   1.000  H
  H40      1.0000 0.30340  0.33340  0.49390  Biso   1.000  H
  O41      1.0000 0.83760  0.15860  0.76720  Biso   1.000  O
  O42      1.0000 0.16240  0.15860  0.73280  Biso   1.000  O
  O43      1.0000 0.33760  0.65860  0.76720  Biso   1.000  O
  O44      1.0000 0.66240  0.65860  0.73280  Biso   1.000  O
  O45      1.0000 0.16240  0.84140  0.23280  Biso   1.000  O
  O46      1.0000 0.83760  0.84140  0.26720  Biso   1.000  O
  O47      1.0000 0.66240  0.34140  0.23280  Biso   1.000  O
  O48      1.0000 0.33760  0.34140  0.26720  Biso   1.000  O
  H41      1.0000 0.82460  0.17260  0.71120  Biso   1.000  H
  H42      1.0000 0.17540  0.17260  0.78880  Biso   1.000  H
  H43      1.0000 0.32460  0.67260  0.71120  Biso   1.000  H
  H44      1.0000 0.67540  0.67260  0.78880  Biso   1.000  H
  H45      1.0000 0.17540  0.82740  0.28880  Biso   1.000  H
  H46      1.0000 0.82460  0.82740  0.21120  Biso   1.000  H
  H47      1.0000 0.67540  0.32740  0.28880  Biso   1.000  H
  H48      1.0000 0.32460  0.32740  0.21120  Biso   1.000  H
  H49      1.0000 0.88250  0.18840  0.80070  Biso   1.000  H
  H50      1.0000 0.11750  0.18840  0.69930  Biso   1.000  H
  H51      1.0000 0.38250  0.68840  0.80070  Biso   1.000  H
  H52      1.0000 0.61750  0.68840  0.69930  Biso   1.000  H
  H53      1.0000 0.11750  0.81160  0.19930  Biso   1.000  H
  H54      1.0000 0.88250  0.81160  0.30070  Biso   1.000  H
  H55      1.0000 0.61750  0.31160  0.19930  Biso   1.000  H
  H56      1.0000 0.38250  0.31160  0.30070  Biso   1.000  H
  O49      1.0000 0.65430  0.28326  0.72310  Biso   1.000  O
  O50      1.0000 0.34570  0.28326  0.77690  Biso   1.000  O
  O51      1.0000 0.15430  0.78326  0.72310  Biso   1.000  O
  O52      1.0000 0.84570  0.78326  0.77690  Biso   1.000  O
  O53      1.0000 0.34570  0.71674  0.27690  Biso   1.000  O
  O54      1.0000 0.65430  0.71674  0.22310  Biso   1.000  O
  O55      1.0000 0.84570  0.21674  0.27690  Biso   1.000  O
  O56      1.0000 0.15430  0.21674  0.22310  Biso   1.000  O
  H57      1.0000 0.69270  0.30040  0.69020  Biso   1.000  H
  H58      1.0000 0.30730  0.30040  0.80980  Biso   1.000  H
  H59      1.0000 0.19270  0.80040  0.69020  Biso   1.000  H
  H60      1.0000 0.80730  0.80040  0.80980  Biso   1.000  H
  H61      1.0000 0.30730  0.69960  0.30980  Biso   1.000  H
  H62      1.0000 0.69270  0.69960  0.19020  Biso   1.000  H
  H63      1.0000 0.80730  0.19960  0.30980  Biso   1.000  H
  H64      1.0000 0.19270  0.19960  0.19020  Biso   1.000  H
  H65      1.0000 0.60420  0.25780  0.68400  Biso   1.000  H
  H66      1.0000 0.39580  0.25780  0.81600  Biso   1.000  H
  H67      1.0000 0.10420  0.75780  0.68400  Biso   1.000  H
  H68      1.0000 0.89580  0.75780  0.81600  Biso   1.000  H
  H69      1.0000 0.39580  0.74220  0.31600  Biso   1.000  H
  H70      1.0000 0.60420  0.74220  0.18400  Biso   1.000  H
  H71      1.0000 0.89580  0.24220  0.31600  Biso   1.000  H
  H72      1.0000 0.10420  0.24220  0.18400  Biso   1.000  H
  O57      1.0000 0.74630  0.14740  0.39300  Biso   1.000  O
  O58      1.0000 0.25370  0.14740  0.10700  Biso   1.000  O
  O59      1.0000 0.24630  0.64740  0.39300  Biso   1.000  O
  O60      1.0000 0.75370  0.64740  0.10700  Biso   1.000  O
  O61      1.0000 0.25370  0.85260  0.60700  Biso   1.000  O
  O62      1.0000 0.74630  0.85260  0.89300  Biso   1.000  O
  O63      1.0000 0.75370  0.35260  0.60700  Biso   1.000  O
  O64      1.0000 0.24630  0.35260  0.89300  Biso   1.000  O
  H73      1.0000 0.68340  0.16120  0.39060  Biso   1.000  H
  H74      1.0000 0.31660  0.16120  0.10940  Biso   1.000  H
  H75      1.0000 0.18340  0.66120  0.39060  Biso   1.000  H
  H76      1.0000 0.81660  0.66120  0.10940  Biso   1.000  H
  H77      1.0000 0.31660  0.83880  0.60940  Biso   1.000  H
  H78      1.0000 0.68340  0.83880  0.89060  Biso   1.000  H
  H79      1.0000 0.81660  0.33880  0.60940  Biso   1.000  H
  H80      1.0000 0.18340  0.33880  0.89060  Biso   1.000  H
  H81      1.0000 0.78220  0.15530  0.45160  Biso   1.000  H
  H82      1.0000 0.21780  0.15530  0.04840  Biso   1.000  H
  H83      1.0000 0.28220  0.65530  0.45160  Biso   1.000  H
  H84      1.0000 0.71780  0.65530  0.04840  Biso   1.000  H
  H85      1.0000 0.21780  0.84470  0.54840  Biso   1.000  H
  H86      1.0000 0.78220  0.84470  0.95160  Biso   1.000  H
  H87      1.0000 0.71780  0.34470  0.54840  Biso   1.000  H
  H88      1.0000 0.28220  0.34470  0.95160  Biso   1.000  H
  O65      1.0000 0.87200  0.14770  0.58550  Biso   1.000  O
  O66      1.0000 0.12800  0.14770  0.91450  Biso   1.000  O
  O67      1.0000 0.37200  0.64770  0.58550  Biso   1.000  O
  O68      1.0000 0.62800  0.64770  0.91450  Biso   1.000  O
  O69      1.0000 0.12800  0.85230  0.41450  Biso   1.000  O
  O70      1.0000 0.87200  0.85230  0.08550  Biso   1.000  O
  O71      1.0000 0.62800  0.35230  0.41450  Biso   1.000  O
  O72      1.0000 0.37200  0.35230  0.08550  Biso   1.000  O
  H89      1.0000 0.90600  0.13350  0.55010  Biso   1.000  H
  H90      1.0000 0.09400  0.13350  0.94990  Biso   1.000  H
  H91      1.0000 0.40600  0.63350  0.55010  Biso   1.000  H
  H92      1.0000 0.59400  0.63350  0.94990  Biso   1.000  H
  H93      1.0000 0.09400  0.86650  0.44990  Biso   1.000  H
  H94      1.0000 0.90600  0.86650  0.05010  Biso   1.000  H
  H95      1.0000 0.59400  0.36650  0.44990  Biso   1.000  H
  H96      1.0000 0.40600  0.36650  0.05010  Biso   1.000  H
  H97      1.0000 0.89530  0.12560  0.63750  Biso   1.000  H
  H98      1.0000 0.10470  0.12560  0.86250  Biso   1.000  H
  H99      1.0000 0.39530  0.62560  0.63750  Biso   1.000  H
  H100     1.0000 0.60470  0.62560  0.86250  Biso   1.000  H
  H101     1.0000 0.10470  0.87440  0.36250  Biso   1.000  H
  H102     1.0000 0.89530  0.87440  0.13750  Biso   1.000  H
  H103     1.0000 0.60470  0.37440  0.36250  Biso   1.000  H
  H104     1.0000 0.39530  0.37440  0.13750  Biso   1.000  H
  O73      1.0000 0.95750  0.29010  0.64770  Biso   1.000  O
  O74      1.0000 0.04250  0.29010  0.85230  Biso   1.000  O
  O75      1.0000 0.45750  0.79010  0.64770  Biso   1.000  O
  O76      1.0000 0.54250  0.79010  0.85230  Biso   1.000  O
  O77      1.0000 0.04250  0.70990  0.35230  Biso   1.000  O
  O78      1.0000 0.95750  0.70990  0.14770  Biso   1.000  O
  O79      1.0000 0.54250  0.20990  0.35230  Biso   1.000  O
  O80      1.0000 0.45750  0.20990  0.14770  Biso   1.000  O
  H105     1.0000 0.93370  0.25000  0.61280  Biso   1.000  H
  H106     1.0000 0.06630  0.25000  0.88720  Biso   1.000  H
  H107     1.0000 0.43370  0.75000  0.61280  Biso   1.000  H
  H108     1.0000 0.56630  0.75000  0.88720  Biso   1.000  H
  H109     1.0000 0.06630  0.75000  0.38720  Biso   1.000  H
  H110     1.0000 0.93370  0.75000  0.11280  Biso   1.000  H
  H111     1.0000 0.56630  0.25000  0.38720  Biso   1.000  H
  H112     1.0000 0.43370  0.25000  0.11280  Biso   1.000  H
  H113     1.0000 0.01240  0.30230  0.63220  Biso   1.000  H
  H114     1.0000 0.98760  0.30230  0.86780  Biso   1.000  H
  H115     1.0000 0.51240  0.80230  0.63220  Biso   1.000  H
  H116     1.0000 0.48760  0.80230  0.86780  Biso   1.000  H
  H117     1.0000 0.98760  0.69770  0.36780  Biso   1.000  H
  H118     1.0000 0.01240  0.69770  0.13220  Biso   1.000  H
  H119     1.0000 0.48760  0.19770  0.36780  Biso   1.000  H
  H120     1.0000 0.51240  0.19770  0.13220  Biso   1.000  H
  O81      1.0000 0.50000  0.41200  0.75000  Biso   1.000  O
  O82      1.0000 0.00000  0.91200  0.75000  Biso   1.000  O
  O83      1.0000 0.50000  0.58800  0.25000  Biso   1.000  O
  O84      1.0000 0.00000  0.08800  0.25000  Biso   1.000  O
  H121     1.0000 0.52450  0.37010  0.73970  Biso   1.000  H
  H122     1.0000 0.47550  0.37010  0.76030  Biso   1.000  H
  H123     1.0000 0.02450  0.87010  0.73970  Biso   1.000  H
  H124     1.0000 0.97550  0.87010  0.76030  Biso   1.000  H
  H125     1.0000 0.47550  0.62990  0.26030  Biso   1.000  H
  H126     1.0000 0.52450  0.62990  0.23970  Biso   1.000  H
  H127     1.0000 0.97550  0.12990  0.26030  Biso   1.000  H
  H128     1.0000 0.02450  0.12990  0.23970  Biso   1.000  H
  H129     1.0000 0.45050  0.42320  0.70210  Biso   1.000  H
  H130     1.0000 0.54950  0.42320  0.79790  Biso   1.000  H
  H131     1.0000 0.95050  0.92320  0.70210  Biso   1.000  H
  H132     1.0000 0.04950  0.92320  0.79790  Biso   1.000  H
  H133     1.0000 0.54950  0.57680  0.29790  Biso   1.000  H
  H134     1.0000 0.45050  0.57680  0.20210  Biso   1.000  H
  H135     1.0000 0.04950  0.07680  0.29790  Biso   1.000  H
  H136     1.0000 0.95050  0.07680  0.20210  Biso   1.000  H
  O85      1.0000 0.49830  0.52070  0.88720  Biso   1.000  O
  O86      1.0000 0.50170  0.52070  0.61280  Biso   1.000  O
  O87      1.0000 0.99830  0.02070  0.88720  Biso   1.000  O
  O88      1.0000 0.00170  0.02070  0.61280  Biso   1.000  O
  O89      1.0000 0.50170  0.47930  0.11280  Biso   1.000  O
  O90      1.0000 0.49830  0.47930  0.38720  Biso   1.000  O
  O91      1.0000 0.00170  0.97930  0.11280  Biso   1.000  O
  O92      1.0000 0.99830  0.97930  0.38720  Biso   1.000  O
  H137     1.0000 0.46440  0.51370  0.92510  Biso   1.000  H
  H138     1.0000 0.53560  0.51370  0.57490  Biso   1.000  H
  H139     1.0000 0.96440  0.01370  0.92510  Biso   1.000  H
  H140     1.0000 0.03560  0.01370  0.57490  Biso   1.000  H
  H141     1.0000 0.53560  0.48630  0.07490  Biso   1.000  H
  H142     1.0000 0.46440  0.48630  0.42510  Biso   1.000  H
  H143     1.0000 0.03560  0.98630  0.07490  Biso   1.000  H
  H144     1.0000 0.96440  0.98630  0.42510  Biso   1.000  H
  H145     1.0000 0.55660  0.49460  0.90990  Biso   1.000  H
  H146     1.0000 0.44340  0.49460  0.59010  Biso   1.000  H
  H147     1.0000 0.05660  0.99460  0.90990  Biso   1.000  H
  H148     1.0000 0.94340  0.99460  0.59010  Biso   1.000  H
  H149     1.0000 0.44340  0.50540  0.09010  Biso   1.000  H
  H150     1.0000 0.55660  0.50540  0.40990  Biso   1.000  H
  H151     1.0000 0.94340  0.00540  0.09010  Biso   1.000  H
  H152     1.0000 0.05660  0.00540  0.40990  Biso   1.000  H
  O93      1.0000 0.78790  0.98900  0.39430  Biso   1.000  O
  O94      1.0000 0.21210  0.98900  0.10570  Biso   1.000  O
  O95      1.0000 0.28790  0.48900  0.39430  Biso   1.000  O
  O96      1.0000 0.71210  0.48900  0.10570  Biso   1.000  O
  O97      1.0000 0.21210  0.01100  0.60570  Biso   1.000  O
  O98      1.0000 0.78790  0.01100  0.89430  Biso   1.000  O
  O99      1.0000 0.71210  0.51100  0.60570  Biso   1.000  O
  O100     1.0000 0.28790  0.51100  0.89430  Biso   1.000  O
  H153     1.0000 0.76830  0.03450  0.38510  Biso   1.000  H
  H154     1.0000 0.23170  0.03450  0.11490  Biso   1.000  H
  H155     1.0000 0.26830  0.53450  0.38510  Biso   1.000  H
  H156     1.0000 0.73170  0.53450  0.11490  Biso   1.000  H
  H157     1.0000 0.23170  0.96550  0.61490  Biso   1.000  H
  H158     1.0000 0.76830  0.96550  0.88510  Biso   1.000  H
  H159     1.0000 0.73170  0.46550  0.61490  Biso   1.000  H
  H160     1.0000 0.26830  0.46550  0.88510  Biso   1.000  H
  H161     1.0000 0.74170  0.96480  0.40930  Biso   1.000  H
  H162     1.0000 0.25830  0.96480  0.09070  Biso   1.000  H
  H163     1.0000 0.24170  0.46480  0.40930  Biso   1.000  H
  H164     1.0000 0.75830  0.46480  0.09070  Biso   1.000  H
  H165     1.0000 0.25830  0.03520  0.59070  Biso   1.000  H
  H166     1.0000 0.74170  0.03520  0.90930  Biso   1.000  H
  H167     1.0000 0.75830  0.53520  0.59070  Biso   1.000  H
  H168     1.0000 0.24170  0.53520  0.90930  Biso   1.000  H
