data_image0
_cell_length_a       14.12
_cell_length_b       15.44
_cell_length_c       21.25
_cell_angle_alpha    90
_cell_angle_beta     90
_cell_angle_gamma    90

_symmetry_space_group_name_H-M    "P 1"
_symmetry_int_tables_number       1

loop_
  _symmetry_equiv_pos_as_xyz
  'x, y, z'

loop_
  _atom_site_label
  _atom_site_occupancy
  _atom_site_fract_x
  _atom_site_fract_y
  _atom_site_fract_z
  _atom_site_thermal_displace_type
  _atom_site_B_iso_or_equiv
  _atom_site_type_symbol
  Cu1      1.0000 0.25158  0.08464  0.09864  Biso   1.000  Cu
  Cu2      1.0000 0.24842  0.91536  0.59864  Biso   1.000  Cu
  Cu3      1.0000 0.74842  0.58464  0.40136  Biso   1.000  Cu
  Cu4      1.0000 0.75158  0.41536  0.90136  Biso   1.000  Cu
  Cu5      1.0000 0.00319  0.39015  0.11651  Biso   1.000  Cu
  Cu6      1.0000 0.49681  0.60985  0.61651  Biso   1.000  Cu
  Cu7      1.0000 0.99681  0.89015  0.38349  Biso   1.000  Cu
  Cu8      1.0000 0.50319  0.10985  0.88349  Biso   1.000  Cu
  O1       1.0000 0.31510  0.97630  0.10220  Biso   1.000  O
  O2       1.0000 0.18490  0.02370  0.60220  Biso   1.000  O
  O3       1.0000 0.68490  0.47630  0.39780  Biso   1.000  O
  O4       1.0000 0.81510  0.52370  0.89780  Biso   1.000  O
  O5       1.0000 0.17460  0.19140  0.11032  Biso   1.000  O
  O6       1.0000 0.32540  0.80860  0.61032  Biso   1.000  O
  O7       1.0000 0.82540  0.69140  0.38968  Biso   1.000  O
  O8       1.0000 0.67460  0.30860  0.88968  Biso   1.000  O
  O9       1.0000 0.02380  0.23960  0.10010  Biso   1.000  O
  O10      1.0000 0.47620  0.76040  0.60010  Biso   1.000  O
  O11      1.0000 0.97620  0.73960  0.39990  Biso   1.000  O
  O12      1.0000 0.52380  0.26040  0.89990  Biso   1.000  O
  O13      1.0000 0.57510  0.09530  0.80770  Biso   1.000  O
  O14      1.0000 0.92490  0.90470  0.30770  Biso   1.000  O
  O15      1.0000 0.42490  0.59530  0.69230  Biso   1.000  O
  O16      1.0000 0.07510  0.40470  0.19230  Biso   1.000  O
  O17      1.0000 0.41820  0.10180  0.95761  Biso   1.000  O
  O18      1.0000 0.08180  0.89820  0.45761  Biso   1.000  O
  O19      1.0000 0.58180  0.60180  0.54239  Biso   1.000  O
  O20      1.0000 0.91820  0.39820  0.04239  Biso   1.000  O
  O21      1.0000 0.26510  0.11600  0.98663  Biso   1.000  O
  O22      1.0000 0.23490  0.88400  0.48663  Biso   1.000  O
  O23      1.0000 0.73490  0.61600  0.51337  Biso   1.000  O
  O24      1.0000 0.76510  0.38400  0.01337  Biso   1.000  O
  O25      1.0000 0.43960  0.93210  0.21250  Biso   1.000  O
  O26      1.0000 0.06040  0.06790  0.71250  Biso   1.000  O
  O27      1.0000 0.56040  0.43210  0.28750  Biso   1.000  O
  O28      1.0000 0.93960  0.56790  0.78750  Biso   1.000  O
  H1       1.0000 0.40580  0.95810  0.18740  Biso   1.000  H
  H2       1.0000 0.09420  0.04190  0.68740  Biso   1.000  H
  H3       1.0000 0.59420  0.45810  0.31260  Biso   1.000  H
  H4       1.0000 0.90580  0.54190  0.81260  Biso   1.000  H
  O29      1.0000 0.24480  0.52820  0.18520  Biso   1.000  O
  O30      1.0000 0.25520  0.47180  0.68520  Biso   1.000  O
  O31      1.0000 0.75520  0.02820  0.31480  Biso   1.000  O
  O32      1.0000 0.74480  0.97180  0.81480  Biso   1.000  O
  H5       1.0000 0.19760  0.49420  0.18730  Biso   1.000  H
  H6       1.0000 0.30240  0.50580  0.68730  Biso   1.000  H
  H7       1.0000 0.80240  0.99420  0.31270  Biso   1.000  H
  H8       1.0000 0.69760  0.00580  0.81270  Biso   1.000  H
  N1       1.0000 0.12800  0.02830  0.08300  Biso   1.000  N
  N2       1.0000 0.37200  0.97170  0.58300  Biso   1.000  N
  N3       1.0000 0.87200  0.52830  0.41700  Biso   1.000  N
  N4       1.0000 0.62800  0.47170  0.91700  Biso   1.000  N
  N5       1.0000 0.38450  0.12680  0.83550  Biso   1.000  N
  N6       1.0000 0.11550  0.87320  0.33550  Biso   1.000  N
  N7       1.0000 0.61550  0.62680  0.66450  Biso   1.000  N
  N8       1.0000 0.88450  0.37320  0.16450  Biso   1.000  N
  N9       1.0000 0.11920  0.41880  0.06540  Biso   1.000  N
  N10      1.0000 0.38080  0.58120  0.56540  Biso   1.000  N
  N11      1.0000 0.88080  0.91880  0.43460  Biso   1.000  N
  N12      1.0000 0.61920  0.08120  0.93460  Biso   1.000  N
  N13      1.0000 0.19790  0.36730  0.06910  Biso   1.000  N
  N14      1.0000 0.30210  0.63270  0.56910  Biso   1.000  N
  N15      1.0000 0.80210  0.86730  0.43090  Biso   1.000  N
  N16      1.0000 0.69790  0.13270  0.93090  Biso   1.000  N
  H9       1.0000 0.20010  0.32000  0.09040  Biso   1.000  H
  H10      1.0000 0.29990  0.68000  0.59040  Biso   1.000  H
  H11      1.0000 0.79990  0.82000  0.40960  Biso   1.000  H
  H12      1.0000 0.70010  0.18000  0.90960  Biso   1.000  H
  N17      1.0000 0.37200  0.14570  0.12550  Biso   1.000  N
  N18      1.0000 0.12800  0.85430  0.62550  Biso   1.000  N
  N19      1.0000 0.62800  0.64570  0.37450  Biso   1.000  N
  N20      1.0000 0.87200  0.35430  0.87450  Biso   1.000  N
  N21      1.0000 0.44710  0.15060  0.08520  Biso   1.000  N
  N22      1.0000 0.05290  0.84940  0.58520  Biso   1.000  N
  N23      1.0000 0.55290  0.65060  0.41480  Biso   1.000  N
  N24      1.0000 0.94710  0.34940  0.91480  Biso   1.000  N
  H13      1.0000 0.44780  0.12980  0.04760  Biso   1.000  H
  H14      1.0000 0.05220  0.87020  0.54760  Biso   1.000  H
  H15      1.0000 0.55220  0.62980  0.45240  Biso   1.000  H
  H16      1.0000 0.94780  0.37020  0.95240  Biso   1.000  H
  C1       1.0000 0.28820  0.90650  0.07060  Biso   1.000  C
  C2       1.0000 0.21180  0.09350  0.57060  Biso   1.000  C
  C3       1.0000 0.71180  0.40650  0.42940  Biso   1.000  C
  C4       1.0000 0.78820  0.59350  0.92940  Biso   1.000  C
  C5       1.0000 0.35720  0.83800  0.06190  Biso   1.000  C
  C6       1.0000 0.14280  0.16200  0.56190  Biso   1.000  C
  C7       1.0000 0.64280  0.33800  0.43810  Biso   1.000  C
  C8       1.0000 0.85720  0.66200  0.93810  Biso   1.000  C
  H17      1.0000 0.41720  0.84340  0.07950  Biso   1.000  H
  H18      1.0000 0.08280  0.15660  0.57950  Biso   1.000  H
  H19      1.0000 0.58280  0.34340  0.42050  Biso   1.000  H
  H20      1.0000 0.91720  0.65660  0.92050  Biso   1.000  H
  C9       1.0000 0.33440  0.76400  0.02730  Biso   1.000  C
  C10      1.0000 0.16560  0.23600  0.52730  Biso   1.000  C
  C11      1.0000 0.66560  0.26400  0.47270  Biso   1.000  C
  C12      1.0000 0.83440  0.73600  0.97270  Biso   1.000  C
  H21      1.0000 0.38060  0.72170  0.02190  Biso   1.000  H
  H22      1.0000 0.11940  0.27830  0.52190  Biso   1.000  H
  H23      1.0000 0.61940  0.22170  0.47810  Biso   1.000  H
  H24      1.0000 0.88060  0.77830  0.97810  Biso   1.000  H
  C13      1.0000 0.24670  0.75090  0.00090  Biso   1.000  C
  C14      1.0000 0.25330  0.24910  0.50090  Biso   1.000  C
  C15      1.0000 0.75330  0.25090  0.49910  Biso   1.000  C
  C16      1.0000 0.74670  0.74910  0.99910  Biso   1.000  C
  H25      1.0000 0.23420  0.70160  0.97720  Biso   1.000  H
  H26      1.0000 0.26580  0.29840  0.47720  Biso   1.000  H
  H27      1.0000 0.76580  0.20160  0.52280  Biso   1.000  H
  H28      1.0000 0.73420  0.79840  0.02280  Biso   1.000  H
  C17      1.0000 0.17620  0.81380  0.01050  Biso   1.000  C
  C18      1.0000 0.32380  0.18620  0.51050  Biso   1.000  C
  C19      1.0000 0.82380  0.31380  0.48950  Biso   1.000  C
  C20      1.0000 0.67620  0.68620  0.98950  Biso   1.000  C
  H29      1.0000 0.11610  0.80410  0.99410  Biso   1.000  H
  H30      1.0000 0.38390  0.19590  0.49410  Biso   1.000  H
  H31      1.0000 0.88390  0.30410  0.50590  Biso   1.000  H
  H32      1.0000 0.61610  0.69590  0.00590  Biso   1.000  H
  C21      1.0000 0.19340  0.89180  0.04450  Biso   1.000  C
  C22      1.0000 0.30660  0.10820  0.54450  Biso   1.000  C
  C23      1.0000 0.80660  0.39180  0.45550  Biso   1.000  C
  C24      1.0000 0.69340  0.60820  0.95550  Biso   1.000  C
  C25      1.0000 0.11470  0.95340  0.05530  Biso   1.000  C
  C26      1.0000 0.38530  0.04660  0.55530  Biso   1.000  C
  C27      1.0000 0.88530  0.45340  0.44470  Biso   1.000  C
  C28      1.0000 0.61470  0.54660  0.94470  Biso   1.000  C
  C29      1.0000 0.04730  0.08670  0.09830  Biso   1.000  C
  C30      1.0000 0.45270  0.91330  0.59830  Biso   1.000  C
  C31      1.0000 0.95270  0.58670  0.40170  Biso   1.000  C
  C32      1.0000 0.54730  0.41330  0.90170  Biso   1.000  C
  H33      1.0000 0.00130  0.08340  0.06390  Biso   1.000  H
  H34      1.0000 0.49870  0.91660  0.56390  Biso   1.000  H
  H35      1.0000 0.99870  0.58340  0.43610  Biso   1.000  H
  H36      1.0000 0.50130  0.41660  0.93610  Biso   1.000  H
  C33      1.0000 0.08300  0.18000  0.10270  Biso   1.000  C
  C34      1.0000 0.41700  0.82000  0.60270  Biso   1.000  C
  C35      1.0000 0.91700  0.68000  0.39730  Biso   1.000  C
  C36      1.0000 0.58300  0.32000  0.89730  Biso   1.000  C
  C37      1.0000 0.99680  0.05710  0.16070  Biso   1.000  C
  C38      1.0000 0.50320  0.94290  0.66070  Biso   1.000  C
  C39      1.0000 0.00320  0.55710  0.33930  Biso   1.000  C
  C40      1.0000 0.49680  0.44290  0.83930  Biso   1.000  C
  H37      1.0000 0.98870  0.99420  0.15800  Biso   1.000  H
  H38      1.0000 0.51130  0.00580  0.65800  Biso   1.000  H
  H39      1.0000 0.01130  0.49420  0.34200  Biso   1.000  H
  H40      1.0000 0.48870  0.50580  0.84200  Biso   1.000  H
  C41      1.0000 0.05860  0.07480  0.21890  Biso   1.000  C
  C42      1.0000 0.44140  0.92520  0.71890  Biso   1.000  C
  C43      1.0000 0.94140  0.57480  0.28110  Biso   1.000  C
  C44      1.0000 0.55860  0.42520  0.78110  Biso   1.000  C
  H41      1.0000 0.07050  0.13580  0.22230  Biso   1.000  H
  H42      1.0000 0.42950  0.86420  0.72230  Biso   1.000  H
  H43      1.0000 0.92950  0.63580  0.27770  Biso   1.000  H
  H44      1.0000 0.57050  0.36420  0.77770  Biso   1.000  H
  H45      1.0000 0.11770  0.04450  0.21470  Biso   1.000  H
  H46      1.0000 0.38230  0.95550  0.71470  Biso   1.000  H
  H47      1.0000 0.88230  0.54450  0.28530  Biso   1.000  H
  H48      1.0000 0.61770  0.45550  0.78530  Biso   1.000  H
  H49      1.0000 0.02630  0.05500  0.25590  Biso   1.000  H
  H50      1.0000 0.47370  0.94500  0.75590  Biso   1.000  H
  H51      1.0000 0.97370  0.55500  0.24410  Biso   1.000  H
  H52      1.0000 0.52630  0.44500  0.74410  Biso   1.000  H
  C45      1.0000 0.89660  0.09670  0.16740  Biso   1.000  C
  C46      1.0000 0.60340  0.90330  0.66740  Biso   1.000  C
  C47      1.0000 0.10340  0.59670  0.33260  Biso   1.000  C
  C48      1.0000 0.39660  0.40330  0.83260  Biso   1.000  C
  H53      1.0000 0.86990  0.08000  0.20720  Biso   1.000  H
  H54      1.0000 0.63010  0.92000  0.70720  Biso   1.000  H
  H55      1.0000 0.13010  0.58000  0.29280  Biso   1.000  H
  H56      1.0000 0.36990  0.42000  0.79280  Biso   1.000  H
  H57      1.0000 0.85700  0.07590  0.13400  Biso   1.000  H
  H58      1.0000 0.64300  0.92410  0.63400  Biso   1.000  H
  H59      1.0000 0.14300  0.57590  0.36600  Biso   1.000  H
  H60      1.0000 0.35700  0.42410  0.86600  Biso   1.000  H
  H61      1.0000 0.90080  0.15870  0.16530  Biso   1.000  H
  H62      1.0000 0.59920  0.84130  0.66530  Biso   1.000  H
  H63      1.0000 0.09920  0.65870  0.33470  Biso   1.000  H
  H64      1.0000 0.40080  0.34130  0.83470  Biso   1.000  H
  C49      1.0000 0.01470  0.92570  0.03290  Biso   1.000  C
  C50      1.0000 0.48530  0.07430  0.53290  Biso   1.000  C
  C51      1.0000 0.98530  0.42570  0.46710  Biso   1.000  C
  C52      1.0000 0.51470  0.57430  0.96710  Biso   1.000  C
  H65      1.0000 0.96810  0.96330  0.05110  Biso   1.000  H
  H66      1.0000 0.53190  0.03670  0.55110  Biso   1.000  H
  H67      1.0000 0.03190  0.46330  0.44890  Biso   1.000  H
  H68      1.0000 0.46810  0.53670  0.94890  Biso   1.000  H
  H69      1.0000 0.00270  0.86710  0.04580  Biso   1.000  H
  H70      1.0000 0.49730  0.13290  0.54580  Biso   1.000  H
  H71      1.0000 0.99730  0.36710  0.45420  Biso   1.000  H
  H72      1.0000 0.50270  0.63290  0.95420  Biso   1.000  H
  H73      1.0000 0.01140  0.92940  0.98780  Biso   1.000  H
  H74      1.0000 0.48860  0.07060  0.48780  Biso   1.000  H
  H75      1.0000 0.98860  0.42940  0.51220  Biso   1.000  H
  H76      1.0000 0.51140  0.57060  0.01220  Biso   1.000  H
  C53      1.0000 0.55680  0.14130  0.75640  Biso   1.000  C
  C54      1.0000 0.94320  0.85870  0.25640  Biso   1.000  C
  C55      1.0000 0.44320  0.64130  0.74360  Biso   1.000  C
  C56      1.0000 0.05680  0.35870  0.24360  Biso   1.000  C
  C57      1.0000 0.63290  0.15660  0.71300  Biso   1.000  C
  C58      1.0000 0.86710  0.84340  0.21300  Biso   1.000  C
  C59      1.0000 0.36710  0.65660  0.78700  Biso   1.000  C
  C60      1.0000 0.13290  0.34340  0.28700  Biso   1.000  C
  H77      1.0000 0.69140  0.13100  0.72080  Biso   1.000  H
  H78      1.0000 0.80860  0.86900  0.22080  Biso   1.000  H
  H79      1.0000 0.30860  0.63100  0.77920  Biso   1.000  H
  H80      1.0000 0.19140  0.36900  0.27920  Biso   1.000  H
  C61      1.0000 0.62250  0.20810  0.66010  Biso   1.000  C
  C62      1.0000 0.87750  0.79190  0.16010  Biso   1.000  C
  C63      1.0000 0.37750  0.70810  0.83990  Biso   1.000  C
  C64      1.0000 0.12250  0.29190  0.33990  Biso   1.000  C
  H81      1.0000 0.67470  0.21880  0.63460  Biso   1.000  H
  H82      1.0000 0.82530  0.78120  0.13460  Biso   1.000  H
  H83      1.0000 0.32530  0.71880  0.86540  Biso   1.000  H
  H84      1.0000 0.17470  0.28120  0.36540  Biso   1.000  H
  C65      1.0000 0.53530  0.24430  0.64440  Biso   1.000  C
  C66      1.0000 0.96470  0.75570  0.14440  Biso   1.000  C
  C67      1.0000 0.46470  0.74430  0.85560  Biso   1.000  C
  C68      1.0000 0.03530  0.25570  0.35560  Biso   1.000  C
  H85      1.0000 0.52800  0.27860  0.60880  Biso   1.000  H
  H86      1.0000 0.97200  0.72140  0.10880  Biso   1.000  H
  H87      1.0000 0.47200  0.77860  0.89120  Biso   1.000  H
  H88      1.0000 0.02800  0.22140  0.39120  Biso   1.000  H
  C69      1.0000 0.45980  0.22680  0.68420  Biso   1.000  C
  C70      1.0000 0.04020  0.77320  0.18420  Biso   1.000  C
  C71      1.0000 0.54020  0.72680  0.81580  Biso   1.000  C
  C72      1.0000 0.95980  0.27320  0.31580  Biso   1.000  C
  H89      1.0000 0.40140  0.25080  0.67390  Biso   1.000  H
  H90      1.0000 0.09860  0.74920  0.17390  Biso   1.000  H
  H91      1.0000 0.59860  0.75080  0.82610  Biso   1.000  H
  H92      1.0000 0.90140  0.24920  0.32610  Biso   1.000  H
  C73      1.0000 0.46450  0.17460  0.74020  Biso   1.000  C
  C74      1.0000 0.03550  0.82540  0.24020  Biso   1.000  C
  C75      1.0000 0.53550  0.67460  0.75980  Biso   1.000  C
  C76      1.0000 0.96450  0.32540  0.25980  Biso   1.000  C
  C77      1.0000 0.37760  0.15830  0.77830  Biso   1.000  C
  C78      1.0000 0.12240  0.84170  0.27830  Biso   1.000  C
  C79      1.0000 0.62240  0.65830  0.72170  Biso   1.000  C
  C80      1.0000 0.87760  0.34170  0.22170  Biso   1.000  C
  C81      1.0000 0.28100  0.18010  0.74830  Biso   1.000  C
  C82      1.0000 0.21900  0.81990  0.24830  Biso   1.000  C
  C83      1.0000 0.71900  0.68010  0.75170  Biso   1.000  C
  C84      1.0000 0.78100  0.31990  0.25170  Biso   1.000  C
  H93      1.0000 0.23130  0.15380  0.77250  Biso   1.000  H
  H94      1.0000 0.26870  0.84620  0.27250  Biso   1.000  H
  H95      1.0000 0.76870  0.65380  0.72750  Biso   1.000  H
  H96      1.0000 0.73130  0.34620  0.22750  Biso   1.000  H
  H97      1.0000 0.27920  0.15830  0.70600  Biso   1.000  H
  H98      1.0000 0.22080  0.84170  0.20600  Biso   1.000  H
  H99      1.0000 0.72080  0.65830  0.79400  Biso   1.000  H
  H100     1.0000 0.77920  0.34170  0.29400  Biso   1.000  H
  H101     1.0000 0.27240  0.24180  0.74780  Biso   1.000  H
  H102     1.0000 0.22760  0.75820  0.24780  Biso   1.000  H
  H103     1.0000 0.72760  0.74180  0.75220  Biso   1.000  H
  H104     1.0000 0.77240  0.25820  0.25220  Biso   1.000  H
  C85      1.0000 0.29810  0.10920  0.87500  Biso   1.000  C
  C86      1.0000 0.20190  0.89080  0.37500  Biso   1.000  C
  C87      1.0000 0.70190  0.60920  0.62500  Biso   1.000  C
  C88      1.0000 0.79810  0.39080  0.12500  Biso   1.000  C
  H105     1.0000 0.25180  0.15540  0.86780  Biso   1.000  H
  H106     1.0000 0.24820  0.84460  0.36780  Biso   1.000  H
  H107     1.0000 0.74820  0.65540  0.63220  Biso   1.000  H
  H108     1.0000 0.75180  0.34460  0.13220  Biso   1.000  H
  C89      1.0000 0.32720  0.10960  0.94560  Biso   1.000  C
  C90      1.0000 0.17280  0.89040  0.44560  Biso   1.000  C
  C91      1.0000 0.67280  0.60960  0.55440  Biso   1.000  C
  C92      1.0000 0.82720  0.39040  0.05440  Biso   1.000  C
  C93      1.0000 0.25220  0.02020  0.85640  Biso   1.000  C
  C94      1.0000 0.24780  0.97980  0.35640  Biso   1.000  C
  C95      1.0000 0.74780  0.52020  0.64360  Biso   1.000  C
  C96      1.0000 0.75220  0.47980  0.14360  Biso   1.000  C
  H109     1.0000 0.25020  0.01820  0.81040  Biso   1.000  H
  H110     1.0000 0.24980  0.98180  0.31040  Biso   1.000  H
  H111     1.0000 0.74980  0.51820  0.68960  Biso   1.000  H
  H112     1.0000 0.75020  0.48180  0.18960  Biso   1.000  H
  C97      1.0000 0.31180  0.94260  0.87830  Biso   1.000  C
  C98      1.0000 0.18820  0.05740  0.37830  Biso   1.000  C
  C99      1.0000 0.68820  0.44260  0.62170  Biso   1.000  C
  C100     1.0000 0.81180  0.55740  0.12170  Biso   1.000  C
  H113     1.0000 0.37560  0.94920  0.86360  Biso   1.000  H
  H114     1.0000 0.12440  0.05080  0.36360  Biso   1.000  H
  H115     1.0000 0.62440  0.44920  0.63640  Biso   1.000  H
  H116     1.0000 0.87560  0.55080  0.13640  Biso   1.000  H
  H117     1.0000 0.28540  0.89020  0.86150  Biso   1.000  H
  H118     1.0000 0.21460  0.10980  0.36150  Biso   1.000  H
  H119     1.0000 0.71460  0.39020  0.63850  Biso   1.000  H
  H120     1.0000 0.78540  0.60980  0.13850  Biso   1.000  H
  H121     1.0000 0.31150  0.94000  0.92340  Biso   1.000  H
  H122     1.0000 0.18850  0.06000  0.42340  Biso   1.000  H
  H123     1.0000 0.68850  0.44000  0.57660  Biso   1.000  H
  H124     1.0000 0.81150  0.56000  0.07660  Biso   1.000  H
  C101     1.0000 0.14870  0.01400  0.87980  Biso   1.000  C
  C102     1.0000 0.35130  0.98600  0.37980  Biso   1.000  C
  C103     1.0000 0.85130  0.51400  0.62020  Biso   1.000  C
  C104     1.0000 0.64870  0.48600  0.12020  Biso   1.000  C
  H125     1.0000 0.12390  0.95770  0.87020  Biso   1.000  H
  H126     1.0000 0.37610  0.04230  0.37020  Biso   1.000  H
  H127     1.0000 0.87610  0.45770  0.62980  Biso   1.000  H
  H128     1.0000 0.62390  0.54230  0.12980  Biso   1.000  H
  H129     1.0000 0.11110  0.05750  0.85930  Biso   1.000  H
  H130     1.0000 0.38890  0.94250  0.35930  Biso   1.000  H
  H131     1.0000 0.88890  0.55750  0.64070  Biso   1.000  H
  H132     1.0000 0.61110  0.44250  0.14070  Biso   1.000  H
  H133     1.0000 0.14700  0.02310  0.92450  Biso   1.000  H
  H134     1.0000 0.35300  0.97690  0.42450  Biso   1.000  H
  H135     1.0000 0.85300  0.52310  0.57550  Biso   1.000  H
  H136     1.0000 0.64700  0.47690  0.07550  Biso   1.000  H
  C105     1.0000 0.33140  0.18870  0.23530  Biso   1.000  C
  C106     1.0000 0.16860  0.81130  0.73530  Biso   1.000  C
  C107     1.0000 0.66860  0.68870  0.26470  Biso   1.000  C
  C108     1.0000 0.83140  0.31130  0.76470  Biso   1.000  C
  H137     1.0000 0.27880  0.22610  0.22630  Biso   1.000  H
  H138     1.0000 0.22120  0.77390  0.72630  Biso   1.000  H
  H139     1.0000 0.72120  0.72610  0.27370  Biso   1.000  H
  H140     1.0000 0.77880  0.27390  0.77370  Biso   1.000  H
  H141     1.0000 0.36550  0.21070  0.27100  Biso   1.000  H
  H142     1.0000 0.13450  0.78930  0.77100  Biso   1.000  H
  H143     1.0000 0.63450  0.71070  0.22900  Biso   1.000  H
  H144     1.0000 0.86550  0.28930  0.72900  Biso   1.000  H
  H145     1.0000 0.30850  0.13160  0.24450  Biso   1.000  H
  H146     1.0000 0.19150  0.86840  0.74450  Biso   1.000  H
  H147     1.0000 0.69150  0.63160  0.25550  Biso   1.000  H
  H148     1.0000 0.80850  0.36840  0.75550  Biso   1.000  H
  C109     1.0000 0.39730  0.18520  0.17810  Biso   1.000  C
  C110     1.0000 0.10270  0.81480  0.67810  Biso   1.000  C
  C111     1.0000 0.60270  0.68520  0.32190  Biso   1.000  C
  C112     1.0000 0.89730  0.31480  0.82190  Biso   1.000  C
  C113     1.0000 0.49180  0.21680  0.17260  Biso   1.000  C
  C114     1.0000 0.00820  0.78320  0.67260  Biso   1.000  C
  C115     1.0000 0.50820  0.71680  0.32740  Biso   1.000  C
  C116     1.0000 0.99180  0.28320  0.82740  Biso   1.000  C
  H149     1.0000 0.52640  0.24700  0.20270  Biso   1.000  H
  H150     1.0000 0.97360  0.75300  0.70270  Biso   1.000  H
  H151     1.0000 0.47360  0.74700  0.29730  Biso   1.000  H
  H152     1.0000 0.02640  0.25300  0.79730  Biso   1.000  H
  C117     1.0000 0.52110  0.19310  0.11280  Biso   1.000  C
  C118     1.0000 0.97890  0.80690  0.61280  Biso   1.000  C
  C119     1.0000 0.47890  0.69310  0.38720  Biso   1.000  C
  C120     1.0000 0.02110  0.30690  0.88720  Biso   1.000  C
  C121     1.0000 0.61340  0.21070  0.07640  Biso   1.000  C
  C122     1.0000 0.88660  0.78930  0.57640  Biso   1.000  C
  C123     1.0000 0.38660  0.71070  0.42360  Biso   1.000  C
  C124     1.0000 0.11340  0.28930  0.92360  Biso   1.000  C
  H153     1.0000 0.62360  0.27200  0.07350  Biso   1.000  H
  H154     1.0000 0.87640  0.72800  0.57350  Biso   1.000  H
  H155     1.0000 0.37640  0.77200  0.42650  Biso   1.000  H
  H156     1.0000 0.12360  0.22800  0.92650  Biso   1.000  H
  H157     1.0000 0.60870  0.18660  0.03490  Biso   1.000  H
  H158     1.0000 0.89130  0.81340  0.53490  Biso   1.000  H
  H159     1.0000 0.39130  0.68660  0.46510  Biso   1.000  H
  H160     1.0000 0.10870  0.31340  0.96510  Biso   1.000  H
  H161     1.0000 0.66560  0.18440  0.09820  Biso   1.000  H
  H162     1.0000 0.83440  0.81560  0.59820  Biso   1.000  H
  H163     1.0000 0.33440  0.68440  0.40180  Biso   1.000  H
  H164     1.0000 0.16560  0.31560  0.90180  Biso   1.000  H
  C125     1.0000 0.07490  0.55960  0.01590  Biso   1.000  C
  C126     1.0000 0.42510  0.44040  0.51590  Biso   1.000  C
  C127     1.0000 0.92510  0.05960  0.48410  Biso   1.000  C
  C128     1.0000 0.57490  0.94040  0.98410  Biso   1.000  C
  H165     1.0000 0.01220  0.53560  0.01360  Biso   1.000  H
  H166     1.0000 0.48780  0.46440  0.51360  Biso   1.000  H
  H167     1.0000 0.98780  0.03560  0.48640  Biso   1.000  H
  H168     1.0000 0.51220  0.96440  0.98640  Biso   1.000  H
  H169     1.0000 0.09050  0.58620  0.97640  Biso   1.000  H
  H170     1.0000 0.40950  0.41380  0.47640  Biso   1.000  H
  H171     1.0000 0.90950  0.08620  0.52360  Biso   1.000  H
  H172     1.0000 0.59050  0.91380  0.02360  Biso   1.000  H
  H173     1.0000 0.07730  0.60230  0.04870  Biso   1.000  H
  H174     1.0000 0.42270  0.39770  0.54870  Biso   1.000  H
  H175     1.0000 0.92270  0.10230  0.45130  Biso   1.000  H
  H176     1.0000 0.57730  0.89770  0.95130  Biso   1.000  H
  C129     1.0000 0.14620  0.48710  0.03020  Biso   1.000  C
  C130     1.0000 0.35380  0.51290  0.53020  Biso   1.000  C
  C131     1.0000 0.85380  0.98710  0.46980  Biso   1.000  C
  C132     1.0000 0.64620  0.01290  0.96980  Biso   1.000  C
  C133     1.0000 0.24040  0.47600  0.01110  Biso   1.000  C
  C134     1.0000 0.25960  0.52400  0.51110  Biso   1.000  C
  C135     1.0000 0.75960  0.97600  0.48890  Biso   1.000  C
  C136     1.0000 0.74040  0.02400  0.98890  Biso   1.000  C
  H177     1.0000 0.27560  0.51380  0.98630  Biso   1.000  H
  H178     1.0000 0.22440  0.48620  0.48630  Biso   1.000  H
  H179     1.0000 0.72440  0.01380  0.51370  Biso   1.000  H
  H180     1.0000 0.77560  0.98620  0.01370  Biso   1.000  H
  C137     1.0000 0.27130  0.39820  0.03600  Biso   1.000  C
  C138     1.0000 0.22870  0.60180  0.53600  Biso   1.000  C
  C139     1.0000 0.72870  0.89820  0.46400  Biso   1.000  C
  C140     1.0000 0.77130  0.10180  0.96400  Biso   1.000  C
  C141     1.0000 0.36550  0.35180  0.03410  Biso   1.000  C
  C142     1.0000 0.13450  0.64820  0.53410  Biso   1.000  C
  C143     1.0000 0.63450  0.85180  0.46590  Biso   1.000  C
  C144     1.0000 0.86550  0.14820  0.96590  Biso   1.000  C
  H181     1.0000 0.37690  0.32440  0.07400  Biso   1.000  H
  H182     1.0000 0.12310  0.67560  0.57400  Biso   1.000  H
  H183     1.0000 0.62310  0.82440  0.42600  Biso   1.000  H
  H184     1.0000 0.87690  0.17560  0.92600  Biso   1.000  H
  H185     1.0000 0.41500  0.39270  0.02560  Biso   1.000  H
  H186     1.0000 0.08500  0.60730  0.52560  Biso   1.000  H
  H187     1.0000 0.58500  0.89270  0.47440  Biso   1.000  H
  H188     1.0000 0.91500  0.10730  0.97440  Biso   1.000  H
  H189     1.0000 0.36440  0.30860  0.00160  Biso   1.000  H
  H190     1.0000 0.13560  0.69140  0.50160  Biso   1.000  H
  H191     1.0000 0.63560  0.80860  0.49840  Biso   1.000  H
  H192     1.0000 0.86440  0.19140  0.99840  Biso   1.000  H
  C145     1.0000 0.32680  0.58660  0.16930  Biso   1.000  C
  C146     1.0000 0.17320  0.41340  0.66930  Biso   1.000  C
  C147     1.0000 0.67320  0.08660  0.33070  Biso   1.000  C
  C148     1.0000 0.82680  0.91340  0.83070  Biso   1.000  C
  H193     1.0000 0.34510  0.57760  0.12630  Biso   1.000  H
  H194     1.0000 0.15490  0.42240  0.62630  Biso   1.000  H
  H195     1.0000 0.65490  0.07760  0.37370  Biso   1.000  H
  H196     1.0000 0.84510  0.92240  0.87370  Biso   1.000  H
  H197     1.0000 0.37930  0.57350  0.19640  Biso   1.000  H
  H198     1.0000 0.12070  0.42650  0.69640  Biso   1.000  H
  H199     1.0000 0.62070  0.07350  0.30360  Biso   1.000  H
  H200     1.0000 0.87930  0.92650  0.80360  Biso   1.000  H
  H201     1.0000 0.30830  0.64590  0.17510  Biso   1.000  H
  H202     1.0000 0.19170  0.35410  0.67510  Biso   1.000  H
  H203     1.0000 0.69170  0.14590  0.32490  Biso   1.000  H
  H204     1.0000 0.80830  0.85410  0.82490  Biso   1.000  H
  C149     1.0000 0.54280  0.94920  0.19500  Biso   1.000  C
  C150     1.0000 0.95720  0.05080  0.69500  Biso   1.000  C
  C151     1.0000 0.45720  0.44920  0.30500  Biso   1.000  C
  C152     1.0000 0.04280  0.55080  0.80500  Biso   1.000  C
  H205     1.0000 0.57670  0.96840  0.23160  Biso   1.000  H
  H206     1.0000 0.92330  0.03160  0.73160  Biso   1.000  H
  H207     1.0000 0.42330  0.46840  0.26840  Biso   1.000  H
  H208     1.0000 0.07670  0.53160  0.76840  Biso   1.000  H
  H209     1.0000 0.54550  0.99320  0.16310  Biso   1.000  H
  H210     1.0000 0.95450  0.00680  0.66310  Biso   1.000  H
  H211     1.0000 0.45450  0.49320  0.33690  Biso   1.000  H
  H212     1.0000 0.04550  0.50680  0.83690  Biso   1.000  H
  H213     1.0000 0.57090  0.89690  0.17940  Biso   1.000  H
  H214     1.0000 0.92910  0.10310  0.67940  Biso   1.000  H
  H215     1.0000 0.42910  0.39690  0.32060  Biso   1.000  H
  H216     1.0000 0.07090  0.60310  0.82060  Biso   1.000  H
