data_image0
_cell_length_a       9.7116
_cell_length_b       10.0302
_cell_length_c       9.4984
_cell_angle_alpha    90
_cell_angle_beta     110.821
_cell_angle_gamma    90

_symmetry_space_group_name_H-M    "P 1"
_symmetry_int_tables_number       1

loop_
  _symmetry_equiv_pos_as_xyz
  'x, y, z'

loop_
  _atom_site_label
  _atom_site_occupancy
  _atom_site_fract_x
  _atom_site_fract_y
  _atom_site_fract_z
  _atom_site_thermal_displace_type
  _atom_site_B_iso_or_equiv
  _atom_site_type_symbol
  Cu1      1.0000 0.49099  0.34456  0.41130  Biso   1.000  Cu
  Cu2      1.0000 0.50901  0.84456  0.08870  Biso   1.000  Cu
  Cu3      1.0000 0.50901  0.65544  0.58870  Biso   1.000  Cu
  Cu4      1.0000 0.49099  0.15544  0.91130  Biso   1.000  Cu
  N1       1.0000 0.21800  0.46060  0.38420  Biso   1.000  N
  N2       1.0000 0.78200  0.96060  0.11580  Biso   1.000  N
  N3       1.0000 0.78200  0.53940  0.61580  Biso   1.000  N
  N4       1.0000 0.21800  0.03940  0.88420  Biso   1.000  N
  O1       1.0000 0.35770  0.49290  0.40670  Biso   1.000  O
  O2       1.0000 0.64230  0.99290  0.09330  Biso   1.000  O
  O3       1.0000 0.64230  0.50710  0.59330  Biso   1.000  O
  O4       1.0000 0.35770  0.00710  0.90670  Biso   1.000  O
  O5       1.0000 0.42450  0.26180  0.56020  Biso   1.000  O
  O6       1.0000 0.57550  0.76180  0.93980  Biso   1.000  O
  O7       1.0000 0.57550  0.73820  0.43980  Biso   1.000  O
  O8       1.0000 0.42450  0.23820  0.06020  Biso   1.000  O
  O9       1.0000 0.28070  0.24890  0.69670  Biso   1.000  O
  O10      1.0000 0.71930  0.74890  0.80330  Biso   1.000  O
  O11      1.0000 0.71930  0.75110  0.30330  Biso   1.000  O
  O12      1.0000 0.28070  0.25110  0.19670  Biso   1.000  O
  C1       1.0000 0.18450  0.36270  0.46680  Biso   1.000  C
  C2       1.0000 0.81550  0.86270  0.03320  Biso   1.000  C
  C3       1.0000 0.81550  0.63730  0.53320  Biso   1.000  C
  C4       1.0000 0.18450  0.13730  0.96680  Biso   1.000  C
  C5       1.0000 0.03870  0.33500  0.43980  Biso   1.000  C
  C6       1.0000 0.96130  0.83500  0.06020  Biso   1.000  C
  C7       1.0000 0.96130  0.66500  0.56020  Biso   1.000  C
  C8       1.0000 0.03870  0.16500  0.93980  Biso   1.000  C
  H1       1.0000 0.01400  0.26910  0.49870  Biso   1.000  H
  H2       1.0000 0.98600  0.76910  0.00130  Biso   1.000  H
  H3       1.0000 0.98600  0.73090  0.50130  Biso   1.000  H
  H4       1.0000 0.01400  0.23090  0.99870  Biso   1.000  H
  C9       1.0000 0.92870  0.40010  0.33000  Biso   1.000  C
  C10      1.0000 0.07130  0.90010  0.17000  Biso   1.000  C
  C11      1.0000 0.07130  0.59990  0.67000  Biso   1.000  C
  C12      1.0000 0.92870  0.09990  0.83000  Biso   1.000  C
  H5       1.0000 0.82850  0.37710  0.30920  Biso   1.000  H
  H6       1.0000 0.17150  0.87710  0.19080  Biso   1.000  H
  H7       1.0000 0.17150  0.62290  0.69080  Biso   1.000  H
  H8       1.0000 0.82850  0.12290  0.80920  Biso   1.000  H
  C13      1.0000 0.96570  0.50100  0.24900  Biso   1.000  C
  C14      1.0000 0.03430  0.00100  0.25100  Biso   1.000  C
  C15      1.0000 0.03430  0.49900  0.75100  Biso   1.000  C
  C16      1.0000 0.96570  0.99900  0.74900  Biso   1.000  C
  H9       1.0000 0.89080  0.54960  0.17440  Biso   1.000  H
  H10      1.0000 0.10920  0.04960  0.32560  Biso   1.000  H
  H11      1.0000 0.10920  0.45040  0.82560  Biso   1.000  H
  H12      1.0000 0.89080  0.95040  0.67440  Biso   1.000  H
  C17      1.0000 0.11160  0.52930  0.27820  Biso   1.000  C
  C18      1.0000 0.88840  0.02930  0.22180  Biso   1.000  C
  C19      1.0000 0.88840  0.47070  0.72180  Biso   1.000  C
  C20      1.0000 0.11160  0.97070  0.77820  Biso   1.000  C
  H13      1.0000 0.13770  0.59780  0.22320  Biso   1.000  H
  H14      1.0000 0.86230  0.09780  0.27680  Biso   1.000  H
  H15      1.0000 0.86230  0.40220  0.77680  Biso   1.000  H
  H16      1.0000 0.13770  0.90220  0.72320  Biso   1.000  H
  C21      1.0000 0.30660  0.28620  0.58510  Biso   1.000  C
  C22      1.0000 0.69340  0.78620  0.91490  Biso   1.000  C
  C23      1.0000 0.69340  0.71380  0.41490  Biso   1.000  C
  C24      1.0000 0.30660  0.21380  0.08510  Biso   1.000  C
  Br1      1.0000 0.67758  0.17677  0.45034  Biso   1.000  Br
  Br2      1.0000 0.32242  0.67677  0.04966  Biso   1.000  Br
  Br3      1.0000 0.32242  0.82323  0.54966  Biso   1.000  Br
  Br4      1.0000 0.67758  0.32323  0.95034  Biso   1.000  Br
  O13      1.0000 0.55130  0.43960  0.25860  Biso   1.000  O
  O14      1.0000 0.44870  0.93960  0.24140  Biso   1.000  O
  O15      1.0000 0.44870  0.56040  0.74140  Biso   1.000  O
  O16      1.0000 0.55130  0.06040  0.75860  Biso   1.000  O
  H17      1.0000 0.53280  0.39040  0.18120  Biso   1.000  H
  H18      1.0000 0.46720  0.89040  0.31880  Biso   1.000  H
  H19      1.0000 0.46720  0.60960  0.81880  Biso   1.000  H
  H20      1.0000 0.53280  0.10960  0.68120  Biso   1.000  H
  H21      1.0000 0.47630  0.47640  0.19450  Biso   1.000  H
  H22      1.0000 0.52370  0.97640  0.30550  Biso   1.000  H
  H23      1.0000 0.52370  0.52360  0.80550  Biso   1.000  H
  H24      1.0000 0.47630  0.02360  0.69450  Biso   1.000  H
