data_image0
_cell_length_a       22.121
_cell_length_b       9.3086
_cell_length_c       10.014
_cell_angle_alpha    90
_cell_angle_beta     112.895
_cell_angle_gamma    90

_symmetry_space_group_name_H-M    "P 1"
_symmetry_int_tables_number       1

loop_
  _symmetry_equiv_pos_as_xyz
  'x, y, z'

loop_
  _atom_site_label
  _atom_site_occupancy
  _atom_site_fract_x
  _atom_site_fract_y
  _atom_site_fract_z
  _atom_site_thermal_displace_type
  _atom_site_B_iso_or_equiv
  _atom_site_type_symbol
  V1       1.0000 0.73875  0.00144  0.17445  Biso   1.000  V
  V2       1.0000 0.23875  0.50144  0.17445  Biso   1.000  V
  V3       1.0000 0.73875  0.99856  0.67445  Biso   1.000  V
  V4       1.0000 0.23875  0.49856  0.67445  Biso   1.000  V
  V5       1.0000 0.26125  0.99856  0.82555  Biso   1.000  V
  V6       1.0000 0.76125  0.49856  0.82555  Biso   1.000  V
  V7       1.0000 0.26125  0.00144  0.32555  Biso   1.000  V
  V8       1.0000 0.76125  0.50144  0.32555  Biso   1.000  V
  V9       1.0000 0.68431  0.18172  0.38967  Biso   1.000  V
  V10      1.0000 0.18431  0.68172  0.38967  Biso   1.000  V
  V11      1.0000 0.68431  0.81828  0.88967  Biso   1.000  V
  V12      1.0000 0.18431  0.31828  0.88967  Biso   1.000  V
  V13      1.0000 0.31569  0.81828  0.61033  Biso   1.000  V
  V14      1.0000 0.81569  0.31828  0.61033  Biso   1.000  V
  V15      1.0000 0.31569  0.18172  0.11033  Biso   1.000  V
  V16      1.0000 0.81569  0.68172  0.11033  Biso   1.000  V
  V17      1.0000 0.68282  0.82012  0.38919  Biso   1.000  V
  V18      1.0000 0.18282  0.32012  0.38919  Biso   1.000  V
  V19      1.0000 0.68282  0.17988  0.88919  Biso   1.000  V
  V20      1.0000 0.18282  0.67988  0.88919  Biso   1.000  V
  V21      1.0000 0.31718  0.17988  0.61081  Biso   1.000  V
  V22      1.0000 0.81718  0.67988  0.61081  Biso   1.000  V
  V23      1.0000 0.31718  0.82012  0.11081  Biso   1.000  V
  V24      1.0000 0.81718  0.32012  0.11081  Biso   1.000  V
  O1       1.0000 0.80109  0.00050  0.32310  Biso   1.000  O
  O2       1.0000 0.30109  0.50050  0.32310  Biso   1.000  O
  O3       1.0000 0.80109  0.99950  0.82310  Biso   1.000  O
  O4       1.0000 0.30109  0.49950  0.82310  Biso   1.000  O
  O5       1.0000 0.19891  0.99950  0.67690  Biso   1.000  O
  O6       1.0000 0.69891  0.49950  0.67690  Biso   1.000  O
  O7       1.0000 0.19891  0.00050  0.17690  Biso   1.000  O
  O8       1.0000 0.69891  0.50050  0.17690  Biso   1.000  O
  O9       1.0000 0.68129  0.13360  0.22240  Biso   1.000  O
  O10      1.0000 0.18129  0.63360  0.22240  Biso   1.000  O
  O11      1.0000 0.68129  0.86640  0.72240  Biso   1.000  O
  O12      1.0000 0.18129  0.36640  0.72240  Biso   1.000  O
  O13      1.0000 0.31871  0.86640  0.77760  Biso   1.000  O
  O14      1.0000 0.81871  0.36640  0.77760  Biso   1.000  O
  O15      1.0000 0.31871  0.13360  0.27760  Biso   1.000  O
  O16      1.0000 0.81871  0.63360  0.27760  Biso   1.000  O
  O17      1.0000 0.67985  0.86420  0.22320  Biso   1.000  O
  O18      1.0000 0.17985  0.36420  0.22320  Biso   1.000  O
  O19      1.0000 0.67985  0.13580  0.72320  Biso   1.000  O
  O20      1.0000 0.17985  0.63580  0.72320  Biso   1.000  O
  O21      1.0000 0.32015  0.13580  0.77680  Biso   1.000  O
  O22      1.0000 0.82015  0.63580  0.77680  Biso   1.000  O
  O23      1.0000 0.32015  0.86420  0.27680  Biso   1.000  O
  O24      1.0000 0.82015  0.36420  0.27680  Biso   1.000  O
  O25      1.0000 0.75778  0.84790  0.57960  Biso   1.000  O
  O26      1.0000 0.25778  0.34790  0.57960  Biso   1.000  O
  O27      1.0000 0.75778  0.15210  0.07960  Biso   1.000  O
  O28      1.0000 0.25778  0.65210  0.07960  Biso   1.000  O
  O29      1.0000 0.24222  0.15210  0.42040  Biso   1.000  O
  O30      1.0000 0.74222  0.65210  0.42040  Biso   1.000  O
  O31      1.0000 0.24222  0.84790  0.92040  Biso   1.000  O
  O32      1.0000 0.74222  0.34790  0.92040  Biso   1.000  O
  O33      1.0000 0.75590  0.84500  0.08190  Biso   1.000  O
  O34      1.0000 0.25590  0.34500  0.08190  Biso   1.000  O
  O35      1.0000 0.75590  0.15500  0.58190  Biso   1.000  O
  O36      1.0000 0.25590  0.65500  0.58190  Biso   1.000  O
  O37      1.0000 0.24410  0.15500  0.91810  Biso   1.000  O
  O38      1.0000 0.74410  0.65500  0.91810  Biso   1.000  O
  O39      1.0000 0.24410  0.84500  0.41810  Biso   1.000  O
  O40      1.0000 0.74410  0.34500  0.41810  Biso   1.000  O
  O41      1.0000 0.61860  0.26870  0.36670  Biso   1.000  O
  O42      1.0000 0.11860  0.76870  0.36670  Biso   1.000  O
  O43      1.0000 0.61860  0.73130  0.86670  Biso   1.000  O
  O44      1.0000 0.11860  0.23130  0.86670  Biso   1.000  O
  O45      1.0000 0.38140  0.73130  0.63330  Biso   1.000  O
  O46      1.0000 0.88140  0.23130  0.63330  Biso   1.000  O
  O47      1.0000 0.38140  0.26870  0.13330  Biso   1.000  O
  O48      1.0000 0.88140  0.76870  0.13330  Biso   1.000  O
  O49      1.0000 0.66194  0.99940  0.43940  Biso   1.000  O
  O50      1.0000 0.16194  0.49940  0.43940  Biso   1.000  O
  O51      1.0000 0.66194  0.00060  0.93940  Biso   1.000  O
  O52      1.0000 0.16194  0.50060  0.93940  Biso   1.000  O
  O53      1.0000 0.33806  0.00060  0.56060  Biso   1.000  O
  O54      1.0000 0.83806  0.50060  0.56060  Biso   1.000  O
  O55      1.0000 0.33806  0.99940  0.06060  Biso   1.000  O
  O56      1.0000 0.83806  0.49940  0.06060  Biso   1.000  O
  O57      1.0000 0.61543  0.73440  0.36540  Biso   1.000  O
  O58      1.0000 0.11543  0.23440  0.36540  Biso   1.000  O
  O59      1.0000 0.61543  0.26560  0.86540  Biso   1.000  O
  O60      1.0000 0.11543  0.76560  0.86540  Biso   1.000  O
  O61      1.0000 0.38457  0.26560  0.63460  Biso   1.000  O
  O62      1.0000 0.88457  0.76560  0.63460  Biso   1.000  O
  O63      1.0000 0.38457  0.73440  0.13460  Biso   1.000  O
  O64      1.0000 0.88457  0.23440  0.13460  Biso   1.000  O
  Cu1      1.0000 0.50000  0.74861  0.25000  Biso   1.000  Cu
  Cu2      1.0000 0.00000  0.24861  0.25000  Biso   1.000  Cu
  Cu3      1.0000 0.50000  0.25139  0.75000  Biso   1.000  Cu
  Cu4      1.0000 0.00000  0.75139  0.75000  Biso   1.000  Cu
  N1       1.0000 0.49891  0.59650  0.39380  Biso   1.000  N
  N2       1.0000 0.99891  0.09650  0.39380  Biso   1.000  N
  N3       1.0000 0.49891  0.40350  0.89380  Biso   1.000  N
  N4       1.0000 0.99891  0.90350  0.89380  Biso   1.000  N
  N5       1.0000 0.50109  0.40350  0.60620  Biso   1.000  N
  N6       1.0000 0.00109  0.90350  0.60620  Biso   1.000  N
  N7       1.0000 0.50109  0.59650  0.10620  Biso   1.000  N
  N8       1.0000 0.00109  0.09650  0.10620  Biso   1.000  N
  N9       1.0000 0.49849  0.90050  0.10310  Biso   1.000  N
  N10      1.0000 0.99849  0.40050  0.10310  Biso   1.000  N
  N11      1.0000 0.49849  0.09950  0.60310  Biso   1.000  N
  N12      1.0000 0.99849  0.59950  0.60310  Biso   1.000  N
  N13      1.0000 0.50151  0.09950  0.89690  Biso   1.000  N
  N14      1.0000 0.00151  0.59950  0.89690  Biso   1.000  N
  N15      1.0000 0.50151  0.90050  0.39690  Biso   1.000  N
  N16      1.0000 0.00151  0.40050  0.39690  Biso   1.000  N
  C1       1.0000 0.54880  0.50440  0.45220  Biso   1.000  C
  C2       1.0000 0.04880  0.00440  0.45220  Biso   1.000  C
  C3       1.0000 0.54880  0.49560  0.95220  Biso   1.000  C
  C4       1.0000 0.04880  0.99560  0.95220  Biso   1.000  C
  C5       1.0000 0.45120  0.49560  0.54780  Biso   1.000  C
  C6       1.0000 0.95120  0.99560  0.54780  Biso   1.000  C
  C7       1.0000 0.45120  0.50440  0.04780  Biso   1.000  C
  C8       1.0000 0.95120  0.00440  0.04780  Biso   1.000  C
  C9       1.0000 0.45020  0.59170  0.44230  Biso   1.000  C
  C10      1.0000 0.95020  0.09170  0.44230  Biso   1.000  C
  C11      1.0000 0.45020  0.40830  0.94230  Biso   1.000  C
  C12      1.0000 0.95020  0.90830  0.94230  Biso   1.000  C
  C13      1.0000 0.54980  0.40830  0.55770  Biso   1.000  C
  C14      1.0000 0.04980  0.90830  0.55770  Biso   1.000  C
  C15      1.0000 0.54980  0.59170  0.05770  Biso   1.000  C
  C16      1.0000 0.04980  0.09170  0.05770  Biso   1.000  C
  C17      1.0000 0.53950  0.01190  0.14010  Biso   1.000  C
  C18      1.0000 0.03950  0.51190  0.14010  Biso   1.000  C
  C19      1.0000 0.53950  0.98810  0.64010  Biso   1.000  C
  C20      1.0000 0.03950  0.48810  0.64010  Biso   1.000  C
  C21      1.0000 0.46050  0.98810  0.85990  Biso   1.000  C
  C22      1.0000 0.96050  0.48810  0.85990  Biso   1.000  C
  C23      1.0000 0.46050  0.01190  0.35990  Biso   1.000  C
  C24      1.0000 0.96050  0.51190  0.35990  Biso   1.000  C
  C25      1.0000 0.45860  0.88820  0.96080  Biso   1.000  C
  C26      1.0000 0.95860  0.38820  0.96080  Biso   1.000  C
  C27      1.0000 0.45860  0.11180  0.46080  Biso   1.000  C
  C28      1.0000 0.95860  0.61180  0.46080  Biso   1.000  C
  C29      1.0000 0.54140  0.11180  0.03920  Biso   1.000  C
  C30      1.0000 0.04140  0.61180  0.03920  Biso   1.000  C
  C31      1.0000 0.54140  0.88820  0.53920  Biso   1.000  C
  C32      1.0000 0.04140  0.38820  0.53920  Biso   1.000  C
  H1       1.0000 0.58400  0.50600  0.42000  Biso   1.000  H
  H2       1.0000 0.08400  0.00600  0.42000  Biso   1.000  H
  H3       1.0000 0.58400  0.49400  0.92000  Biso   1.000  H
  H4       1.0000 0.08400  0.99400  0.92000  Biso   1.000  H
  H5       1.0000 0.41600  0.49400  0.58000  Biso   1.000  H
  H6       1.0000 0.91600  0.99400  0.58000  Biso   1.000  H
  H7       1.0000 0.41600  0.50600  0.08000  Biso   1.000  H
  H8       1.0000 0.91600  0.00600  0.08000  Biso   1.000  H
  H9       1.0000 0.41400  0.65700  0.40300  Biso   1.000  H
  H10      1.0000 0.91400  0.15700  0.40300  Biso   1.000  H
  H11      1.0000 0.41400  0.34300  0.90300  Biso   1.000  H
  H12      1.0000 0.91400  0.84300  0.90300  Biso   1.000  H
  H13      1.0000 0.58600  0.34300  0.59700  Biso   1.000  H
  H14      1.0000 0.08600  0.84300  0.59700  Biso   1.000  H
  H15      1.0000 0.58600  0.65700  0.09700  Biso   1.000  H
  H16      1.0000 0.08600  0.15700  0.09700  Biso   1.000  H
  H17      1.0000 0.56900  0.02300  0.24000  Biso   1.000  H
  H18      1.0000 0.06900  0.52300  0.24000  Biso   1.000  H
  H19      1.0000 0.56900  0.97700  0.74000  Biso   1.000  H
  H20      1.0000 0.06900  0.47700  0.74000  Biso   1.000  H
  H21      1.0000 0.43100  0.97700  0.76000  Biso   1.000  H
  H22      1.0000 0.93100  0.47700  0.76000  Biso   1.000  H
  H23      1.0000 0.43100  0.02300  0.26000  Biso   1.000  H
  H24      1.0000 0.93100  0.52300  0.26000  Biso   1.000  H
  H25      1.0000 0.42900  0.80900  0.93000  Biso   1.000  H
  H26      1.0000 0.92900  0.30900  0.93000  Biso   1.000  H
  H27      1.0000 0.42900  0.19100  0.43000  Biso   1.000  H
  H28      1.0000 0.92900  0.69100  0.43000  Biso   1.000  H
  H29      1.0000 0.57100  0.19100  0.07000  Biso   1.000  H
  H30      1.0000 0.07100  0.69100  0.07000  Biso   1.000  H
  H31      1.0000 0.57100  0.80900  0.57000  Biso   1.000  H
  H32      1.0000 0.07100  0.30900  0.57000  Biso   1.000  H
  O65      1.0000 0.50000  0.24900  0.25000  Biso   1.000  O
  O66      1.0000 0.00000  0.74900  0.25000  Biso   1.000  O
  O67      1.0000 0.50000  0.75100  0.75000  Biso   1.000  O
  O68      1.0000 0.00000  0.25100  0.75000  Biso   1.000  O
  H33      1.0000 0.53900  0.28000  0.26600  Biso   1.000  H
  H34      1.0000 0.03900  0.78000  0.26600  Biso   1.000  H
  H35      1.0000 0.53900  0.72000  0.76600  Biso   1.000  H
  H36      1.0000 0.03900  0.22000  0.76600  Biso   1.000  H
  H37      1.0000 0.46100  0.72000  0.73400  Biso   1.000  H
  H38      1.0000 0.96100  0.22000  0.73400  Biso   1.000  H
  H39      1.0000 0.46100  0.28000  0.23400  Biso   1.000  H
  H40      1.0000 0.96100  0.78000  0.23400  Biso   1.000  H
