data_image0
_cell_length_a       12.5018
_cell_length_b       14.629
_cell_length_c       15.259
_cell_angle_alpha    90
_cell_angle_beta     93.077
_cell_angle_gamma    90

_symmetry_space_group_name_H-M    "P 1"
_symmetry_int_tables_number       1

loop_
  _symmetry_equiv_pos_as_xyz
  'x, y, z'

loop_
  _atom_site_label
  _atom_site_occupancy
  _atom_site_fract_x
  _atom_site_fract_y
  _atom_site_fract_z
  _atom_site_thermal_displace_type
  _atom_site_B_iso_or_equiv
  _atom_site_type_symbol
  S1       1.0000 0.00000  0.14017  0.75000  Biso   1.000  S
  S2       1.0000 0.50000  0.64017  0.75000  Biso   1.000  S
  S3       1.0000 0.00000  0.85983  0.25000  Biso   1.000  S
  S4       1.0000 0.50000  0.35983  0.25000  Biso   1.000  S
  O1       1.0000 0.06390  0.09040  0.69710  Biso   1.000  O
  O2       1.0000 0.93610  0.09040  0.80290  Biso   1.000  O
  O3       1.0000 0.56390  0.59040  0.69710  Biso   1.000  O
  O4       1.0000 0.43610  0.59040  0.80290  Biso   1.000  O
  O5       1.0000 0.93610  0.90960  0.30290  Biso   1.000  O
  O6       1.0000 0.06390  0.90960  0.19710  Biso   1.000  O
  O7       1.0000 0.43610  0.40960  0.30290  Biso   1.000  O
  O8       1.0000 0.56390  0.40960  0.19710  Biso   1.000  O
  O9       1.0000 0.88250  0.12830  0.71010  Biso   1.000  O
  O10      1.0000 0.11750  0.12830  0.78990  Biso   1.000  O
  O11      1.0000 0.38250  0.62830  0.71010  Biso   1.000  O
  O12      1.0000 0.61750  0.62830  0.78990  Biso   1.000  O
  O13      1.0000 0.11750  0.87170  0.28990  Biso   1.000  O
  O14      1.0000 0.88250  0.87170  0.21010  Biso   1.000  O
  O15      1.0000 0.61750  0.37170  0.28990  Biso   1.000  O
  O16      1.0000 0.38250  0.37170  0.21010  Biso   1.000  O
  Cu1      1.0000 0.25000  0.25000  0.50000  Biso   1.000  Cu
  Cu2      1.0000 0.75000  0.25000  0.00000  Biso   1.000  Cu
  Cu3      1.0000 0.75000  0.75000  0.50000  Biso   1.000  Cu
  Cu4      1.0000 0.25000  0.75000  0.00000  Biso   1.000  Cu
  N1       1.0000 0.20900  0.14220  0.24750  Biso   1.000  N
  N2       1.0000 0.79100  0.14220  0.25250  Biso   1.000  N
  N3       1.0000 0.70900  0.64220  0.24750  Biso   1.000  N
  N4       1.0000 0.29100  0.64220  0.25250  Biso   1.000  N
  N5       1.0000 0.79100  0.85780  0.75250  Biso   1.000  N
  N6       1.0000 0.20900  0.85780  0.74750  Biso   1.000  N
  N7       1.0000 0.29100  0.35780  0.75250  Biso   1.000  N
  N8       1.0000 0.70900  0.35780  0.74750  Biso   1.000  N
  N9       1.0000 0.22530  0.18590  0.38330  Biso   1.000  N
  N10      1.0000 0.77470  0.18590  0.11670  Biso   1.000  N
  N11      1.0000 0.72530  0.68590  0.38330  Biso   1.000  N
  N12      1.0000 0.27470  0.68590  0.11670  Biso   1.000  N
  N13      1.0000 0.77470  0.81410  0.61670  Biso   1.000  N
  N14      1.0000 0.22530  0.81410  0.88330  Biso   1.000  N
  N15      1.0000 0.27470  0.31410  0.61670  Biso   1.000  N
  N16      1.0000 0.72530  0.31410  0.88330  Biso   1.000  N
  N17      1.0000 0.15810  0.11050  0.37910  Biso   1.000  N
  N18      1.0000 0.84190  0.11050  0.12090  Biso   1.000  N
  N19      1.0000 0.65810  0.61050  0.37910  Biso   1.000  N
  N20      1.0000 0.34190  0.61050  0.12090  Biso   1.000  N
  N21      1.0000 0.84190  0.88950  0.62090  Biso   1.000  N
  N22      1.0000 0.15810  0.88950  0.87910  Biso   1.000  N
  N23      1.0000 0.34190  0.38950  0.62090  Biso   1.000  N
  N24      1.0000 0.65810  0.38950  0.87910  Biso   1.000  N
  N25      1.0000 0.43520  0.15350  0.99850  Biso   1.000  N
  N26      1.0000 0.56480  0.15350  0.50150  Biso   1.000  N
  N27      1.0000 0.93520  0.65350  0.99850  Biso   1.000  N
  N28      1.0000 0.06480  0.65350  0.50150  Biso   1.000  N
  N29      1.0000 0.56480  0.84650  0.00150  Biso   1.000  N
  N30      1.0000 0.43520  0.84650  0.49850  Biso   1.000  N
  N31      1.0000 0.06480  0.34650  0.00150  Biso   1.000  N
  N32      1.0000 0.93520  0.34650  0.49850  Biso   1.000  N
  N33      1.0000 0.60150  0.19420  0.98440  Biso   1.000  N
  N34      1.0000 0.39850  0.19420  0.51560  Biso   1.000  N
  N35      1.0000 0.10150  0.69420  0.98440  Biso   1.000  N
  N36      1.0000 0.89850  0.69420  0.51560  Biso   1.000  N
  N37      1.0000 0.39850  0.80580  0.01560  Biso   1.000  N
  N38      1.0000 0.60150  0.80580  0.48440  Biso   1.000  N
  N39      1.0000 0.89850  0.30580  0.01560  Biso   1.000  N
  N40      1.0000 0.10150  0.30580  0.48440  Biso   1.000  N
  N41      1.0000 0.56720  0.14970  0.90910  Biso   1.000  N
  N42      1.0000 0.43280  0.14970  0.59090  Biso   1.000  N
  N43      1.0000 0.06720  0.64970  0.90910  Biso   1.000  N
  N44      1.0000 0.93280  0.64970  0.59090  Biso   1.000  N
  N45      1.0000 0.43280  0.85030  0.09090  Biso   1.000  N
  N46      1.0000 0.56720  0.85030  0.40910  Biso   1.000  N
  N47      1.0000 0.93280  0.35030  0.09090  Biso   1.000  N
  N48      1.0000 0.06720  0.35030  0.40910  Biso   1.000  N
  O17      1.0000 0.17950  0.12080  0.56640  Biso   1.000  O
  O18      1.0000 0.82050  0.12080  0.93360  Biso   1.000  O
  O19      1.0000 0.67950  0.62080  0.56640  Biso   1.000  O
  O20      1.0000 0.32050  0.62080  0.93360  Biso   1.000  O
  O21      1.0000 0.82050  0.87920  0.43360  Biso   1.000  O
  O22      1.0000 0.17950  0.87920  0.06640  Biso   1.000  O
  O23      1.0000 0.32050  0.37920  0.43360  Biso   1.000  O
  O24      1.0000 0.67950  0.37920  0.06640  Biso   1.000  O
  C1       1.0000 0.22080  0.13670  0.15370  Biso   1.000  C
  C2       1.0000 0.77920  0.13670  0.34630  Biso   1.000  C
  C3       1.0000 0.72080  0.63670  0.15370  Biso   1.000  C
  C4       1.0000 0.27920  0.63670  0.34630  Biso   1.000  C
  C5       1.0000 0.77920  0.86330  0.84630  Biso   1.000  C
  C6       1.0000 0.22080  0.86330  0.65370  Biso   1.000  C
  C7       1.0000 0.27920  0.36330  0.84630  Biso   1.000  C
  C8       1.0000 0.72080  0.36330  0.65370  Biso   1.000  C
  C9       1.0000 0.32180  0.14780  0.12260  Biso   1.000  C
  C10      1.0000 0.67820  0.14780  0.37740  Biso   1.000  C
  C11      1.0000 0.82180  0.64780  0.12260  Biso   1.000  C
  C12      1.0000 0.17820  0.64780  0.37740  Biso   1.000  C
  C13      1.0000 0.67820  0.85220  0.87740  Biso   1.000  C
  C14      1.0000 0.32180  0.85220  0.62260  Biso   1.000  C
  C15      1.0000 0.17820  0.35220  0.87740  Biso   1.000  C
  C16      1.0000 0.82180  0.35220  0.62260  Biso   1.000  C
  H1       1.0000 0.38110  0.15920  0.16050  Biso   1.000  H
  H2       1.0000 0.61890  0.15920  0.33950  Biso   1.000  H
  H3       1.0000 0.88110  0.65920  0.16050  Biso   1.000  H
  H4       1.0000 0.11890  0.65920  0.33950  Biso   1.000  H
  H5       1.0000 0.61890  0.84080  0.83950  Biso   1.000  H
  H6       1.0000 0.38110  0.84080  0.66050  Biso   1.000  H
  H7       1.0000 0.11890  0.34080  0.83950  Biso   1.000  H
  H8       1.0000 0.88110  0.34080  0.66050  Biso   1.000  H
  C17      1.0000 0.33130  0.14120  0.03280  Biso   1.000  C
  C18      1.0000 0.66870  0.14120  0.46720  Biso   1.000  C
  C19      1.0000 0.83130  0.64120  0.03280  Biso   1.000  C
  C20      1.0000 0.16870  0.64120  0.46720  Biso   1.000  C
  C21      1.0000 0.66870  0.85880  0.96720  Biso   1.000  C
  C22      1.0000 0.33130  0.85880  0.53280  Biso   1.000  C
  C23      1.0000 0.16870  0.35880  0.96720  Biso   1.000  C
  C24      1.0000 0.83130  0.35880  0.53280  Biso   1.000  C
  C25      1.0000 0.24480  0.12270  0.97620  Biso   1.000  C
  C26      1.0000 0.75520  0.12270  0.52380  Biso   1.000  C
  C27      1.0000 0.74480  0.62270  0.97620  Biso   1.000  C
  C28      1.0000 0.25520  0.62270  0.52380  Biso   1.000  C
  C29      1.0000 0.75520  0.87730  0.02380  Biso   1.000  C
  C30      1.0000 0.24480  0.87730  0.47620  Biso   1.000  C
  C31      1.0000 0.25520  0.37730  0.02380  Biso   1.000  C
  C32      1.0000 0.74480  0.37730  0.47620  Biso   1.000  C
  H9       1.0000 0.25300  0.11830  0.91610  Biso   1.000  H
  H10      1.0000 0.74700  0.11830  0.58390  Biso   1.000  H
  H11      1.0000 0.75300  0.61830  0.91610  Biso   1.000  H
  H12      1.0000 0.24700  0.61830  0.58390  Biso   1.000  H
  H13      1.0000 0.74700  0.88170  0.08390  Biso   1.000  H
  H14      1.0000 0.25300  0.88170  0.41610  Biso   1.000  H
  H15      1.0000 0.24700  0.38170  0.08390  Biso   1.000  H
  H16      1.0000 0.75300  0.38170  0.41610  Biso   1.000  H
  C33      1.0000 0.14540  0.11100  0.01000  Biso   1.000  C
  C34      1.0000 0.85460  0.11100  0.49000  Biso   1.000  C
  C35      1.0000 0.64540  0.61100  0.01000  Biso   1.000  C
  C36      1.0000 0.35460  0.61100  0.49000  Biso   1.000  C
  C37      1.0000 0.85460  0.88900  0.99000  Biso   1.000  C
  C38      1.0000 0.14540  0.88900  0.51000  Biso   1.000  C
  C39      1.0000 0.35460  0.38900  0.99000  Biso   1.000  C
  C40      1.0000 0.64540  0.38900  0.51000  Biso   1.000  C
  H17      1.0000 0.08650  0.09800  0.97220  Biso   1.000  H
  H18      1.0000 0.91350  0.09800  0.52780  Biso   1.000  H
  H19      1.0000 0.58650  0.59800  0.97220  Biso   1.000  H
  H20      1.0000 0.41350  0.59800  0.52780  Biso   1.000  H
  H21      1.0000 0.91350  0.90200  0.02780  Biso   1.000  H
  H22      1.0000 0.08650  0.90200  0.47220  Biso   1.000  H
  H23      1.0000 0.41350  0.40200  0.02780  Biso   1.000  H
  H24      1.0000 0.58650  0.40200  0.47220  Biso   1.000  H
  C41      1.0000 0.13250  0.11820  0.09880  Biso   1.000  C
  C42      1.0000 0.86750  0.11820  0.40120  Biso   1.000  C
  C43      1.0000 0.63250  0.61820  0.09880  Biso   1.000  C
  C44      1.0000 0.36750  0.61820  0.40120  Biso   1.000  C
  C45      1.0000 0.86750  0.88180  0.90120  Biso   1.000  C
  C46      1.0000 0.13250  0.88180  0.59880  Biso   1.000  C
  C47      1.0000 0.36750  0.38180  0.90120  Biso   1.000  C
  C48      1.0000 0.63250  0.38180  0.59880  Biso   1.000  C
  H25      1.0000 0.06530  0.11070  0.12130  Biso   1.000  H
  H26      1.0000 0.93470  0.11070  0.37870  Biso   1.000  H
  H27      1.0000 0.56530  0.61070  0.12130  Biso   1.000  H
  H28      1.0000 0.43470  0.61070  0.37870  Biso   1.000  H
  H29      1.0000 0.93470  0.88930  0.87870  Biso   1.000  H
  H30      1.0000 0.06530  0.88930  0.62130  Biso   1.000  H
  H31      1.0000 0.43470  0.38930  0.87870  Biso   1.000  H
  H32      1.0000 0.56530  0.38930  0.62130  Biso   1.000  H
  C49      1.0000 0.25480  0.20290  0.30450  Biso   1.000  C
  C50      1.0000 0.74520  0.20290  0.19550  Biso   1.000  C
  C51      1.0000 0.75480  0.70290  0.30450  Biso   1.000  C
  C52      1.0000 0.24520  0.70290  0.19550  Biso   1.000  C
  C53      1.0000 0.74520  0.79710  0.69550  Biso   1.000  C
  C54      1.0000 0.25480  0.79710  0.80450  Biso   1.000  C
  C55      1.0000 0.24520  0.29710  0.69550  Biso   1.000  C
  C56      1.0000 0.75480  0.29710  0.80450  Biso   1.000  C
  H33      1.0000 0.30060  0.24990  0.28970  Biso   1.000  H
  H34      1.0000 0.69940  0.24990  0.21030  Biso   1.000  H
  H35      1.0000 0.80060  0.74990  0.28970  Biso   1.000  H
  H36      1.0000 0.19940  0.74990  0.21030  Biso   1.000  H
  H37      1.0000 0.69940  0.75010  0.71030  Biso   1.000  H
  H38      1.0000 0.30060  0.75010  0.78970  Biso   1.000  H
  H39      1.0000 0.19940  0.25010  0.71030  Biso   1.000  H
  H40      1.0000 0.80060  0.25010  0.78970  Biso   1.000  H
  C57      1.0000 0.15020  0.08660  0.29670  Biso   1.000  C
  C58      1.0000 0.84980  0.08660  0.20330  Biso   1.000  C
  C59      1.0000 0.65020  0.58660  0.29670  Biso   1.000  C
  C60      1.0000 0.34980  0.58660  0.20330  Biso   1.000  C
  C61      1.0000 0.84980  0.91340  0.70330  Biso   1.000  C
  C62      1.0000 0.15020  0.91340  0.79670  Biso   1.000  C
  C63      1.0000 0.34980  0.41340  0.70330  Biso   1.000  C
  C64      1.0000 0.65020  0.41340  0.79670  Biso   1.000  C
  H41      1.0000 0.10950  0.03760  0.27470  Biso   1.000  H
  H42      1.0000 0.89050  0.03760  0.22530  Biso   1.000  H
  H43      1.0000 0.60950  0.53760  0.27470  Biso   1.000  H
  H44      1.0000 0.39050  0.53760  0.22530  Biso   1.000  H
  H45      1.0000 0.89050  0.96240  0.72530  Biso   1.000  H
  H46      1.0000 0.10950  0.96240  0.77470  Biso   1.000  H
  H47      1.0000 0.39050  0.46240  0.72530  Biso   1.000  H
  H48      1.0000 0.60950  0.46240  0.77470  Biso   1.000  H
  C65      1.0000 0.52130  0.19620  0.03600  Biso   1.000  C
  C66      1.0000 0.47870  0.19620  0.46400  Biso   1.000  C
  C67      1.0000 0.02130  0.69620  0.03600  Biso   1.000  C
  C68      1.0000 0.97870  0.69620  0.46400  Biso   1.000  C
  C69      1.0000 0.47870  0.80380  0.96400  Biso   1.000  C
  C70      1.0000 0.52130  0.80380  0.53600  Biso   1.000  C
  C71      1.0000 0.97870  0.30380  0.96400  Biso   1.000  C
  C72      1.0000 0.02130  0.30380  0.53600  Biso   1.000  C
  H49      1.0000 0.52360  0.22330  0.09120  Biso   1.000  H
  H50      1.0000 0.47640  0.22330  0.40880  Biso   1.000  H
  H51      1.0000 0.02360  0.72330  0.09120  Biso   1.000  H
  H52      1.0000 0.97640  0.72330  0.40880  Biso   1.000  H
  H53      1.0000 0.47640  0.77670  0.90880  Biso   1.000  H
  H54      1.0000 0.52360  0.77670  0.59120  Biso   1.000  H
  H55      1.0000 0.97640  0.27670  0.90880  Biso   1.000  H
  H56      1.0000 0.02360  0.27670  0.59120  Biso   1.000  H
  C73      1.0000 0.46890  0.12610  0.91900  Biso   1.000  C
  C74      1.0000 0.53110  0.12610  0.58100  Biso   1.000  C
  C75      1.0000 0.96890  0.62610  0.91900  Biso   1.000  C
  C76      1.0000 0.03110  0.62610  0.58100  Biso   1.000  C
  C77      1.0000 0.53110  0.87390  0.08100  Biso   1.000  C
  C78      1.0000 0.46890  0.87390  0.41900  Biso   1.000  C
  C79      1.0000 0.03110  0.37390  0.08100  Biso   1.000  C
  C80      1.0000 0.96890  0.37390  0.41900  Biso   1.000  C
  H57      1.0000 0.42650  0.09440  0.87730  Biso   1.000  H
  H58      1.0000 0.57350  0.09440  0.62270  Biso   1.000  H
  H59      1.0000 0.92650  0.59440  0.87730  Biso   1.000  H
  H60      1.0000 0.07350  0.59440  0.62270  Biso   1.000  H
  H61      1.0000 0.57350  0.90560  0.12270  Biso   1.000  H
  H62      1.0000 0.42650  0.90560  0.37730  Biso   1.000  H
  H63      1.0000 0.07350  0.40560  0.12270  Biso   1.000  H
  H64      1.0000 0.92650  0.40560  0.37730  Biso   1.000  H
  H65      1.0000 0.13400  0.11400  0.60300  Biso   1.000  H
  H66      1.0000 0.86600  0.11400  0.89700  Biso   1.000  H
  H67      1.0000 0.63400  0.61400  0.60300  Biso   1.000  H
  H68      1.0000 0.36600  0.61400  0.89700  Biso   1.000  H
  H69      1.0000 0.86600  0.88600  0.39700  Biso   1.000  H
  H70      1.0000 0.13400  0.88600  0.10300  Biso   1.000  H
  H71      1.0000 0.36600  0.38600  0.39700  Biso   1.000  H
  H72      1.0000 0.63400  0.38600  0.10300  Biso   1.000  H
  H73      1.0000 0.16700  0.09000  0.52210  Biso   1.000  H
  H74      1.0000 0.83300  0.09000  0.97790  Biso   1.000  H
  H75      1.0000 0.66700  0.59000  0.52210  Biso   1.000  H
  H76      1.0000 0.33300  0.59000  0.97790  Biso   1.000  H
  H77      1.0000 0.83300  0.91000  0.47790  Biso   1.000  H
  H78      1.0000 0.16700  0.91000  0.02210  Biso   1.000  H
  H79      1.0000 0.33300  0.41000  0.47790  Biso   1.000  H
  H80      1.0000 0.66700  0.41000  0.02210  Biso   1.000  H
  O25      1.0000 0.67940  0.07820  0.75590  Biso   1.000  O
  O26      1.0000 0.32060  0.07820  0.74410  Biso   1.000  O
  O27      1.0000 0.17940  0.57820  0.75590  Biso   1.000  O
  O28      1.0000 0.82060  0.57820  0.74410  Biso   1.000  O
  O29      1.0000 0.32060  0.92180  0.24410  Biso   1.000  O
  O30      1.0000 0.67940  0.92180  0.25590  Biso   1.000  O
  O31      1.0000 0.82060  0.42180  0.24410  Biso   1.000  O
  O32      1.0000 0.17940  0.42180  0.25590  Biso   1.000  O
  H81      1.0000 0.65200  0.09200  0.80200  Biso   1.000  H
  H82      1.0000 0.34800  0.09200  0.69800  Biso   1.000  H
  H83      1.0000 0.15200  0.59200  0.80200  Biso   1.000  H
  H84      1.0000 0.84800  0.59200  0.69800  Biso   1.000  H
  H85      1.0000 0.34800  0.90800  0.19800  Biso   1.000  H
  H86      1.0000 0.65200  0.90800  0.30200  Biso   1.000  H
  H87      1.0000 0.84800  0.40800  0.19800  Biso   1.000  H
  H88      1.0000 0.15200  0.40800  0.30200  Biso   1.000  H
  H89      1.0000 0.74580  0.07900  0.76200  Biso   1.000  H
  H90      1.0000 0.25420  0.07900  0.73800  Biso   1.000  H
  H91      1.0000 0.24580  0.57900  0.76200  Biso   1.000  H
  H92      1.0000 0.75420  0.57900  0.73800  Biso   1.000  H
  H93      1.0000 0.25420  0.92100  0.23800  Biso   1.000  H
  H94      1.0000 0.74580  0.92100  0.26200  Biso   1.000  H
  H95      1.0000 0.75420  0.42100  0.23800  Biso   1.000  H
  H96      1.0000 0.24580  0.42100  0.26200  Biso   1.000  H
  O33      1.0000 0.00000  0.23700  0.75000  Biso   1.000  O
  O34      1.0000 0.50000  0.73700  0.75000  Biso   1.000  O
  O35      1.0000 0.00000  0.76300  0.25000  Biso   1.000  O
  O36      1.0000 0.50000  0.26300  0.25000  Biso   1.000  O
  O37      1.0000 0.99250  0.10140  0.83520  Biso   1.000  O
  O38      1.0000 0.00750  0.10140  0.66480  Biso   1.000  O
  O39      1.0000 0.49250  0.60140  0.83520  Biso   1.000  O
  O40      1.0000 0.50750  0.60140  0.66480  Biso   1.000  O
  O41      1.0000 0.00750  0.89860  0.16480  Biso   1.000  O
  O42      1.0000 0.99250  0.89860  0.33520  Biso   1.000  O
  O43      1.0000 0.50750  0.39860  0.16480  Biso   1.000  O
  O44      1.0000 0.49250  0.39860  0.33520  Biso   1.000  O
