data_image0
_cell_length_a       7.5775
_cell_length_b       9.9701
_cell_length_c       10.844
_cell_angle_alpha    88.403
_cell_angle_beta     78.799
_cell_angle_gamma    77.081

_symmetry_space_group_name_H-M    "P 1"
_symmetry_int_tables_number       1

loop_
  _symmetry_equiv_pos_as_xyz
  'x, y, z'

loop_
  _atom_site_label
  _atom_site_occupancy
  _atom_site_fract_x
  _atom_site_fract_y
  _atom_site_fract_z
  _atom_site_thermal_displace_type
  _atom_site_B_iso_or_equiv
  _atom_site_type_symbol
  O1       1.0000 0.88620  0.92110  0.10750  Biso   1.000  O
  O2       1.0000 0.11380  0.07890  0.89250  Biso   1.000  O
  H1       1.0000 0.94300  0.88310  0.03590  Biso   1.000  H
  H2       1.0000 0.05700  0.11690  0.96410  Biso   1.000  H
  H3       1.0000 0.90390  0.86590  0.16510  Biso   1.000  H
  H4       1.0000 0.09610  0.13410  0.83490  Biso   1.000  H
  Cu1      1.0000 0.02506  0.74726  0.60633  Biso   1.000  Cu
  Cu2      1.0000 0.97494  0.25274  0.39367  Biso   1.000  Cu
  N1       1.0000 0.62450  0.06280  0.79606  Biso   1.000  N
  N2       1.0000 0.37550  0.93720  0.20394  Biso   1.000  N
  N3       1.0000 0.81420  0.89210  0.68723  Biso   1.000  N
  N4       1.0000 0.18580  0.10790  0.31277  Biso   1.000  N
  N5       1.0000 0.64960  0.91370  0.64470  Biso   1.000  N
  N6       1.0000 0.35040  0.08630  0.35530  Biso   1.000  N
  N7       1.0000 0.23030  0.51537  0.88726  Biso   1.000  N
  N8       1.0000 0.76970  0.48463  0.11274  Biso   1.000  N
  N9       1.0000 0.04120  0.71780  0.88614  Biso   1.000  N
  N10      1.0000 0.95880  0.28220  0.11386  Biso   1.000  N
  N11      1.0000 0.09630  0.66440  0.76460  Biso   1.000  N
  N12      1.0000 0.90370  0.33560  0.23540  Biso   1.000  N
  O3       1.0000 0.95930  0.78920  0.44033  Biso   1.000  O
  O4       1.0000 0.04070  0.21080  0.55967  Biso   1.000  O
  O5       1.0000 0.02710  0.70020  0.24676  Biso   1.000  O
  O6       1.0000 0.97290  0.29980  0.75324  Biso   1.000  O
  O7       1.0000 0.19440  0.59030  0.51777  Biso   1.000  O
  O8       1.0000 0.80560  0.40970  0.48223  Biso   1.000  O
  O9       1.0000 0.28330  0.48910  0.33120  Biso   1.000  O
  O10      1.0000 0.71670  0.51090  0.66880  Biso   1.000  O
  O11      1.0000 0.21650  0.89990  0.59490  Biso   1.000  O
  O12      1.0000 0.78350  0.10010  0.40510  Biso   1.000  O
  H5       1.0000 0.32140  0.86190  0.56060  Biso   1.000  H
  H6       1.0000 0.67860  0.13810  0.43940  Biso   1.000  H
  H7       1.0000 0.18640  0.98090  0.57530  Biso   1.000  H
  H8       1.0000 0.81360  0.01910  0.42470  Biso   1.000  H
  C1       1.0000 0.54370  0.17430  0.88490  Biso   1.000  C
  C2       1.0000 0.45630  0.82570  0.11510  Biso   1.000  C
  C3       1.0000 0.43210  0.28940  0.84350  Biso   1.000  C
  C4       1.0000 0.56790  0.71060  0.15650  Biso   1.000  C
  H9       1.0000 0.41610  0.29560  0.76050  Biso   1.000  H
  H10      1.0000 0.58390  0.70440  0.23950  Biso   1.000  H
  C5       1.0000 0.34530  0.39480  0.92920  Biso   1.000  C
  C6       1.0000 0.65470  0.60520  0.07080  Biso   1.000  C
  C7       1.0000 0.36780  0.38740  0.05320  Biso   1.000  C
  C8       1.0000 0.63220  0.61260  0.94680  Biso   1.000  C
  H11      1.0000 0.30680  0.45860  0.11020  Biso   1.000  H
  H12      1.0000 0.69320  0.54140  0.88980  Biso   1.000  H
  C9       1.0000 0.48370  0.27120  0.09060  Biso   1.000  C
  C10      1.0000 0.51630  0.72880  0.90940  Biso   1.000  C
  H13      1.0000 0.50190  0.26560  0.17310  Biso   1.000  H
  H14      1.0000 0.49810  0.73440  0.82690  Biso   1.000  H
  C11      1.0000 0.57220  0.16380  0.00720  Biso   1.000  C
  C12      1.0000 0.42780  0.83620  0.99280  Biso   1.000  C
  H15      1.0000 0.64930  0.08630  0.03280  Biso   1.000  H
  H16      1.0000 0.35070  0.91370  0.96720  Biso   1.000  H
  C13      1.0000 0.53960  0.01590  0.71210  Biso   1.000  C
  C14      1.0000 0.46040  0.98410  0.28790  Biso   1.000  C
  H17      1.0000 0.41830  0.05230  0.70380  Biso   1.000  H
  H18      1.0000 0.58170  0.94770  0.29620  Biso   1.000  H
  C15      1.0000 0.79650  0.98150  0.77780  Biso   1.000  C
  C16      1.0000 0.20350  0.01850  0.22220  Biso   1.000  C
  H19      1.0000 0.88760  0.98790  0.82230  Biso   1.000  H
  H20      1.0000 0.11240  0.01210  0.17770  Biso   1.000  H
  C17      1.0000 0.12380  0.62640  0.95600  Biso   1.000  C
  C18      1.0000 0.87620  0.37360  0.04400  Biso   1.000  C
  H21      1.0000 0.11150  0.63590  0.04260  Biso   1.000  H
  H22      1.0000 0.88850  0.36410  0.95740  Biso   1.000  H
  C19      1.0000 0.20910  0.54450  0.76830  Biso   1.000  C
  C20      1.0000 0.79090  0.45550  0.23170  Biso   1.000  C
  H23      1.0000 0.26630  0.48770  0.69870  Biso   1.000  H
  H24      1.0000 0.73370  0.51230  0.30130  Biso   1.000  H
  C21      1.0000 0.04550  0.69920  0.35610  Biso   1.000  C
  C22      1.0000 0.95450  0.30080  0.64390  Biso   1.000  C
  C23      1.0000 0.18790  0.58010  0.40230  Biso   1.000  C
  C24      1.0000 0.81210  0.41990  0.59770  Biso   1.000  C
  O13      1.0000 0.55820  0.72100  0.47220  Biso   1.000  O
  O14      1.0000 0.44180  0.27900  0.52780  Biso   1.000  O
  H25      1.0000 0.52920  0.65380  0.51110  Biso   1.000  H
  H26      1.0000 0.47080  0.34620  0.48890  Biso   1.000  H
  H27      1.0000 0.62280  0.75670  0.50830  Biso   1.000  H
  H28      1.0000 0.37720  0.24330  0.49170  Biso   1.000  H
