data_image0
_cell_length_a       7.2491
_cell_length_b       11.113
_cell_length_c       19.572
_cell_angle_alpha    93.847
_cell_angle_beta     100.202
_cell_angle_gamma    97.277

_symmetry_space_group_name_H-M    "P 1"
_symmetry_int_tables_number       1

loop_
  _symmetry_equiv_pos_as_xyz
  'x, y, z'

loop_
  _atom_site_label
  _atom_site_occupancy
  _atom_site_fract_x
  _atom_site_fract_y
  _atom_site_fract_z
  _atom_site_thermal_displace_type
  _atom_site_B_iso_or_equiv
  _atom_site_type_symbol
  Cu1      1.0000 0.03293  0.31661  0.24424  Biso   1.000  Cu
  Cu2      1.0000 0.96707  0.68339  0.75576  Biso   1.000  Cu
  O1       1.0000 0.23360  0.34260  0.32650  Biso   1.000  O
  O2       1.0000 0.76640  0.65740  0.67350  Biso   1.000  O
  O3       1.0000 0.43150  0.30130  0.25610  Biso   1.000  O
  O4       1.0000 0.56850  0.69870  0.74390  Biso   1.000  O
  O5       1.0000 0.77960  0.30470  0.30580  Biso   1.000  O
  O6       1.0000 0.22040  0.69530  0.69420  Biso   1.000  O
  O7       1.0000 0.81850  0.28180  0.16750  Biso   1.000  O
  O8       1.0000 0.18150  0.71820  0.83250  Biso   1.000  O
  O9       1.0000 0.00680  0.29040  0.09020  Biso   1.000  O
  O10      1.0000 0.99320  0.70960  0.90980  Biso   1.000  O
  O11      1.0000 0.87060  0.22910  0.96240  Biso   1.000  O
  O12      1.0000 0.12940  0.77090  0.03760  Biso   1.000  O
  O13      1.0000 0.39810  0.42090  0.69830  Biso   1.000  O
  O14      1.0000 0.60190  0.57910  0.30170  Biso   1.000  O
  O15      1.0000 0.52300  0.31740  0.78290  Biso   1.000  O
  O16      1.0000 0.47700  0.68260  0.21710  Biso   1.000  O
  O17      1.0000 0.27110  0.31780  0.57580  Biso   1.000  O
  O18      1.0000 0.72890  0.68220  0.42420  Biso   1.000  O
  O19      1.0000 0.41200  0.46780  0.14920  Biso   1.000  O
  O20      1.0000 0.58800  0.53220  0.85080  Biso   1.000  O
  N1       1.0000 0.03340  0.49820  0.24330  Biso   1.000  N
  N2       1.0000 0.96660  0.50180  0.75670  Biso   1.000  N
  N3       1.0000 0.04570  0.13620  0.24480  Biso   1.000  N
  N4       1.0000 0.95430  0.86380  0.75520  Biso   1.000  N
  C1       1.0000 0.39740  0.32620  0.31620  Biso   1.000  C
  C2       1.0000 0.60260  0.67380  0.68380  Biso   1.000  C
  C3       1.0000 0.55180  0.33540  0.37780  Biso   1.000  C
  C4       1.0000 0.44820  0.66460  0.62220  Biso   1.000  C
  C5       1.0000 0.73790  0.32600  0.36970  Biso   1.000  C
  C6       1.0000 0.26210  0.67400  0.63030  Biso   1.000  C
  C7       1.0000 0.88320  0.33700  0.42750  Biso   1.000  C
  C8       1.0000 0.11680  0.66300  0.57250  Biso   1.000  C
  C9       1.0000 0.84360  0.35650  0.49380  Biso   1.000  C
  C10      1.0000 0.15640  0.64350  0.50620  Biso   1.000  C
  C11      1.0000 0.65920  0.36400  0.50260  Biso   1.000  C
  C12      1.0000 0.34080  0.63600  0.49740  Biso   1.000  C
  C13      1.0000 0.51650  0.35480  0.44510  Biso   1.000  C
  C14      1.0000 0.48350  0.64520  0.55490  Biso   1.000  C
  C15      1.0000 0.84550  0.26690  0.10550  Biso   1.000  C
  C16      1.0000 0.15450  0.73310  0.89450  Biso   1.000  C
  C17      1.0000 0.67950  0.21870  0.05070  Biso   1.000  C
  C18      1.0000 0.32050  0.78130  0.94930  Biso   1.000  C
  C19      1.0000 0.70000  0.20460  0.98110  Biso   1.000  C
  C20      1.0000 0.30000  0.79540  0.01890  Biso   1.000  C
  C21      1.0000 0.53800  0.15940  0.92960  Biso   1.000  C
  C22      1.0000 0.46200  0.84060  0.07040  Biso   1.000  C
  C23      1.0000 0.36800  0.12860  0.94810  Biso   1.000  C
  C24      1.0000 0.63200  0.87140  0.05190  Biso   1.000  C
  C25      1.0000 0.34570  0.14250  0.01690  Biso   1.000  C
  C26      1.0000 0.65430  0.85750  0.98310  Biso   1.000  C
  C27      1.0000 0.50070  0.18890  0.06780  Biso   1.000  C
  C28      1.0000 0.49930  0.81110  0.93220  Biso   1.000  C
  C29      1.0000 0.98290  0.55160  0.18530  Biso   1.000  C
  C30      1.0000 0.01710  0.44840  0.81470  Biso   1.000  C
  C31      1.0000 0.98350  0.67580  0.18390  Biso   1.000  C
  C32      1.0000 0.01650  0.32420  0.81610  Biso   1.000  C
  C33      1.0000 0.03650  0.75020  0.24620  Biso   1.000  C
  C34      1.0000 0.96350  0.24980  0.75380  Biso   1.000  C
  C35      1.0000 0.08440  0.69530  0.30570  Biso   1.000  C
  C36      1.0000 0.91560  0.30470  0.69430  Biso   1.000  C
  C37      1.0000 0.08290  0.57090  0.30310  Biso   1.000  C
  C38      1.0000 0.91710  0.42910  0.69690  Biso   1.000  C
  C39      1.0000 0.08460  0.07010  0.19020  Biso   1.000  C
  C40      1.0000 0.91540  0.92990  0.80980  Biso   1.000  C
  C41      1.0000 0.08230  0.94480  0.19020  Biso   1.000  C
  C42      1.0000 0.91770  0.05520  0.80980  Biso   1.000  C
  C43      1.0000 0.04230  0.88440  0.24630  Biso   1.000  C
  C44      1.0000 0.95770  0.11560  0.75370  Biso   1.000  C
  C45      1.0000 0.00910  0.95390  0.30270  Biso   1.000  C
  C46      1.0000 0.99090  0.04610  0.69730  Biso   1.000  C
  C47      1.0000 0.01200  0.07920  0.30010  Biso   1.000  C
  C48      1.0000 0.98800  0.92080  0.69990  Biso   1.000  C
  C49      1.0000 0.44240  0.32630  0.71810  Biso   1.000  C
  C50      1.0000 0.55760  0.67370  0.28190  Biso   1.000  C
  C51      1.0000 0.41210  0.21320  0.67080  Biso   1.000  C
  C52      1.0000 0.58790  0.78680  0.32920  Biso   1.000  C
  C53      1.0000 0.32800  0.21530  0.60240  Biso   1.000  C
  C54      1.0000 0.67200  0.78470  0.39760  Biso   1.000  C
  C55      1.0000 0.30400  0.10640  0.55760  Biso   1.000  C
  C56      1.0000 0.69600  0.89360  0.44240  Biso   1.000  C
  C57      1.0000 0.36400  0.00220  0.58370  Biso   1.000  C
  C58      1.0000 0.63600  0.99780  0.41630  Biso   1.000  C
  C59      1.0000 0.44300  0.00120  0.65060  Biso   1.000  C
  C60      1.0000 0.55700  0.99880  0.34940  Biso   1.000  C
  C61      1.0000 0.46800  0.10430  0.69570  Biso   1.000  C
  C62      1.0000 0.53200  0.89570  0.30430  Biso   1.000  C
  H1       1.0000 0.66010  0.30570  0.27140  Biso   1.000  H
  H2       1.0000 0.33990  0.69430  0.72860  Biso   1.000  H
  H3       1.0000 0.02320  0.33160  0.41680  Biso   1.000  H
  H4       1.0000 0.97680  0.66840  0.58320  Biso   1.000  H
  H5       1.0000 0.94570  0.36160  0.53600  Biso   1.000  H
  H6       1.0000 0.05430  0.63840  0.46400  Biso   1.000  H
  H7       1.0000 0.62490  0.37020  0.55230  Biso   1.000  H
  H8       1.0000 0.37510  0.62980  0.44770  Biso   1.000  H
  H9       1.0000 0.38960  0.36070  0.45120  Biso   1.000  H
  H10      1.0000 0.61040  0.63930  0.54880  Biso   1.000  H
  H11      1.0000 0.57980  0.16270  0.87980  Biso   1.000  H
  H12      1.0000 0.42020  0.83730  0.12020  Biso   1.000  H
  H13      1.0000 0.23760  0.08260  0.91860  Biso   1.000  H
  H14      1.0000 0.76240  0.91740  0.08140  Biso   1.000  H
  H15      1.0000 0.18920  0.11350  0.02230  Biso   1.000  H
  H16      1.0000 0.81080  0.88650  0.97770  Biso   1.000  H
  H17      1.0000 0.47210  0.19340  0.12860  Biso   1.000  H
  H18      1.0000 0.52790  0.80660  0.87140  Biso   1.000  H
  H19      1.0000 0.95110  0.49600  0.14070  Biso   1.000  H
  H20      1.0000 0.04890  0.50400  0.85930  Biso   1.000  H
  H21      1.0000 0.91510  0.70280  0.13770  Biso   1.000  H
  H22      1.0000 0.08490  0.29720  0.86230  Biso   1.000  H
  H23      1.0000 0.13190  0.74400  0.35200  Biso   1.000  H
  H24      1.0000 0.86810  0.25600  0.64800  Biso   1.000  H
  H25      1.0000 0.12960  0.53000  0.34710  Biso   1.000  H
  H26      1.0000 0.87040  0.47000  0.65290  Biso   1.000  H
  H27      1.0000 0.13100  0.12870  0.14220  Biso   1.000  H
  H28      1.0000 0.86900  0.87130  0.85780  Biso   1.000  H
  H29      1.0000 0.12510  0.89760  0.15330  Biso   1.000  H
  H30      1.0000 0.87490  0.10240  0.84670  Biso   1.000  H
  H31      1.0000 0.99150  0.91260  0.35460  Biso   1.000  H
  H32      1.0000 0.00850  0.08740  0.64540  Biso   1.000  H
  H33      1.0000 0.98820  0.13790  0.34070  Biso   1.000  H
  H34      1.0000 0.01180  0.86210  0.65930  Biso   1.000  H
  H35      1.0000 0.21210  0.13050  0.51250  Biso   1.000  H
  H36      1.0000 0.78790  0.86950  0.48750  Biso   1.000  H
  H37      1.0000 0.34820  0.93110  0.55250  Biso   1.000  H
  H38      1.0000 0.65180  0.06890  0.44750  Biso   1.000  H
  H39      1.0000 0.48080  0.92950  0.66880  Biso   1.000  H
  H40      1.0000 0.51920  0.07050  0.33120  Biso   1.000  H
  H41      1.0000 0.52620  0.10430  0.74410  Biso   1.000  H
  H42      1.0000 0.47380  0.89570  0.25590  Biso   1.000  H
  H43      1.0000 0.41830  0.38570  0.18830  Biso   1.000  H
  H44      1.0000 0.58170  0.61430  0.81170  Biso   1.000  H
  H45      1.0000 0.38650  0.49710  0.10380  Biso   1.000  H
  H46      1.0000 0.61350  0.50290  0.89620  Biso   1.000  H
