data_image0
_cell_length_a       7.5678
_cell_length_b       8.155
_cell_length_c       11.4237
_cell_angle_alpha    83.343
_cell_angle_beta     79.344
_cell_angle_gamma    70.314

_symmetry_space_group_name_H-M    "P 1"
_symmetry_int_tables_number       1

loop_
  _symmetry_equiv_pos_as_xyz
  'x, y, z'

loop_
  _atom_site_label
  _atom_site_occupancy
  _atom_site_fract_x
  _atom_site_fract_y
  _atom_site_fract_z
  _atom_site_thermal_displace_type
  _atom_site_B_iso_or_equiv
  _atom_site_type_symbol
  Cu1      1.0000 0.50000  0.00000  0.00000  Biso   1.000  Cu
  C1       1.0000 0.59640  0.80920  0.18817  Biso   1.000  C
  C2       1.0000 0.40360  0.19080  0.81183  Biso   1.000  C
  C3       1.0000 0.61660  0.73090  0.31308  Biso   1.000  C
  C4       1.0000 0.38340  0.26910  0.68692  Biso   1.000  C
  C5       1.0000 0.75230  0.56990  0.32950  Biso   1.000  C
  C6       1.0000 0.24770  0.43010  0.67050  Biso   1.000  C
  H1       1.0000 0.82450  0.50920  0.26340  Biso   1.000  H
  H2       1.0000 0.17550  0.49080  0.73660  Biso   1.000  H
  C7       1.0000 0.78150  0.49860  0.44250  Biso   1.000  C
  C8       1.0000 0.21850  0.50140  0.55750  Biso   1.000  C
  H3       1.0000 0.87360  0.39060  0.45160  Biso   1.000  H
  H4       1.0000 0.12640  0.60940  0.54840  Biso   1.000  H
  C9       1.0000 0.67510  0.58630  0.54333  Biso   1.000  C
  C10      1.0000 0.32490  0.41370  0.45667  Biso   1.000  C
  C11      1.0000 0.53380  0.74550  0.52610  Biso   1.000  C
  C12      1.0000 0.46620  0.25450  0.47390  Biso   1.000  C
  H5       1.0000 0.45770  0.80440  0.59190  Biso   1.000  H
  H6       1.0000 0.54230  0.19560  0.40810  Biso   1.000  H
  C13      1.0000 0.50560  0.81650  0.41250  Biso   1.000  C
  C14      1.0000 0.49440  0.18350  0.58750  Biso   1.000  C
  H7       1.0000 0.41130  0.92290  0.40270  Biso   1.000  H
  H8       1.0000 0.58870  0.07710  0.59730  Biso   1.000  H
  C15      1.0000 0.71640  0.51410  0.66392  Biso   1.000  C
  C16      1.0000 0.28360  0.48590  0.33608  Biso   1.000  C
  C17      1.0000 0.83430  0.34380  0.68310  Biso   1.000  C
  C18      1.0000 0.16570  0.65620  0.31690  Biso   1.000  C
  H9       1.0000 0.88160  0.27100  0.61970  Biso   1.000  H
  H10      1.0000 0.11840  0.72900  0.38030  Biso   1.000  H
  C19      1.0000 0.88160  0.28180  0.79300  Biso   1.000  C
  C20      1.0000 0.11840  0.71820  0.20700  Biso   1.000  C
  H11      1.0000 0.96220  0.16820  0.80330  Biso   1.000  H
  H12      1.0000 0.03780  0.83180  0.19670  Biso   1.000  H
  C21      1.0000 0.69510  0.54560  0.87320  Biso   1.000  C
  C22      1.0000 0.30490  0.45440  0.12680  Biso   1.000  C
  H13      1.0000 0.64580  0.61360  0.93900  Biso   1.000  H
  H14      1.0000 0.35420  0.38640  0.06100  Biso   1.000  H
  C23      1.0000 0.64590  0.61310  0.76380  Biso   1.000  C
  C24      1.0000 0.35410  0.38690  0.23620  Biso   1.000  C
  H15      1.0000 0.56430  0.72680  0.75620  Biso   1.000  H
  H16      1.0000 0.43570  0.27320  0.24380  Biso   1.000  H
  C25      1.0000 0.86260  0.30820  0.00501  Biso   1.000  C
  C26      1.0000 0.13740  0.69180  0.99499  Biso   1.000  C
  H17      1.0000 0.99960  0.25810  0.99870  Biso   1.000  H
  H18      1.0000 0.00040  0.74190  0.00130  Biso   1.000  H
  H19      1.0000 0.82060  0.40140  0.05960  Biso   1.000  H
  H20      1.0000 0.17940  0.59860  0.94040  Biso   1.000  H
  C27      1.0000 0.77220  0.16730  0.05644  Biso   1.000  C
  C28      1.0000 0.22780  0.83270  0.94356  Biso   1.000  C
  O1       1.0000 0.46980  0.95684  0.17531  Biso   1.000  O
  O2       1.0000 0.53020  0.04316  0.82469  Biso   1.000  O
  O3       1.0000 0.70450  0.72910  0.10234  Biso   1.000  O
  O4       1.0000 0.29550  0.27090  0.89766  Biso   1.000  O
  O5       1.0000 0.66320  0.14310  0.99474  Biso   1.000  O
  O6       1.0000 0.33680  0.85690  0.00526  Biso   1.000  O
  O7       1.0000 0.18460  0.90700  0.84807  Biso   1.000  O
  O8       1.0000 0.81540  0.09300  0.15193  Biso   1.000  O
  N1       1.0000 0.81360  0.38210  0.88628  Biso   1.000  N
  N2       1.0000 0.18640  0.61790  0.11372  Biso   1.000  N
  O9       1.0000 0.07740  0.13860  0.28140  Biso   1.000  O
  O10      1.0000 0.92260  0.86140  0.71860  Biso   1.000  O
  H21      1.0000 0.19100  0.08100  0.24900  Biso   1.000  H
  H22      1.0000 0.80900  0.91900  0.75100  Biso   1.000  H
  H23      1.0000 0.98800  0.11100  0.24100  Biso   1.000  H
  H24      1.0000 0.01200  0.88900  0.75900  Biso   1.000  H
  O11      1.0000 0.06980  0.02600  0.51470  Biso   1.000  O
  O12      1.0000 0.93020  0.97400  0.48530  Biso   1.000  O
  H25      1.0000 0.97200  0.97700  0.56170  Biso   1.000  H
  H26      1.0000 0.02800  0.02300  0.43830  Biso   1.000  H
