data_image0
_cell_length_a       8.85
_cell_length_b       11.2033
_cell_length_c       13.7538
_cell_angle_alpha    90
_cell_angle_beta     90
_cell_angle_gamma    90

_symmetry_space_group_name_H-M    "P 1"
_symmetry_int_tables_number       1

loop_
  _symmetry_equiv_pos_as_xyz
  'x, y, z'

loop_
  _atom_site_label
  _atom_site_occupancy
  _atom_site_fract_x
  _atom_site_fract_y
  _atom_site_fract_z
  _atom_site_thermal_displace_type
  _atom_site_B_iso_or_equiv
  _atom_site_type_symbol
  Cu1      1.0000 0.26143  0.14989  0.05186  Biso   1.000  Cu
  Cu2      1.0000 0.23857  0.85011  0.55186  Biso   1.000  Cu
  Cu3      1.0000 0.73857  0.64989  0.44814  Biso   1.000  Cu
  Cu4      1.0000 0.76143  0.35011  0.94814  Biso   1.000  Cu
  N1       1.0000 0.40470  0.03390  0.11160  Biso   1.000  N
  N2       1.0000 0.09530  0.96610  0.61160  Biso   1.000  N
  N3       1.0000 0.59530  0.53390  0.38840  Biso   1.000  N
  N4       1.0000 0.90470  0.46610  0.88840  Biso   1.000  N
  C1       1.0000 0.53260  0.05560  0.16170  Biso   1.000  C
  C2       1.0000 0.96740  0.94440  0.66170  Biso   1.000  C
  C3       1.0000 0.46740  0.55560  0.33830  Biso   1.000  C
  C4       1.0000 0.03260  0.44440  0.83830  Biso   1.000  C
  H1       1.0000 0.56790  0.13360  0.16560  Biso   1.000  H
  H2       1.0000 0.93210  0.86640  0.66560  Biso   1.000  H
  H3       1.0000 0.43210  0.63360  0.33440  Biso   1.000  H
  H4       1.0000 0.06790  0.36640  0.83440  Biso   1.000  H
  C5       1.0000 0.61270  0.96680  0.20740  Biso   1.000  C
  C6       1.0000 0.88730  0.03320  0.70740  Biso   1.000  C
  C7       1.0000 0.38730  0.46680  0.29260  Biso   1.000  C
  C8       1.0000 0.11270  0.53320  0.79260  Biso   1.000  C
  H5       1.0000 0.69940  0.98470  0.24260  Biso   1.000  H
  H6       1.0000 0.80060  0.01530  0.74260  Biso   1.000  H
  H7       1.0000 0.30060  0.48470  0.25740  Biso   1.000  H
  H8       1.0000 0.19940  0.51530  0.75740  Biso   1.000  H
  C9       1.0000 0.56260  0.85160  0.20010  Biso   1.000  C
  C10      1.0000 0.93740  0.14840  0.70010  Biso   1.000  C
  C11      1.0000 0.43740  0.35160  0.29990  Biso   1.000  C
  C12      1.0000 0.06260  0.64840  0.79990  Biso   1.000  C
  H9       1.0000 0.61680  0.79000  0.22920  Biso   1.000  H
  H10      1.0000 0.88320  0.21000  0.72920  Biso   1.000  H
  H11      1.0000 0.38320  0.29000  0.27080  Biso   1.000  H
  H12      1.0000 0.11680  0.71000  0.77080  Biso   1.000  H
  C13      1.0000 0.43260  0.82710  0.15010  Biso   1.000  C
  C14      1.0000 0.06740  0.17290  0.65010  Biso   1.000  C
  C15      1.0000 0.56740  0.32710  0.34990  Biso   1.000  C
  C16      1.0000 0.93260  0.67290  0.84990  Biso   1.000  C
  H13      1.0000 0.39580  0.74950  0.14680  Biso   1.000  H
  H14      1.0000 0.10420  0.25050  0.64680  Biso   1.000  H
  H15      1.0000 0.60420  0.24950  0.35320  Biso   1.000  H
  H16      1.0000 0.89580  0.75050  0.85320  Biso   1.000  H
  C17      1.0000 0.35670  0.91910  0.10460  Biso   1.000  C
  C18      1.0000 0.14330  0.08090  0.60460  Biso   1.000  C
  C19      1.0000 0.64330  0.41910  0.39540  Biso   1.000  C
  C20      1.0000 0.85670  0.58090  0.89540  Biso   1.000  C
  C21      1.0000 0.21730  0.90100  0.04440  Biso   1.000  C
  C22      1.0000 0.28270  0.09900  0.54440  Biso   1.000  C
  C23      1.0000 0.78270  0.40100  0.45560  Biso   1.000  C
  C24      1.0000 0.71730  0.59900  0.95560  Biso   1.000  C
  H17      1.0000 0.24480  0.88580  0.97730  Biso   1.000  H
  H18      1.0000 0.25520  0.11420  0.47730  Biso   1.000  H
  H19      1.0000 0.75520  0.38580  0.52270  Biso   1.000  H
  H20      1.0000 0.74480  0.61420  0.02270  Biso   1.000  H
  H21      1.0000 0.16090  0.83290  0.06840  Biso   1.000  H
  H22      1.0000 0.33910  0.16710  0.56840  Biso   1.000  H
  H23      1.0000 0.83910  0.33290  0.43160  Biso   1.000  H
  H24      1.0000 0.66090  0.66710  0.93160  Biso   1.000  H
  N5       1.0000 0.12400  0.01000  0.05080  Biso   1.000  N
  N6       1.0000 0.37600  0.99000  0.55080  Biso   1.000  N
  N7       1.0000 0.87600  0.51000  0.44920  Biso   1.000  N
  N8       1.0000 0.62400  0.49000  0.94920  Biso   1.000  N
  H25      1.0000 0.06700  0.02000  0.10900  Biso   1.000  H
  H26      1.0000 0.43300  0.98000  0.60900  Biso   1.000  H
  H27      1.0000 0.93300  0.52000  0.39100  Biso   1.000  H
  H28      1.0000 0.56700  0.48000  0.89100  Biso   1.000  H
  C25      1.0000 0.00790  0.02890  0.97520  Biso   1.000  C
  C26      1.0000 0.49210  0.97110  0.47520  Biso   1.000  C
  C27      1.0000 0.99210  0.52890  0.52480  Biso   1.000  C
  C28      1.0000 0.50790  0.47110  0.02480  Biso   1.000  C
  H29      1.0000 0.04900  0.00190  0.91280  Biso   1.000  H
  H30      1.0000 0.45100  0.99810  0.41280  Biso   1.000  H
  H31      1.0000 0.95100  0.50190  0.58720  Biso   1.000  H
  H32      1.0000 0.54900  0.49810  0.08720  Biso   1.000  H
  C29      1.0000 0.98120  0.16470  0.96900  Biso   1.000  C
  C30      1.0000 0.51880  0.83530  0.46900  Biso   1.000  C
  C31      1.0000 0.01880  0.66470  0.53100  Biso   1.000  C
  C32      1.0000 0.48120  0.33530  0.03100  Biso   1.000  C
  C33      1.0000 0.86310  0.95900  0.99560  Biso   1.000  C
  C34      1.0000 0.63690  0.04100  0.49560  Biso   1.000  C
  C35      1.0000 0.13690  0.45900  0.50440  Biso   1.000  C
  C36      1.0000 0.36310  0.54100  0.00440  Biso   1.000  C
  H33      1.0000 0.88580  0.87530  0.99870  Biso   1.000  H
  H34      1.0000 0.61420  0.12470  0.49870  Biso   1.000  H
  H35      1.0000 0.11420  0.37530  0.50130  Biso   1.000  H
  H36      1.0000 0.38580  0.62470  0.00130  Biso   1.000  H
  H37      1.0000 0.79150  0.97330  0.94440  Biso   1.000  H
  H38      1.0000 0.70850  0.02670  0.44440  Biso   1.000  H
  H39      1.0000 0.20850  0.47330  0.55560  Biso   1.000  H
  H40      1.0000 0.29150  0.52670  0.05560  Biso   1.000  H
  H41      1.0000 0.82090  0.98450  0.05640  Biso   1.000  H
  H42      1.0000 0.67910  0.01550  0.55640  Biso   1.000  H
  H43      1.0000 0.17910  0.48450  0.44360  Biso   1.000  H
  H44      1.0000 0.32090  0.51550  0.94360  Biso   1.000  H
  O1       1.0000 0.08080  0.23250  0.00250  Biso   1.000  O
  O2       1.0000 0.41920  0.76750  0.50250  Biso   1.000  O
  O3       1.0000 0.91920  0.73250  0.49750  Biso   1.000  O
  O4       1.0000 0.58080  0.26750  0.99750  Biso   1.000  O
  O5       1.0000 0.86010  0.19770  0.93010  Biso   1.000  O
  O6       1.0000 0.63990  0.80230  0.43010  Biso   1.000  O
  O7       1.0000 0.13990  0.69770  0.56990  Biso   1.000  O
  O8       1.0000 0.36010  0.30230  0.06990  Biso   1.000  O
  O9       1.0000 0.32940  0.10810  0.88900  Biso   1.000  O
  O10      1.0000 0.17060  0.89190  0.38900  Biso   1.000  O
  O11      1.0000 0.67060  0.60810  0.61100  Biso   1.000  O
  O12      1.0000 0.82940  0.39190  0.11100  Biso   1.000  O
  H45      1.0000 0.29000  0.14400  0.85700  Biso   1.000  H
  H46      1.0000 0.21000  0.85600  0.35700  Biso   1.000  H
  H47      1.0000 0.71000  0.64400  0.64300  Biso   1.000  H
  H48      1.0000 0.79000  0.35600  0.14300  Biso   1.000  H
  H49      1.0000 0.40500  0.12200  0.88000  Biso   1.000  H
  H50      1.0000 0.09500  0.87800  0.38000  Biso   1.000  H
  H51      1.0000 0.59500  0.62200  0.62000  Biso   1.000  H
  H52      1.0000 0.90500  0.37800  0.12000  Biso   1.000  H
  Cl1      1.0000 0.02087  0.18112  0.28321  Biso   1.000  Cl
  Cl2      1.0000 0.47913  0.81888  0.78321  Biso   1.000  Cl
  Cl3      1.0000 0.97913  0.68112  0.21679  Biso   1.000  Cl
  Cl4      1.0000 0.52087  0.31888  0.71679  Biso   1.000  Cl
  O13      1.0000 0.16300  0.13480  0.25520  Biso   1.000  O
  O14      1.0000 0.33700  0.86520  0.75520  Biso   1.000  O
  O15      1.0000 0.83700  0.63480  0.24480  Biso   1.000  O
  O16      1.0000 0.66300  0.36520  0.74480  Biso   1.000  O
  O17      1.0000 0.98080  0.13750  0.37590  Biso   1.000  O
  O18      1.0000 0.51920  0.86250  0.87590  Biso   1.000  O
  O19      1.0000 0.01920  0.63750  0.12410  Biso   1.000  O
  O20      1.0000 0.48080  0.36250  0.62410  Biso   1.000  O
  O21      1.0000 0.03440  0.30910  0.28750  Biso   1.000  O
  O22      1.0000 0.46560  0.69090  0.78750  Biso   1.000  O
  O23      1.0000 0.96560  0.80910  0.21250  Biso   1.000  O
  O24      1.0000 0.53440  0.19090  0.71250  Biso   1.000  O
  O25      1.0000 0.91120  0.15250  0.21270  Biso   1.000  O
  O26      1.0000 0.58880  0.84750  0.71270  Biso   1.000  O
  O27      1.0000 0.08880  0.65250  0.28730  Biso   1.000  O
  O28      1.0000 0.41120  0.34750  0.78730  Biso   1.000  O
