data_image0
_cell_length_a       21.923
_cell_length_b       8.2447
_cell_length_c       16.1765
_cell_angle_alpha    90
_cell_angle_beta     110.967
_cell_angle_gamma    90

_symmetry_space_group_name_H-M    "P 1"
_symmetry_int_tables_number       1

loop_
  _symmetry_equiv_pos_as_xyz
  'x, y, z'

loop_
  _atom_site_label
  _atom_site_occupancy
  _atom_site_fract_x
  _atom_site_fract_y
  _atom_site_fract_z
  _atom_site_thermal_displace_type
  _atom_site_B_iso_or_equiv
  _atom_site_type_symbol
  As1      1.0000 0.27187  0.04339  0.12338  Biso   1.000  As
  As2      1.0000 0.77187  0.54339  0.12338  Biso   1.000  As
  As3      1.0000 0.27187  0.95661  0.62338  Biso   1.000  As
  As4      1.0000 0.77187  0.45661  0.62338  Biso   1.000  As
  As5      1.0000 0.72813  0.95661  0.87662  Biso   1.000  As
  As6      1.0000 0.22813  0.45661  0.87662  Biso   1.000  As
  As7      1.0000 0.72813  0.04339  0.37662  Biso   1.000  As
  As8      1.0000 0.22813  0.54339  0.37662  Biso   1.000  As
  Cu1      1.0000 0.26421  0.72032  0.20560  Biso   1.000  Cu
  Cu2      1.0000 0.76421  0.22032  0.20560  Biso   1.000  Cu
  Cu3      1.0000 0.26421  0.27968  0.70560  Biso   1.000  Cu
  Cu4      1.0000 0.76421  0.77968  0.70560  Biso   1.000  Cu
  Cu5      1.0000 0.73579  0.27968  0.79440  Biso   1.000  Cu
  Cu6      1.0000 0.23579  0.77968  0.79440  Biso   1.000  Cu
  Cu7      1.0000 0.73579  0.72032  0.29440  Biso   1.000  Cu
  Cu8      1.0000 0.23579  0.22032  0.29440  Biso   1.000  Cu
  V1       1.0000 0.16913  0.12193  0.91847  Biso   1.000  V
  V2       1.0000 0.66913  0.62193  0.91847  Biso   1.000  V
  V3       1.0000 0.16913  0.87807  0.41847  Biso   1.000  V
  V4       1.0000 0.66913  0.37807  0.41847  Biso   1.000  V
  V5       1.0000 0.83087  0.87807  0.08153  Biso   1.000  V
  V6       1.0000 0.33087  0.37807  0.08153  Biso   1.000  V
  V7       1.0000 0.83087  0.12193  0.58153  Biso   1.000  V
  V8       1.0000 0.33087  0.62193  0.58153  Biso   1.000  V
  O1       1.0000 0.20096  0.08670  0.03880  Biso   1.000  O
  O2       1.0000 0.70096  0.58670  0.03880  Biso   1.000  O
  O3       1.0000 0.20096  0.91330  0.53880  Biso   1.000  O
  O4       1.0000 0.70096  0.41330  0.53880  Biso   1.000  O
  O5       1.0000 0.79904  0.91330  0.96120  Biso   1.000  O
  O6       1.0000 0.29904  0.41330  0.96120  Biso   1.000  O
  O7       1.0000 0.79904  0.08670  0.46120  Biso   1.000  O
  O8       1.0000 0.29904  0.58670  0.46120  Biso   1.000  O
  O9       1.0000 0.32983  0.15730  0.10410  Biso   1.000  O
  O10      1.0000 0.82983  0.65730  0.10410  Biso   1.000  O
  O11      1.0000 0.32983  0.84270  0.60410  Biso   1.000  O
  O12      1.0000 0.82983  0.34270  0.60410  Biso   1.000  O
  O13      1.0000 0.67017  0.84270  0.89590  Biso   1.000  O
  O14      1.0000 0.17017  0.34270  0.89590  Biso   1.000  O
  O15      1.0000 0.67017  0.15730  0.39590  Biso   1.000  O
  O16      1.0000 0.17017  0.65730  0.39590  Biso   1.000  O
  O17      1.0000 0.29224  0.84970  0.12299  Biso   1.000  O
  O18      1.0000 0.79224  0.34970  0.12299  Biso   1.000  O
  O19      1.0000 0.29224  0.15030  0.62299  Biso   1.000  O
  O20      1.0000 0.79224  0.65030  0.62299  Biso   1.000  O
  O21      1.0000 0.70776  0.15030  0.87701  Biso   1.000  O
  O22      1.0000 0.20776  0.65030  0.87701  Biso   1.000  O
  O23      1.0000 0.70776  0.84970  0.37701  Biso   1.000  O
  O24      1.0000 0.20776  0.34970  0.37701  Biso   1.000  O
  O25      1.0000 0.26510  0.08600  0.21870  Biso   1.000  O
  O26      1.0000 0.76510  0.58600  0.21870  Biso   1.000  O
  O27      1.0000 0.26510  0.91400  0.71870  Biso   1.000  O
  O28      1.0000 0.76510  0.41400  0.71870  Biso   1.000  O
  O29      1.0000 0.73490  0.91400  0.78130  Biso   1.000  O
  O30      1.0000 0.23490  0.41400  0.78130  Biso   1.000  O
  O31      1.0000 0.73490  0.08600  0.28130  Biso   1.000  O
  O32      1.0000 0.23490  0.58600  0.28130  Biso   1.000  O
  O33      1.0000 0.28941  0.47680  0.13080  Biso   1.000  O
  O34      1.0000 0.78941  0.97680  0.13080  Biso   1.000  O
  O35      1.0000 0.28941  0.52320  0.63080  Biso   1.000  O
  O36      1.0000 0.78941  0.02320  0.63080  Biso   1.000  O
  O37      1.0000 0.71059  0.52320  0.86920  Biso   1.000  O
  O38      1.0000 0.21059  0.02320  0.86920  Biso   1.000  O
  O39      1.0000 0.71059  0.47680  0.36920  Biso   1.000  O
  O40      1.0000 0.21059  0.97680  0.36920  Biso   1.000  O
  O41      1.0000 0.09359  0.06620  0.87700  Biso   1.000  O
  O42      1.0000 0.59359  0.56620  0.87700  Biso   1.000  O
  O43      1.0000 0.09359  0.93380  0.37700  Biso   1.000  O
  O44      1.0000 0.59359  0.43380  0.37700  Biso   1.000  O
  O45      1.0000 0.90641  0.93380  0.12300  Biso   1.000  O
  O46      1.0000 0.40641  0.43380  0.12300  Biso   1.000  O
  O47      1.0000 0.90641  0.06620  0.62300  Biso   1.000  O
  O48      1.0000 0.40641  0.56620  0.62300  Biso   1.000  O
  N1       1.0000 0.35320  0.74170  0.29760  Biso   1.000  N
  N2       1.0000 0.85320  0.24170  0.29760  Biso   1.000  N
  N3       1.0000 0.35320  0.25830  0.79760  Biso   1.000  N
  N4       1.0000 0.85320  0.75830  0.79760  Biso   1.000  N
  N5       1.0000 0.64680  0.25830  0.70240  Biso   1.000  N
  N6       1.0000 0.14680  0.75830  0.70240  Biso   1.000  N
  N7       1.0000 0.64680  0.74170  0.20240  Biso   1.000  N
  N8       1.0000 0.14680  0.24170  0.20240  Biso   1.000  N
  N9       1.0000 0.67124  0.77080  0.62030  Biso   1.000  N
  N10      1.0000 0.17124  0.27080  0.62030  Biso   1.000  N
  N11      1.0000 0.67124  0.22920  0.12030  Biso   1.000  N
  N12      1.0000 0.17124  0.72920  0.12030  Biso   1.000  N
  N13      1.0000 0.32876  0.22920  0.37970  Biso   1.000  N
  N14      1.0000 0.82876  0.72920  0.37970  Biso   1.000  N
  N15      1.0000 0.32876  0.77080  0.87970  Biso   1.000  N
  N16      1.0000 0.82876  0.27080  0.87970  Biso   1.000  N
  C1       1.0000 0.36330  0.81320  0.37590  Biso   1.000  C
  C2       1.0000 0.86330  0.31320  0.37590  Biso   1.000  C
  C3       1.0000 0.36330  0.18680  0.87590  Biso   1.000  C
  C4       1.0000 0.86330  0.68680  0.87590  Biso   1.000  C
  C5       1.0000 0.63670  0.18680  0.62410  Biso   1.000  C
  C6       1.0000 0.13670  0.68680  0.62410  Biso   1.000  C
  C7       1.0000 0.63670  0.81320  0.12410  Biso   1.000  C
  C8       1.0000 0.13670  0.31320  0.12410  Biso   1.000  C
  H1       1.0000 0.32810  0.86080  0.38570  Biso   1.000  H
  H2       1.0000 0.82810  0.36080  0.38570  Biso   1.000  H
  H3       1.0000 0.32810  0.13920  0.88570  Biso   1.000  H
  H4       1.0000 0.82810  0.63920  0.88570  Biso   1.000  H
  H5       1.0000 0.67190  0.13920  0.61430  Biso   1.000  H
  H6       1.0000 0.17190  0.63920  0.61430  Biso   1.000  H
  H7       1.0000 0.67190  0.86080  0.11430  Biso   1.000  H
  H8       1.0000 0.17190  0.36080  0.11430  Biso   1.000  H
  C9       1.0000 0.42420  0.81880  0.44260  Biso   1.000  C
  C10      1.0000 0.92420  0.31880  0.44260  Biso   1.000  C
  C11      1.0000 0.42420  0.18120  0.94260  Biso   1.000  C
  C12      1.0000 0.92420  0.68120  0.94260  Biso   1.000  C
  C13      1.0000 0.57580  0.18120  0.55740  Biso   1.000  C
  C14      1.0000 0.07580  0.68120  0.55740  Biso   1.000  C
  C15      1.0000 0.57580  0.81880  0.05740  Biso   1.000  C
  C16      1.0000 0.07580  0.31880  0.05740  Biso   1.000  C
  H9       1.0000 0.42930  0.86650  0.49670  Biso   1.000  H
  H10      1.0000 0.92930  0.36650  0.49670  Biso   1.000  H
  H11      1.0000 0.42930  0.13350  0.99670  Biso   1.000  H
  H12      1.0000 0.92930  0.63350  0.99670  Biso   1.000  H
  H13      1.0000 0.57070  0.13350  0.50330  Biso   1.000  H
  H14      1.0000 0.07070  0.63350  0.50330  Biso   1.000  H
  H15      1.0000 0.57070  0.86650  0.00330  Biso   1.000  H
  H16      1.0000 0.07070  0.36650  0.00330  Biso   1.000  H
  C17      1.0000 0.40420  0.67580  0.28350  Biso   1.000  C
  C18      1.0000 0.90420  0.17580  0.28350  Biso   1.000  C
  C19      1.0000 0.40420  0.32420  0.78350  Biso   1.000  C
  C20      1.0000 0.90420  0.82420  0.78350  Biso   1.000  C
  C21      1.0000 0.59580  0.32420  0.71650  Biso   1.000  C
  C22      1.0000 0.09580  0.82420  0.71650  Biso   1.000  C
  C23      1.0000 0.59580  0.67580  0.21650  Biso   1.000  C
  C24      1.0000 0.09580  0.17580  0.21650  Biso   1.000  C
  H17      1.0000 0.39740  0.62580  0.22940  Biso   1.000  H
  H18      1.0000 0.89740  0.12580  0.22940  Biso   1.000  H
  H19      1.0000 0.39740  0.37420  0.72940  Biso   1.000  H
  H20      1.0000 0.89740  0.87420  0.72940  Biso   1.000  H
  H21      1.0000 0.60260  0.37420  0.77060  Biso   1.000  H
  H22      1.0000 0.10260  0.87420  0.77060  Biso   1.000  H
  H23      1.0000 0.60260  0.62580  0.27060  Biso   1.000  H
  H24      1.0000 0.10260  0.12580  0.27060  Biso   1.000  H
  C25      1.0000 0.46670  0.67880  0.34590  Biso   1.000  C
  C26      1.0000 0.96670  0.17880  0.34590  Biso   1.000  C
  C27      1.0000 0.46670  0.32120  0.84590  Biso   1.000  C
  C28      1.0000 0.96670  0.82120  0.84590  Biso   1.000  C
  C29      1.0000 0.53330  0.32120  0.65410  Biso   1.000  C
  C30      1.0000 0.03330  0.82120  0.65410  Biso   1.000  C
  C31      1.0000 0.53330  0.67880  0.15410  Biso   1.000  C
  C32      1.0000 0.03330  0.17880  0.15410  Biso   1.000  C
  H25      1.0000 0.50120  0.63240  0.33350  Biso   1.000  H
  H26      1.0000 0.00120  0.13240  0.33350  Biso   1.000  H
  H27      1.0000 0.50120  0.36760  0.83350  Biso   1.000  H
  H28      1.0000 0.00120  0.86760  0.83350  Biso   1.000  H
  H29      1.0000 0.49880  0.36760  0.66650  Biso   1.000  H
  H30      1.0000 0.99880  0.86760  0.66650  Biso   1.000  H
  H31      1.0000 0.49880  0.63240  0.16650  Biso   1.000  H
  H32      1.0000 0.99880  0.13240  0.16650  Biso   1.000  H
  C33      1.0000 0.47780  0.75190  0.42750  Biso   1.000  C
  C34      1.0000 0.97780  0.25190  0.42750  Biso   1.000  C
  C35      1.0000 0.47780  0.24810  0.92750  Biso   1.000  C
  C36      1.0000 0.97780  0.74810  0.92750  Biso   1.000  C
  C37      1.0000 0.52220  0.24810  0.57250  Biso   1.000  C
  C38      1.0000 0.02220  0.74810  0.57250  Biso   1.000  C
  C39      1.0000 0.52220  0.75190  0.07250  Biso   1.000  C
  C40      1.0000 0.02220  0.25190  0.07250  Biso   1.000  C
  C41      1.0000 0.54460  0.75850  0.49460  Biso   1.000  C
  C42      1.0000 0.04460  0.25850  0.49460  Biso   1.000  C
  C43      1.0000 0.54460  0.24150  0.99460  Biso   1.000  C
  C44      1.0000 0.04460  0.74150  0.99460  Biso   1.000  C
  C45      1.0000 0.45540  0.24150  0.50540  Biso   1.000  C
  C46      1.0000 0.95540  0.74150  0.50540  Biso   1.000  C
  C47      1.0000 0.45540  0.75850  0.00540  Biso   1.000  C
  C48      1.0000 0.95540  0.25850  0.00540  Biso   1.000  C
  C49      1.0000 0.55660  0.73280  0.58550  Biso   1.000  C
  C50      1.0000 0.05660  0.23280  0.58550  Biso   1.000  C
  C51      1.0000 0.55660  0.26720  0.08550  Biso   1.000  C
  C52      1.0000 0.05660  0.76720  0.08550  Biso   1.000  C
  C53      1.0000 0.44340  0.26720  0.41450  Biso   1.000  C
  C54      1.0000 0.94340  0.76720  0.41450  Biso   1.000  C
  C55      1.0000 0.44340  0.73280  0.91450  Biso   1.000  C
  C56      1.0000 0.94340  0.23280  0.91450  Biso   1.000  C
  H33      1.0000 0.52240  0.71090  0.60500  Biso   1.000  H
  H34      1.0000 0.02240  0.21090  0.60500  Biso   1.000  H
  H35      1.0000 0.52240  0.28910  0.10500  Biso   1.000  H
  H36      1.0000 0.02240  0.78910  0.10500  Biso   1.000  H
  H37      1.0000 0.47760  0.28910  0.39500  Biso   1.000  H
  H38      1.0000 0.97760  0.78910  0.39500  Biso   1.000  H
  H39      1.0000 0.47760  0.71090  0.89500  Biso   1.000  H
  H40      1.0000 0.97760  0.21090  0.89500  Biso   1.000  H
  C57      1.0000 0.61990  0.74080  0.64490  Biso   1.000  C
  C58      1.0000 0.11990  0.24080  0.64490  Biso   1.000  C
  C59      1.0000 0.61990  0.25920  0.14490  Biso   1.000  C
  C60      1.0000 0.11990  0.75920  0.14490  Biso   1.000  C
  C61      1.0000 0.38010  0.25920  0.35510  Biso   1.000  C
  C62      1.0000 0.88010  0.75920  0.35510  Biso   1.000  C
  C63      1.0000 0.38010  0.74080  0.85510  Biso   1.000  C
  C64      1.0000 0.88010  0.24080  0.85510  Biso   1.000  C
  H41      1.0000 0.62750  0.72480  0.70470  Biso   1.000  H
  H42      1.0000 0.12750  0.22480  0.70470  Biso   1.000  H
  H43      1.0000 0.62750  0.27520  0.20470  Biso   1.000  H
  H44      1.0000 0.12750  0.77520  0.20470  Biso   1.000  H
  H45      1.0000 0.37250  0.27520  0.29530  Biso   1.000  H
  H46      1.0000 0.87250  0.77520  0.29530  Biso   1.000  H
  H47      1.0000 0.37250  0.72480  0.79530  Biso   1.000  H
  H48      1.0000 0.87250  0.22480  0.79530  Biso   1.000  H
  C65      1.0000 0.59760  0.79040  0.47040  Biso   1.000  C
  C66      1.0000 0.09760  0.29040  0.47040  Biso   1.000  C
  C67      1.0000 0.59760  0.20960  0.97040  Biso   1.000  C
  C68      1.0000 0.09760  0.70960  0.97040  Biso   1.000  C
  C69      1.0000 0.40240  0.20960  0.52960  Biso   1.000  C
  C70      1.0000 0.90240  0.70960  0.52960  Biso   1.000  C
  C71      1.0000 0.40240  0.79040  0.02960  Biso   1.000  C
  C72      1.0000 0.90240  0.29040  0.02960  Biso   1.000  C
  H49      1.0000 0.59160  0.80860  0.41120  Biso   1.000  H
  H50      1.0000 0.09160  0.30860  0.41120  Biso   1.000  H
  H51      1.0000 0.59160  0.19140  0.91120  Biso   1.000  H
  H52      1.0000 0.09160  0.69140  0.91120  Biso   1.000  H
  H53      1.0000 0.40840  0.19140  0.58880  Biso   1.000  H
  H54      1.0000 0.90840  0.69140  0.58880  Biso   1.000  H
  H55      1.0000 0.40840  0.80860  0.08880  Biso   1.000  H
  H56      1.0000 0.90840  0.30860  0.08880  Biso   1.000  H
  C73      1.0000 0.65990  0.79520  0.53420  Biso   1.000  C
  C74      1.0000 0.15990  0.29520  0.53420  Biso   1.000  C
  C75      1.0000 0.65990  0.20480  0.03420  Biso   1.000  C
  C76      1.0000 0.15990  0.70480  0.03420  Biso   1.000  C
  C77      1.0000 0.34010  0.20480  0.46580  Biso   1.000  C
  C78      1.0000 0.84010  0.70480  0.46580  Biso   1.000  C
  C79      1.0000 0.34010  0.79520  0.96580  Biso   1.000  C
  C80      1.0000 0.84010  0.29520  0.96580  Biso   1.000  C
  H57      1.0000 0.69510  0.81620  0.51650  Biso   1.000  H
  H58      1.0000 0.19510  0.31620  0.51650  Biso   1.000  H
  H59      1.0000 0.69510  0.18380  0.01650  Biso   1.000  H
  H60      1.0000 0.19510  0.68380  0.01650  Biso   1.000  H
  H61      1.0000 0.30490  0.18380  0.48350  Biso   1.000  H
  H62      1.0000 0.80490  0.68380  0.48350  Biso   1.000  H
  H63      1.0000 0.30490  0.81620  0.98350  Biso   1.000  H
  H64      1.0000 0.80490  0.31620  0.98350  Biso   1.000  H
