data_image0
_cell_length_a       9.826
_cell_length_b       10.891
_cell_length_c       17.11
_cell_angle_alpha    90
_cell_angle_beta     106.61
_cell_angle_gamma    90

_symmetry_space_group_name_H-M    "P 1"
_symmetry_int_tables_number       1

loop_
  _symmetry_equiv_pos_as_xyz
  'x, y, z'

loop_
  _atom_site_label
  _atom_site_occupancy
  _atom_site_fract_x
  _atom_site_fract_y
  _atom_site_fract_z
  _atom_site_thermal_displace_type
  _atom_site_B_iso_or_equiv
  _atom_site_type_symbol
  Cu1      1.0000 0.00000  0.50000  0.00000  Biso   1.000  Cu
  Cu2      1.0000 0.00000  0.00000  0.50000  Biso   1.000  Cu
  O1       1.0000 0.80960  0.53890  0.06136  Biso   1.000  O
  O2       1.0000 0.19040  0.03890  0.43864  Biso   1.000  O
  O3       1.0000 0.19040  0.46110  0.93864  Biso   1.000  O
  O4       1.0000 0.80960  0.96110  0.56136  Biso   1.000  O
  N1       1.0000 0.13630  0.47750  0.11248  Biso   1.000  N
  N2       1.0000 0.86370  0.97750  0.38752  Biso   1.000  N
  N3       1.0000 0.86370  0.52250  0.88752  Biso   1.000  N
  N4       1.0000 0.13630  0.02250  0.61248  Biso   1.000  N
  N5       1.0000 0.23490  0.46680  0.24528  Biso   1.000  N
  N6       1.0000 0.76510  0.96680  0.25472  Biso   1.000  N
  N7       1.0000 0.76510  0.53320  0.75472  Biso   1.000  N
  N8       1.0000 0.23490  0.03320  0.74528  Biso   1.000  N
  N9       1.0000 0.04410  0.81970  0.50770  Biso   1.000  N
  N10      1.0000 0.95590  0.31970  0.99230  Biso   1.000  N
  N11      1.0000 0.95590  0.18030  0.49230  Biso   1.000  N
  N12      1.0000 0.04410  0.68030  0.00770  Biso   1.000  N
  N13      1.0000 0.12870  0.64070  0.48330  Biso   1.000  N
  N14      1.0000 0.87130  0.14070  0.01670  Biso   1.000  N
  N15      1.0000 0.87130  0.35930  0.51670  Biso   1.000  N
  N16      1.0000 0.12870  0.85930  0.98330  Biso   1.000  N
  N17      1.0000 0.60230  0.13870  0.55201  Biso   1.000  N
  N18      1.0000 0.39770  0.63870  0.94799  Biso   1.000  N
  N19      1.0000 0.39770  0.86130  0.44799  Biso   1.000  N
  N20      1.0000 0.60230  0.36130  0.05201  Biso   1.000  N
  N21      1.0000 0.45290  0.29500  0.51404  Biso   1.000  N
  N22      1.0000 0.54710  0.79500  0.98596  Biso   1.000  N
  N23      1.0000 0.54710  0.70500  0.48596  Biso   1.000  N
  N24      1.0000 0.45290  0.20500  0.01404  Biso   1.000  N
  C1       1.0000 0.11240  0.47880  0.18486  Biso   1.000  C
  C2       1.0000 0.88760  0.97880  0.31514  Biso   1.000  C
  C3       1.0000 0.88760  0.52120  0.81514  Biso   1.000  C
  C4       1.0000 0.11240  0.02120  0.68486  Biso   1.000  C
  C5       1.0000 0.28070  0.46380  0.12810  Biso   1.000  C
  C6       1.0000 0.71930  0.96380  0.37190  Biso   1.000  C
  C7       1.0000 0.71930  0.53620  0.87190  Biso   1.000  C
  C8       1.0000 0.28070  0.03620  0.62810  Biso   1.000  C
  C9       1.0000 0.34310  0.45720  0.20900  Biso   1.000  C
  C10      1.0000 0.65690  0.95720  0.29100  Biso   1.000  C
  C11      1.0000 0.65690  0.54280  0.79100  Biso   1.000  C
  C12      1.0000 0.34310  0.04280  0.70900  Biso   1.000  C
  C13      1.0000 0.09360  0.75610  0.45626  Biso   1.000  C
  C14      1.0000 0.90640  0.25610  0.04374  Biso   1.000  C
  C15      1.0000 0.90640  0.24390  0.54374  Biso   1.000  C
  C16      1.0000 0.09360  0.74390  0.95626  Biso   1.000  C
  C17      1.0000 0.04640  0.74010  0.57100  Biso   1.000  C
  C18      1.0000 0.95360  0.24010  0.92900  Biso   1.000  C
  C19      1.0000 0.95360  0.25990  0.42900  Biso   1.000  C
  C20      1.0000 0.04640  0.75990  0.07100  Biso   1.000  C
  C21      1.0000 0.09820  0.62970  0.55729  Biso   1.000  C
  C22      1.0000 0.90180  0.12970  0.94271  Biso   1.000  C
  C23      1.0000 0.90180  0.37030  0.44271  Biso   1.000  C
  C24      1.0000 0.09820  0.87030  0.05729  Biso   1.000  C
  C25      1.0000 0.52180  0.20050  0.49050  Biso   1.000  C
  C26      1.0000 0.47820  0.70050  0.00950  Biso   1.000  C
  C27      1.0000 0.47820  0.79950  0.50950  Biso   1.000  C
  C28      1.0000 0.52180  0.29950  0.99050  Biso   1.000  C
  C29      1.0000 0.58490  0.19600  0.61990  Biso   1.000  C
  C30      1.0000 0.41510  0.69600  0.88010  Biso   1.000  C
  C31      1.0000 0.41510  0.80400  0.38010  Biso   1.000  C
  C32      1.0000 0.58490  0.30400  0.11990  Biso   1.000  C
  C33      1.0000 0.49310  0.29100  0.59840  Biso   1.000  C
  C34      1.0000 0.50690  0.79100  0.90160  Biso   1.000  C
  C35      1.0000 0.50690  0.70900  0.40160  Biso   1.000  C
  C36      1.0000 0.49310  0.20900  0.09840  Biso   1.000  C
  C37      1.0000 0.25100  0.46610  0.33163  Biso   1.000  C
  C38      1.0000 0.74900  0.96610  0.16837  Biso   1.000  C
  C39      1.0000 0.74900  0.53390  0.66837  Biso   1.000  C
  C40      1.0000 0.25100  0.03390  0.83163  Biso   1.000  C
  C41      1.0000 0.17650  0.55160  0.36345  Biso   1.000  C
  C42      1.0000 0.82350  0.05160  0.13655  Biso   1.000  C
  C43      1.0000 0.82350  0.44840  0.63655  Biso   1.000  C
  C44      1.0000 0.17650  0.94840  0.86345  Biso   1.000  C
  C45      1.0000 0.19780  0.55090  0.44719  Biso   1.000  C
  C46      1.0000 0.80220  0.05090  0.05281  Biso   1.000  C
  C47      1.0000 0.80220  0.44910  0.55281  Biso   1.000  C
  C48      1.0000 0.19780  0.94910  0.94719  Biso   1.000  C
  C49      1.0000 0.28850  0.46710  0.49726  Biso   1.000  C
  C50      1.0000 0.71150  0.96710  0.00274  Biso   1.000  C
  C51      1.0000 0.71150  0.53290  0.50274  Biso   1.000  C
  C52      1.0000 0.28850  0.03290  0.99726  Biso   1.000  C
  C53      1.0000 0.35990  0.38200  0.46309  Biso   1.000  C
  C54      1.0000 0.64010  0.88200  0.03691  Biso   1.000  C
  C55      1.0000 0.64010  0.61800  0.53691  Biso   1.000  C
  C56      1.0000 0.35990  0.11800  0.96309  Biso   1.000  C
  C57      1.0000 0.34260  0.38230  0.37956  Biso   1.000  C
  C58      1.0000 0.65740  0.88230  0.12044  Biso   1.000  C
  C59      1.0000 0.65740  0.61770  0.62044  Biso   1.000  C
  C60      1.0000 0.34260  0.11770  0.87956  Biso   1.000  C
  H1       1.0000 0.01950  0.48710  0.19356  Biso   1.000  H
  H2       1.0000 0.98050  0.98710  0.30644  Biso   1.000  H
  H3       1.0000 0.98050  0.51290  0.80644  Biso   1.000  H
  H4       1.0000 0.01950  0.01290  0.69356  Biso   1.000  H
  H5       1.0000 0.32990  0.45880  0.08660  Biso   1.000  H
  H6       1.0000 0.67010  0.95880  0.41340  Biso   1.000  H
  H7       1.0000 0.67010  0.54120  0.91340  Biso   1.000  H
  H8       1.0000 0.32990  0.04120  0.58660  Biso   1.000  H
  H9       1.0000 0.44350  0.44810  0.23660  Biso   1.000  H
  H10      1.0000 0.55650  0.94810  0.26340  Biso   1.000  H
  H11      1.0000 0.55650  0.55190  0.76340  Biso   1.000  H
  H12      1.0000 0.44350  0.05190  0.73660  Biso   1.000  H
  H13      1.0000 0.10380  0.78810  0.40534  Biso   1.000  H
  H14      1.0000 0.89620  0.28810  0.09466  Biso   1.000  H
  H15      1.0000 0.89620  0.21190  0.59466  Biso   1.000  H
  H16      1.0000 0.10380  0.71190  0.90534  Biso   1.000  H
  H17      1.0000 0.01500  0.76060  0.61830  Biso   1.000  H
  H18      1.0000 0.98500  0.26060  0.88170  Biso   1.000  H
  H19      1.0000 0.98500  0.23940  0.38170  Biso   1.000  H
  H20      1.0000 0.01500  0.73940  0.11830  Biso   1.000  H
  H21      1.0000 0.11190  0.55760  0.59196  Biso   1.000  H
  H22      1.0000 0.88810  0.05760  0.90804  Biso   1.000  H
  H23      1.0000 0.88810  0.44240  0.40804  Biso   1.000  H
  H24      1.0000 0.11190  0.94240  0.09196  Biso   1.000  H
  H25      1.0000 0.51280  0.18100  0.43390  Biso   1.000  H
  H26      1.0000 0.48720  0.68100  0.06610  Biso   1.000  H
  H27      1.0000 0.48720  0.81900  0.56610  Biso   1.000  H
  H28      1.0000 0.51280  0.31900  0.93390  Biso   1.000  H
  H29      1.0000 0.63180  0.17140  0.67560  Biso   1.000  H
  H30      1.0000 0.36820  0.67140  0.82440  Biso   1.000  H
  H31      1.0000 0.36820  0.82860  0.32440  Biso   1.000  H
  H32      1.0000 0.63180  0.32860  0.17560  Biso   1.000  H
  H33      1.0000 0.46130  0.34550  0.63450  Biso   1.000  H
  H34      1.0000 0.53870  0.84550  0.86550  Biso   1.000  H
  H35      1.0000 0.53870  0.65450  0.36550  Biso   1.000  H
  H36      1.0000 0.46130  0.15450  0.13450  Biso   1.000  H
  H37      1.0000 0.11230  0.60980  0.32858  Biso   1.000  H
  H38      1.0000 0.88770  0.10980  0.17142  Biso   1.000  H
  H39      1.0000 0.88770  0.39020  0.67142  Biso   1.000  H
  H40      1.0000 0.11230  0.89020  0.82858  Biso   1.000  H
  H41      1.0000 0.30250  0.46840  0.55572  Biso   1.000  H
  H42      1.0000 0.69750  0.96840  0.94428  Biso   1.000  H
  H43      1.0000 0.69750  0.53160  0.44428  Biso   1.000  H
  H44      1.0000 0.30250  0.03160  0.05572  Biso   1.000  H
  H45      1.0000 0.39390  0.32420  0.35554  Biso   1.000  H
  H46      1.0000 0.60610  0.82420  0.14446  Biso   1.000  H
  H47      1.0000 0.60610  0.67580  0.64446  Biso   1.000  H
  H48      1.0000 0.39390  0.17580  0.85554  Biso   1.000  H
  H49      1.0000 0.73700  0.48900  0.05500  Biso   1.000  H
  H50      1.0000 0.26300  0.98900  0.44500  Biso   1.000  H
  H51      1.0000 0.26300  0.51100  0.94500  Biso   1.000  H
  H52      1.0000 0.73700  0.01100  0.55500  Biso   1.000  H
  H53      1.0000 0.81000  0.58800  0.09400  Biso   1.000  H
  H54      1.0000 0.19000  0.08800  0.40600  Biso   1.000  H
  H55      1.0000 0.19000  0.41200  0.90600  Biso   1.000  H
  H56      1.0000 0.81000  0.91200  0.59400  Biso   1.000  H
  Cl1      1.0000 0.21902  0.10359  0.23874  Biso   1.000  Cl
  Cl2      1.0000 0.78098  0.60359  0.26126  Biso   1.000  Cl
  Cl3      1.0000 0.78098  0.89641  0.76126  Biso   1.000  Cl
  Cl4      1.0000 0.21902  0.39641  0.73874  Biso   1.000  Cl
  O5       1.0000 0.18680  0.14110  0.15505  Biso   1.000  O
  O6       1.0000 0.81320  0.64110  0.34495  Biso   1.000  O
  O7       1.0000 0.81320  0.85890  0.84495  Biso   1.000  O
  O8       1.0000 0.18680  0.35890  0.65505  Biso   1.000  O
  O9       1.0000 0.36700  0.12120  0.27845  Biso   1.000  O
  O10      1.0000 0.63300  0.62120  0.22155  Biso   1.000  O
  O11      1.0000 0.63300  0.87880  0.72155  Biso   1.000  O
  O12      1.0000 0.36700  0.37880  0.77845  Biso   1.000  O
  O13      1.0000 0.18130  0.97610  0.24272  Biso   1.000  O
  O14      1.0000 0.81870  0.47610  0.25728  Biso   1.000  O
  O15      1.0000 0.81870  0.02390  0.75728  Biso   1.000  O
  O16      1.0000 0.18130  0.52390  0.74272  Biso   1.000  O
  O17      1.0000 0.13730  0.17710  0.27935  Biso   1.000  O
  O18      1.0000 0.86270  0.67710  0.22065  Biso   1.000  O
  O19      1.0000 0.86270  0.82290  0.72065  Biso   1.000  O
  O20      1.0000 0.13730  0.32290  0.77935  Biso   1.000  O
