data_image0
_cell_length_a       23.109
_cell_length_b       13.077
_cell_length_c       18.842
_cell_angle_alpha    90
_cell_angle_beta     114.05
_cell_angle_gamma    90

_symmetry_space_group_name_H-M    "P 1"
_symmetry_int_tables_number       1

loop_
  _symmetry_equiv_pos_as_xyz
  'x, y, z'

loop_
  _atom_site_label
  _atom_site_occupancy
  _atom_site_fract_x
  _atom_site_fract_y
  _atom_site_fract_z
  _atom_site_thermal_displace_type
  _atom_site_B_iso_or_equiv
  _atom_site_type_symbol
  Cu1      1.0000 0.00000  0.41827  0.25000  Biso   1.000  Cu
  Cu2      1.0000 0.50000  0.91827  0.25000  Biso   1.000  Cu
  Cu3      1.0000 0.00000  0.58173  0.75000  Biso   1.000  Cu
  Cu4      1.0000 0.50000  0.08173  0.75000  Biso   1.000  Cu
  Cu5      1.0000 0.00000  0.07758  0.75000  Biso   1.000  Cu
  Cu6      1.0000 0.50000  0.57758  0.75000  Biso   1.000  Cu
  Cu7      1.0000 0.00000  0.92242  0.25000  Biso   1.000  Cu
  Cu8      1.0000 0.50000  0.42242  0.25000  Biso   1.000  Cu
  S1       1.0000 0.12711  0.15580  0.73025  Biso   1.000  S
  S2       1.0000 0.87289  0.15580  0.76975  Biso   1.000  S
  S3       1.0000 0.62711  0.65580  0.73025  Biso   1.000  S
  S4       1.0000 0.37289  0.65580  0.76975  Biso   1.000  S
  S5       1.0000 0.87289  0.84420  0.26975  Biso   1.000  S
  S6       1.0000 0.12711  0.84420  0.23025  Biso   1.000  S
  S7       1.0000 0.37289  0.34420  0.26975  Biso   1.000  S
  S8       1.0000 0.62711  0.34420  0.23025  Biso   1.000  S
  S9       1.0000 0.13214  0.34407  0.39602  Biso   1.000  S
  S10      1.0000 0.86786  0.34407  0.10398  Biso   1.000  S
  S11      1.0000 0.63214  0.84407  0.39602  Biso   1.000  S
  S12      1.0000 0.36786  0.84407  0.10398  Biso   1.000  S
  S13      1.0000 0.86786  0.65593  0.60398  Biso   1.000  S
  S14      1.0000 0.13214  0.65593  0.89602  Biso   1.000  S
  S15      1.0000 0.36786  0.15593  0.60398  Biso   1.000  S
  S16      1.0000 0.63214  0.15593  0.89602  Biso   1.000  S
  O1       1.0000 0.00000  0.24360  0.75000  Biso   1.000  O
  O2       1.0000 0.50000  0.74360  0.75000  Biso   1.000  O
  O3       1.0000 0.00000  0.75640  0.25000  Biso   1.000  O
  O4       1.0000 0.50000  0.25640  0.25000  Biso   1.000  O
  O5       1.0000 0.00000  0.25180  0.25000  Biso   1.000  O
  O6       1.0000 0.50000  0.75180  0.25000  Biso   1.000  O
  O7       1.0000 0.00000  0.74820  0.75000  Biso   1.000  O
  O8       1.0000 0.50000  0.24820  0.75000  Biso   1.000  O
  O9       1.0000 0.09558  0.20740  0.65730  Biso   1.000  O
  O10      1.0000 0.90442  0.20740  0.84270  Biso   1.000  O
  O11      1.0000 0.59558  0.70740  0.65730  Biso   1.000  O
  O12      1.0000 0.40442  0.70740  0.84270  Biso   1.000  O
  O13      1.0000 0.90442  0.79260  0.34270  Biso   1.000  O
  O14      1.0000 0.09558  0.79260  0.15730  Biso   1.000  O
  O15      1.0000 0.40442  0.29260  0.34270  Biso   1.000  O
  O16      1.0000 0.59558  0.29260  0.15730  Biso   1.000  O
  O17      1.0000 0.15993  0.28380  0.35460  Biso   1.000  O
  O18      1.0000 0.84007  0.28380  0.14540  Biso   1.000  O
  O19      1.0000 0.65993  0.78380  0.35460  Biso   1.000  O
  O20      1.0000 0.34007  0.78380  0.14540  Biso   1.000  O
  O21      1.0000 0.84007  0.71620  0.64540  Biso   1.000  O
  O22      1.0000 0.15993  0.71620  0.85460  Biso   1.000  O
  O23      1.0000 0.34007  0.21620  0.64540  Biso   1.000  O
  O24      1.0000 0.65993  0.21620  0.85460  Biso   1.000  O
  O25      1.0000 0.10150  0.28900  0.43690  Biso   1.000  O
  O26      1.0000 0.89850  0.28900  0.06310  Biso   1.000  O
  O27      1.0000 0.60150  0.78900  0.43690  Biso   1.000  O
  O28      1.0000 0.39850  0.78900  0.06310  Biso   1.000  O
  O29      1.0000 0.89850  0.71100  0.56310  Biso   1.000  O
  O30      1.0000 0.10150  0.71100  0.93690  Biso   1.000  O
  O31      1.0000 0.39850  0.21100  0.56310  Biso   1.000  O
  O32      1.0000 0.60150  0.21100  0.93690  Biso   1.000  O
  O33      1.0000 0.15068  0.21910  0.79840  Biso   1.000  O
  O34      1.0000 0.84932  0.21910  0.70160  Biso   1.000  O
  O35      1.0000 0.65068  0.71910  0.79840  Biso   1.000  O
  O36      1.0000 0.34932  0.71910  0.70160  Biso   1.000  O
  O37      1.0000 0.84932  0.78090  0.20160  Biso   1.000  O
  O38      1.0000 0.15068  0.78090  0.29840  Biso   1.000  O
  O39      1.0000 0.34932  0.28090  0.20160  Biso   1.000  O
  O40      1.0000 0.65068  0.28090  0.29840  Biso   1.000  O
  N1       1.0000 0.04269  0.05920  0.86820  Biso   1.000  N
  N2       1.0000 0.95731  0.05920  0.63180  Biso   1.000  N
  N3       1.0000 0.54269  0.55920  0.86820  Biso   1.000  N
  N4       1.0000 0.45731  0.55920  0.63180  Biso   1.000  N
  N5       1.0000 0.95731  0.94080  0.13180  Biso   1.000  N
  N6       1.0000 0.04269  0.94080  0.36820  Biso   1.000  N
  N7       1.0000 0.45731  0.44080  0.13180  Biso   1.000  N
  N8       1.0000 0.54269  0.44080  0.36820  Biso   1.000  N
  N9       1.0000 0.04031  0.43760  0.17240  Biso   1.000  N
  N10      1.0000 0.95969  0.43760  0.32760  Biso   1.000  N
  N11      1.0000 0.54031  0.93760  0.17240  Biso   1.000  N
  N12      1.0000 0.45969  0.93760  0.32760  Biso   1.000  N
  N13      1.0000 0.95969  0.56240  0.82760  Biso   1.000  N
  N14      1.0000 0.04031  0.56240  0.67240  Biso   1.000  N
  N15      1.0000 0.45969  0.06240  0.82760  Biso   1.000  N
  N16      1.0000 0.54031  0.06240  0.67240  Biso   1.000  N
  N17      1.0000 0.06770  0.20510  0.04680  Biso   1.000  N
  N18      1.0000 0.93230  0.20510  0.45320  Biso   1.000  N
  N19      1.0000 0.56770  0.70510  0.04680  Biso   1.000  N
  N20      1.0000 0.43230  0.70510  0.45320  Biso   1.000  N
  N21      1.0000 0.93230  0.79490  0.95320  Biso   1.000  N
  N22      1.0000 0.06770  0.79490  0.54680  Biso   1.000  N
  N23      1.0000 0.43230  0.29490  0.95320  Biso   1.000  N
  N24      1.0000 0.56770  0.29490  0.54680  Biso   1.000  N
  N25      1.0000 0.06780  0.29250  0.01970  Biso   1.000  N
  N26      1.0000 0.93220  0.29250  0.48030  Biso   1.000  N
  N27      1.0000 0.56780  0.79250  0.01970  Biso   1.000  N
  N28      1.0000 0.43220  0.79250  0.48030  Biso   1.000  N
  N29      1.0000 0.93220  0.70750  0.98030  Biso   1.000  N
  N30      1.0000 0.06780  0.70750  0.51970  Biso   1.000  N
  N31      1.0000 0.43220  0.20750  0.98030  Biso   1.000  N
  N32      1.0000 0.56780  0.20750  0.51970  Biso   1.000  N
  N33      1.0000 0.08320  0.06430  0.74110  Biso   1.000  N
  N34      1.0000 0.91680  0.06430  0.75890  Biso   1.000  N
  N35      1.0000 0.58320  0.56430  0.74110  Biso   1.000  N
  N36      1.0000 0.41680  0.56430  0.75890  Biso   1.000  N
  N37      1.0000 0.91680  0.93570  0.25890  Biso   1.000  N
  N38      1.0000 0.08320  0.93570  0.24110  Biso   1.000  N
  N39      1.0000 0.41680  0.43570  0.25890  Biso   1.000  N
  N40      1.0000 0.58320  0.43570  0.24110  Biso   1.000  N
  N41      1.0000 0.08540  0.43220  0.34040  Biso   1.000  N
  N42      1.0000 0.91460  0.43220  0.15960  Biso   1.000  N
  N43      1.0000 0.58540  0.93220  0.34040  Biso   1.000  N
  N44      1.0000 0.41460  0.93220  0.15960  Biso   1.000  N
  N45      1.0000 0.91460  0.56780  0.65960  Biso   1.000  N
  N46      1.0000 0.08540  0.56780  0.84040  Biso   1.000  N
  N47      1.0000 0.41460  0.06780  0.65960  Biso   1.000  N
  N48      1.0000 0.58540  0.06780  0.84040  Biso   1.000  N
  C1       1.0000 0.05890  0.96510  0.89840  Biso   1.000  C
  C2       1.0000 0.94110  0.96510  0.60160  Biso   1.000  C
  C3       1.0000 0.55890  0.46510  0.89840  Biso   1.000  C
  C4       1.0000 0.44110  0.46510  0.60160  Biso   1.000  C
  C5       1.0000 0.94110  0.03490  0.10160  Biso   1.000  C
  C6       1.0000 0.05890  0.03490  0.39840  Biso   1.000  C
  C7       1.0000 0.44110  0.53490  0.10160  Biso   1.000  C
  C8       1.0000 0.55890  0.53490  0.39840  Biso   1.000  C
  H1       1.0000 0.05690  0.90990  0.86470  Biso   1.000  H
  H2       1.0000 0.94310  0.90990  0.63530  Biso   1.000  H
  H3       1.0000 0.55690  0.40990  0.86470  Biso   1.000  H
  H4       1.0000 0.44310  0.40990  0.63530  Biso   1.000  H
  H5       1.0000 0.94310  0.09010  0.13530  Biso   1.000  H
  H6       1.0000 0.05690  0.09010  0.36470  Biso   1.000  H
  H7       1.0000 0.44310  0.59010  0.13530  Biso   1.000  H
  H8       1.0000 0.55690  0.59010  0.36470  Biso   1.000  H
  C9       1.0000 0.05700  0.53110  0.15880  Biso   1.000  C
  C10      1.0000 0.94300  0.53110  0.34120  Biso   1.000  C
  C11      1.0000 0.55700  0.03110  0.15880  Biso   1.000  C
  C12      1.0000 0.44300  0.03110  0.34120  Biso   1.000  C
  C13      1.0000 0.94300  0.46890  0.84120  Biso   1.000  C
  C14      1.0000 0.05700  0.46890  0.65880  Biso   1.000  C
  C15      1.0000 0.44300  0.96890  0.84120  Biso   1.000  C
  C16      1.0000 0.55700  0.96890  0.65880  Biso   1.000  C
  H9       1.0000 0.05440  0.58630  0.19020  Biso   1.000  H
  H10      1.0000 0.94560  0.58630  0.30980  Biso   1.000  H
  H11      1.0000 0.55440  0.08630  0.19020  Biso   1.000  H
  H12      1.0000 0.44560  0.08630  0.30980  Biso   1.000  H
  H13      1.0000 0.94560  0.41370  0.80980  Biso   1.000  H
  H14      1.0000 0.05440  0.41370  0.69020  Biso   1.000  H
  H15      1.0000 0.44560  0.91370  0.80980  Biso   1.000  H
  H16      1.0000 0.55440  0.91370  0.69020  Biso   1.000  H
  C17      1.0000 0.07860  0.94610  0.97740  Biso   1.000  C
  C18      1.0000 0.92140  0.94610  0.52260  Biso   1.000  C
  C19      1.0000 0.57860  0.44610  0.97740  Biso   1.000  C
  C20      1.0000 0.42140  0.44610  0.52260  Biso   1.000  C
  C21      1.0000 0.92140  0.05390  0.02260  Biso   1.000  C
  C22      1.0000 0.07860  0.05390  0.47740  Biso   1.000  C
  C23      1.0000 0.42140  0.55390  0.02260  Biso   1.000  C
  C24      1.0000 0.57860  0.55390  0.47740  Biso   1.000  C
  H17      1.0000 0.08990  0.87900  0.99770  Biso   1.000  H
  H18      1.0000 0.91010  0.87900  0.50230  Biso   1.000  H
  H19      1.0000 0.58990  0.37900  0.99770  Biso   1.000  H
  H20      1.0000 0.41010  0.37900  0.50230  Biso   1.000  H
  H21      1.0000 0.91010  0.12100  0.00230  Biso   1.000  H
  H22      1.0000 0.08990  0.12100  0.49770  Biso   1.000  H
  H23      1.0000 0.41010  0.62100  0.00230  Biso   1.000  H
  H24      1.0000 0.58990  0.62100  0.49770  Biso   1.000  H
  C25      1.0000 0.07810  0.55120  0.10070  Biso   1.000  C
  C26      1.0000 0.92190  0.55120  0.39930  Biso   1.000  C
  C27      1.0000 0.57810  0.05120  0.10070  Biso   1.000  C
  C28      1.0000 0.42190  0.05120  0.39930  Biso   1.000  C
  C29      1.0000 0.92190  0.44880  0.89930  Biso   1.000  C
  C30      1.0000 0.07810  0.44880  0.60070  Biso   1.000  C
  C31      1.0000 0.42190  0.94880  0.89930  Biso   1.000  C
  C32      1.0000 0.57810  0.94880  0.60070  Biso   1.000  C
  H25      1.0000 0.08980  0.61850  0.09260  Biso   1.000  H
  H26      1.0000 0.91020  0.61850  0.40740  Biso   1.000  H
  H27      1.0000 0.58980  0.11850  0.09260  Biso   1.000  H
  H28      1.0000 0.41020  0.11850  0.40740  Biso   1.000  H
  H29      1.0000 0.91020  0.38150  0.90740  Biso   1.000  H
  H30      1.0000 0.08980  0.38150  0.59260  Biso   1.000  H
  H31      1.0000 0.41020  0.88150  0.90740  Biso   1.000  H
  H32      1.0000 0.58980  0.88150  0.59260  Biso   1.000  H
  C33      1.0000 0.08130  0.02600  0.02510  Biso   1.000  C
  C34      1.0000 0.91870  0.02600  0.47490  Biso   1.000  C
  C35      1.0000 0.58130  0.52600  0.02510  Biso   1.000  C
  C36      1.0000 0.41870  0.52600  0.47490  Biso   1.000  C
  C37      1.0000 0.91870  0.97400  0.97490  Biso   1.000  C
  C38      1.0000 0.08130  0.97400  0.52510  Biso   1.000  C
  C39      1.0000 0.41870  0.47400  0.97490  Biso   1.000  C
  C40      1.0000 0.58130  0.47400  0.52510  Biso   1.000  C
  H33      1.0000 0.09370  0.01470  0.07910  Biso   1.000  H
  H34      1.0000 0.90630  0.01470  0.42090  Biso   1.000  H
  H35      1.0000 0.59370  0.51470  0.07910  Biso   1.000  H
  H36      1.0000 0.40630  0.51470  0.42090  Biso   1.000  H
  H37      1.0000 0.90630  0.98530  0.92090  Biso   1.000  H
  H38      1.0000 0.09370  0.98530  0.57910  Biso   1.000  H
  H39      1.0000 0.40630  0.48530  0.92090  Biso   1.000  H
  H40      1.0000 0.59370  0.48530  0.57910  Biso   1.000  H
  C41      1.0000 0.08170  0.46990  0.05490  Biso   1.000  C
  C42      1.0000 0.91830  0.46990  0.44510  Biso   1.000  C
  C43      1.0000 0.58170  0.96990  0.05490  Biso   1.000  C
  C44      1.0000 0.41830  0.96990  0.44510  Biso   1.000  C
  C45      1.0000 0.91830  0.53010  0.94510  Biso   1.000  C
  C46      1.0000 0.08170  0.53010  0.55490  Biso   1.000  C
  C47      1.0000 0.41830  0.03010  0.94510  Biso   1.000  C
  C48      1.0000 0.58170  0.03010  0.55490  Biso   1.000  C
  H41      1.0000 0.09520  0.48070  0.01410  Biso   1.000  H
  H42      1.0000 0.90480  0.48070  0.48590  Biso   1.000  H
  H43      1.0000 0.59520  0.98070  0.01410  Biso   1.000  H
  H44      1.0000 0.40480  0.98070  0.48590  Biso   1.000  H
  H45      1.0000 0.90480  0.51930  0.98590  Biso   1.000  H
  H46      1.0000 0.09520  0.51930  0.51410  Biso   1.000  H
  H47      1.0000 0.40480  0.01930  0.98590  Biso   1.000  H
  H48      1.0000 0.59520  0.01930  0.51410  Biso   1.000  H
  C49      1.0000 0.06620  0.12410  0.99480  Biso   1.000  C
  C50      1.0000 0.93380  0.12410  0.50520  Biso   1.000  C
  C51      1.0000 0.56620  0.62410  0.99480  Biso   1.000  C
  C52      1.0000 0.43380  0.62410  0.50520  Biso   1.000  C
  C53      1.0000 0.93380  0.87590  0.00520  Biso   1.000  C
  C54      1.0000 0.06620  0.87590  0.49480  Biso   1.000  C
  C55      1.0000 0.43380  0.37590  0.00520  Biso   1.000  C
  C56      1.0000 0.56620  0.37590  0.49480  Biso   1.000  C
  C57      1.0000 0.06540  0.37320  0.07000  Biso   1.000  C
  C58      1.0000 0.93460  0.37320  0.43000  Biso   1.000  C
  C59      1.0000 0.56540  0.87320  0.07000  Biso   1.000  C
  C60      1.0000 0.43460  0.87320  0.43000  Biso   1.000  C
  C61      1.0000 0.93460  0.62680  0.93000  Biso   1.000  C
  C62      1.0000 0.06540  0.62680  0.57000  Biso   1.000  C
  C63      1.0000 0.43460  0.12680  0.93000  Biso   1.000  C
  C64      1.0000 0.56540  0.12680  0.57000  Biso   1.000  C
  C65      1.0000 0.04640  0.13740  0.91540  Biso   1.000  C
  C66      1.0000 0.95360  0.13740  0.58460  Biso   1.000  C
  C67      1.0000 0.54640  0.63740  0.91540  Biso   1.000  C
  C68      1.0000 0.45360  0.63740  0.58460  Biso   1.000  C
  C69      1.0000 0.95360  0.86260  0.08460  Biso   1.000  C
  C70      1.0000 0.04640  0.86260  0.41540  Biso   1.000  C
  C71      1.0000 0.45360  0.36260  0.08460  Biso   1.000  C
  C72      1.0000 0.54640  0.36260  0.41540  Biso   1.000  C
  H49      1.0000 0.03520  0.20390  0.89400  Biso   1.000  H
  H50      1.0000 0.96480  0.20390  0.60600  Biso   1.000  H
  H51      1.0000 0.53520  0.70390  0.89400  Biso   1.000  H
  H52      1.0000 0.46480  0.70390  0.60600  Biso   1.000  H
  H53      1.0000 0.96480  0.79610  0.10600  Biso   1.000  H
  H54      1.0000 0.03520  0.79610  0.39400  Biso   1.000  H
  H55      1.0000 0.46480  0.29610  0.10600  Biso   1.000  H
  H56      1.0000 0.53520  0.29610  0.39400  Biso   1.000  H
  C73      1.0000 0.04420  0.35960  0.12880  Biso   1.000  C
  C74      1.0000 0.95580  0.35960  0.37120  Biso   1.000  C
  C75      1.0000 0.54420  0.85960  0.12880  Biso   1.000  C
  C76      1.0000 0.45580  0.85960  0.37120  Biso   1.000  C
  C77      1.0000 0.95580  0.64040  0.87120  Biso   1.000  C
  C78      1.0000 0.04420  0.64040  0.62880  Biso   1.000  C
  C79      1.0000 0.45580  0.14040  0.87120  Biso   1.000  C
  C80      1.0000 0.54420  0.14040  0.62880  Biso   1.000  C
  H57      1.0000 0.03210  0.29310  0.13800  Biso   1.000  H
  H58      1.0000 0.96790  0.29310  0.36200  Biso   1.000  H
  H59      1.0000 0.53210  0.79310  0.13800  Biso   1.000  H
  H60      1.0000 0.46790  0.79310  0.36200  Biso   1.000  H
  H61      1.0000 0.96790  0.70690  0.86200  Biso   1.000  H
  H62      1.0000 0.03210  0.70690  0.63800  Biso   1.000  H
  H63      1.0000 0.46790  0.20690  0.86200  Biso   1.000  H
  H64      1.0000 0.53210  0.20690  0.63800  Biso   1.000  H
  C81      1.0000 0.10600  0.97000  0.73790  Biso   1.000  C
  C82      1.0000 0.89400  0.97000  0.76210  Biso   1.000  C
  C83      1.0000 0.60600  0.47000  0.73790  Biso   1.000  C
  C84      1.0000 0.39400  0.47000  0.76210  Biso   1.000  C
  C85      1.0000 0.89400  0.03000  0.26210  Biso   1.000  C
  C86      1.0000 0.10600  0.03000  0.23790  Biso   1.000  C
  C87      1.0000 0.39400  0.53000  0.26210  Biso   1.000  C
  C88      1.0000 0.60600  0.53000  0.23790  Biso   1.000  C
  C89      1.0000 0.10550  0.52800  0.36520  Biso   1.000  C
  C90      1.0000 0.89450  0.52800  0.13480  Biso   1.000  C
  C91      1.0000 0.60550  0.02800  0.36520  Biso   1.000  C
  C92      1.0000 0.39450  0.02800  0.13480  Biso   1.000  C
  C93      1.0000 0.89450  0.47200  0.63480  Biso   1.000  C
  C94      1.0000 0.10550  0.47200  0.86520  Biso   1.000  C
  C95      1.0000 0.39450  0.97200  0.63480  Biso   1.000  C
  C96      1.0000 0.60550  0.97200  0.86520  Biso   1.000  C
  C97      1.0000 0.16860  0.97480  0.73050  Biso   1.000  C
  C98      1.0000 0.83140  0.97480  0.76950  Biso   1.000  C
  C99      1.0000 0.66860  0.47480  0.73050  Biso   1.000  C
  C100     1.0000 0.33140  0.47480  0.76950  Biso   1.000  C
  C101     1.0000 0.83140  0.02520  0.26950  Biso   1.000  C
  C102     1.0000 0.16860  0.02520  0.23050  Biso   1.000  C
  C103     1.0000 0.33140  0.52520  0.26950  Biso   1.000  C
  C104     1.0000 0.66860  0.52520  0.23050  Biso   1.000  C
  C105     1.0000 0.16720  0.52810  0.43460  Biso   1.000  C
  C106     1.0000 0.83280  0.52810  0.06540  Biso   1.000  C
  C107     1.0000 0.66720  0.02810  0.43460  Biso   1.000  C
  C108     1.0000 0.33280  0.02810  0.06540  Biso   1.000  C
  C109     1.0000 0.83280  0.47190  0.56540  Biso   1.000  C
  C110     1.0000 0.16720  0.47190  0.93460  Biso   1.000  C
  C111     1.0000 0.33280  0.97190  0.56540  Biso   1.000  C
  C112     1.0000 0.66720  0.97190  0.93460  Biso   1.000  C
  C113     1.0000 0.18610  0.07410  0.72620  Biso   1.000  C
  C114     1.0000 0.81390  0.07410  0.77380  Biso   1.000  C
  C115     1.0000 0.68610  0.57410  0.72620  Biso   1.000  C
  C116     1.0000 0.31390  0.57410  0.77380  Biso   1.000  C
  C117     1.0000 0.81390  0.92590  0.27380  Biso   1.000  C
  C118     1.0000 0.18610  0.92590  0.22620  Biso   1.000  C
  C119     1.0000 0.31390  0.42590  0.27380  Biso   1.000  C
  C120     1.0000 0.68610  0.42590  0.22620  Biso   1.000  C
  C121     1.0000 0.18750  0.43060  0.45870  Biso   1.000  C
  C122     1.0000 0.81250  0.43060  0.04130  Biso   1.000  C
  C123     1.0000 0.68750  0.93060  0.45870  Biso   1.000  C
  C124     1.0000 0.31250  0.93060  0.04130  Biso   1.000  C
  C125     1.0000 0.81250  0.56940  0.54130  Biso   1.000  C
  C126     1.0000 0.18750  0.56940  0.95870  Biso   1.000  C
  C127     1.0000 0.31250  0.06940  0.54130  Biso   1.000  C
  C128     1.0000 0.68750  0.06940  0.95870  Biso   1.000  C
  C129     1.0000 0.24190  0.09930  0.71870  Biso   1.000  C
  C130     1.0000 0.75810  0.09930  0.78130  Biso   1.000  C
  C131     1.0000 0.74190  0.59930  0.71870  Biso   1.000  C
  C132     1.0000 0.25810  0.59930  0.78130  Biso   1.000  C
  C133     1.0000 0.75810  0.90070  0.28130  Biso   1.000  C
  C134     1.0000 0.24190  0.90070  0.21870  Biso   1.000  C
  C135     1.0000 0.25810  0.40070  0.28130  Biso   1.000  C
  C136     1.0000 0.74190  0.40070  0.21870  Biso   1.000  C
  H65      1.0000 0.25340  0.16810  0.71480  Biso   1.000  H
  H66      1.0000 0.74660  0.16810  0.78520  Biso   1.000  H
  H67      1.0000 0.75340  0.66810  0.71480  Biso   1.000  H
  H68      1.0000 0.24660  0.66810  0.78520  Biso   1.000  H
  H69      1.0000 0.74660  0.83190  0.28520  Biso   1.000  H
  H70      1.0000 0.25340  0.83190  0.21480  Biso   1.000  H
  H71      1.0000 0.24660  0.33190  0.28520  Biso   1.000  H
  H72      1.0000 0.75340  0.33190  0.21480  Biso   1.000  H
  C137     1.0000 0.24350  0.41070  0.52340  Biso   1.000  C
  C138     1.0000 0.75650  0.41070  0.97660  Biso   1.000  C
  C139     1.0000 0.74350  0.91070  0.52340  Biso   1.000  C
  C140     1.0000 0.25650  0.91070  0.97660  Biso   1.000  C
  C141     1.0000 0.75650  0.58930  0.47660  Biso   1.000  C
  C142     1.0000 0.24350  0.58930  0.02340  Biso   1.000  C
  C143     1.0000 0.25650  0.08930  0.47660  Biso   1.000  C
  C144     1.0000 0.74350  0.08930  0.02340  Biso   1.000  C
  H73      1.0000 0.25740  0.34290  0.53950  Biso   1.000  H
  H74      1.0000 0.74260  0.34290  0.96050  Biso   1.000  H
  H75      1.0000 0.75740  0.84290  0.53950  Biso   1.000  H
  H76      1.0000 0.24260  0.84290  0.96050  Biso   1.000  H
  H77      1.0000 0.74260  0.65710  0.46050  Biso   1.000  H
  H78      1.0000 0.25740  0.65710  0.03950  Biso   1.000  H
  H79      1.0000 0.24260  0.15710  0.46050  Biso   1.000  H
  H80      1.0000 0.75740  0.15710  0.03950  Biso   1.000  H
  C145     1.0000 0.27950  0.01760  0.71720  Biso   1.000  C
  C146     1.0000 0.72050  0.01760  0.78280  Biso   1.000  C
  C147     1.0000 0.77950  0.51760  0.71720  Biso   1.000  C
  C148     1.0000 0.22050  0.51760  0.78280  Biso   1.000  C
  C149     1.0000 0.72050  0.98240  0.28280  Biso   1.000  C
  C150     1.0000 0.27950  0.98240  0.21720  Biso   1.000  C
  C151     1.0000 0.22050  0.48240  0.28280  Biso   1.000  C
  C152     1.0000 0.77950  0.48240  0.21720  Biso   1.000  C
  H81      1.0000 0.31860  0.03080  0.71350  Biso   1.000  H
  H82      1.0000 0.68140  0.03080  0.78650  Biso   1.000  H
  H83      1.0000 0.81860  0.53080  0.71350  Biso   1.000  H
  H84      1.0000 0.18140  0.53080  0.78650  Biso   1.000  H
  H85      1.0000 0.68140  0.96920  0.28650  Biso   1.000  H
  H86      1.0000 0.31860  0.96920  0.21350  Biso   1.000  H
  H87      1.0000 0.18140  0.46920  0.28650  Biso   1.000  H
  H88      1.0000 0.81860  0.46920  0.21350  Biso   1.000  H
  C153     1.0000 0.27810  0.49530  0.56330  Biso   1.000  C
  C154     1.0000 0.72190  0.49530  0.93670  Biso   1.000  C
  C155     1.0000 0.77810  0.99530  0.56330  Biso   1.000  C
  C156     1.0000 0.22190  0.99530  0.93670  Biso   1.000  C
  C157     1.0000 0.72190  0.50470  0.43670  Biso   1.000  C
  C158     1.0000 0.27810  0.50470  0.06330  Biso   1.000  C
  C159     1.0000 0.22190  0.00470  0.43670  Biso   1.000  C
  C160     1.0000 0.77810  0.00470  0.06330  Biso   1.000  C
  H89      1.0000 0.31660  0.48530  0.60790  Biso   1.000  H
  H90      1.0000 0.68340  0.48530  0.89210  Biso   1.000  H
  H91      1.0000 0.81660  0.98530  0.60790  Biso   1.000  H
  H92      1.0000 0.18340  0.98530  0.89210  Biso   1.000  H
  H93      1.0000 0.68340  0.51470  0.39210  Biso   1.000  H
  H94      1.0000 0.31660  0.51470  0.10790  Biso   1.000  H
  H95      1.0000 0.18340  0.01470  0.39210  Biso   1.000  H
  H96      1.0000 0.81660  0.01470  0.10790  Biso   1.000  H
  C161     1.0000 0.26190  0.91750  0.72090  Biso   1.000  C
  C162     1.0000 0.73810  0.91750  0.77910  Biso   1.000  C
  C163     1.0000 0.76190  0.41750  0.72090  Biso   1.000  C
  C164     1.0000 0.23810  0.41750  0.77910  Biso   1.000  C
  C165     1.0000 0.73810  0.08250  0.27910  Biso   1.000  C
  C166     1.0000 0.26190  0.08250  0.22090  Biso   1.000  C
  C167     1.0000 0.23810  0.58250  0.27910  Biso   1.000  C
  C168     1.0000 0.76190  0.58250  0.22090  Biso   1.000  C
  H97      1.0000 0.28880  0.86380  0.71860  Biso   1.000  H
  H98      1.0000 0.71120  0.86380  0.78140  Biso   1.000  H
  H99      1.0000 0.78880  0.36380  0.71860  Biso   1.000  H
  H100     1.0000 0.21120  0.36380  0.78140  Biso   1.000  H
  H101     1.0000 0.71120  0.13620  0.28140  Biso   1.000  H
  H102     1.0000 0.28880  0.13620  0.21860  Biso   1.000  H
  H103     1.0000 0.21120  0.63620  0.28140  Biso   1.000  H
  H104     1.0000 0.78880  0.63620  0.21860  Biso   1.000  H
  C169     1.0000 0.25730  0.59370  0.53890  Biso   1.000  C
  C170     1.0000 0.74270  0.59370  0.96110  Biso   1.000  C
  C171     1.0000 0.75730  0.09370  0.53890  Biso   1.000  C
  C172     1.0000 0.24270  0.09370  0.96110  Biso   1.000  C
  C173     1.0000 0.74270  0.40630  0.46110  Biso   1.000  C
  C174     1.0000 0.25730  0.40630  0.03890  Biso   1.000  C
  C175     1.0000 0.24270  0.90630  0.46110  Biso   1.000  C
  C176     1.0000 0.75730  0.90630  0.03890  Biso   1.000  C
  H105     1.0000 0.28200  0.65010  0.56690  Biso   1.000  H
  H106     1.0000 0.71800  0.65010  0.93310  Biso   1.000  H
  H107     1.0000 0.78200  0.15010  0.56690  Biso   1.000  H
  H108     1.0000 0.21800  0.15010  0.93310  Biso   1.000  H
  H109     1.0000 0.71800  0.34990  0.43310  Biso   1.000  H
  H110     1.0000 0.28200  0.34990  0.06690  Biso   1.000  H
  H111     1.0000 0.21800  0.84990  0.43310  Biso   1.000  H
  H112     1.0000 0.78200  0.84990  0.06690  Biso   1.000  H
  C177     1.0000 0.20610  0.89360  0.72780  Biso   1.000  C
  C178     1.0000 0.79390  0.89360  0.77220  Biso   1.000  C
  C179     1.0000 0.70610  0.39360  0.72780  Biso   1.000  C
  C180     1.0000 0.29390  0.39360  0.77220  Biso   1.000  C
  C181     1.0000 0.79390  0.10640  0.27220  Biso   1.000  C
  C182     1.0000 0.20610  0.10640  0.22780  Biso   1.000  C
  C183     1.0000 0.29390  0.60640  0.27220  Biso   1.000  C
  C184     1.0000 0.70610  0.60640  0.22780  Biso   1.000  C
  H113     1.0000 0.19410  0.82480  0.73060  Biso   1.000  H
  H114     1.0000 0.80590  0.82480  0.76940  Biso   1.000  H
  H115     1.0000 0.69410  0.32480  0.73060  Biso   1.000  H
  H116     1.0000 0.30590  0.32480  0.76940  Biso   1.000  H
  H117     1.0000 0.80590  0.17520  0.26940  Biso   1.000  H
  H118     1.0000 0.19410  0.17520  0.23060  Biso   1.000  H
  H119     1.0000 0.30590  0.67520  0.26940  Biso   1.000  H
  H120     1.0000 0.69410  0.67520  0.23060  Biso   1.000  H
  C185     1.0000 0.20170  0.61160  0.47510  Biso   1.000  C
  C186     1.0000 0.79830  0.61160  0.02490  Biso   1.000  C
  C187     1.0000 0.70170  0.11160  0.47510  Biso   1.000  C
  C188     1.0000 0.29830  0.11160  0.02490  Biso   1.000  C
  C189     1.0000 0.79830  0.38840  0.52490  Biso   1.000  C
  C190     1.0000 0.20170  0.38840  0.97510  Biso   1.000  C
  C191     1.0000 0.29830  0.88840  0.52490  Biso   1.000  C
  C192     1.0000 0.70170  0.88840  0.97510  Biso   1.000  C
  H121     1.0000 0.18740  0.67930  0.45930  Biso   1.000  H
  H122     1.0000 0.81260  0.67930  0.04070  Biso   1.000  H
  H123     1.0000 0.68740  0.17930  0.45930  Biso   1.000  H
  H124     1.0000 0.31260  0.17930  0.04070  Biso   1.000  H
  H125     1.0000 0.81260  0.32070  0.54070  Biso   1.000  H
  H126     1.0000 0.18740  0.32070  0.95930  Biso   1.000  H
  H127     1.0000 0.31260  0.82070  0.54070  Biso   1.000  H
  H128     1.0000 0.68740  0.82070  0.95930  Biso   1.000  H
  O41      1.0000 0.07937  0.88990  0.74060  Biso   1.000  O
  O42      1.0000 0.92063  0.88990  0.75940  Biso   1.000  O
  O43      1.0000 0.57937  0.38990  0.74060  Biso   1.000  O
  O44      1.0000 0.42063  0.38990  0.75940  Biso   1.000  O
  O45      1.0000 0.92063  0.11010  0.25940  Biso   1.000  O
  O46      1.0000 0.07937  0.11010  0.24060  Biso   1.000  O
  O47      1.0000 0.42063  0.61010  0.25940  Biso   1.000  O
  O48      1.0000 0.57937  0.61010  0.24060  Biso   1.000  O
  O49      1.0000 0.07569  0.60560  0.33430  Biso   1.000  O
  O50      1.0000 0.92431  0.60560  0.16570  Biso   1.000  O
  O51      1.0000 0.57569  0.10560  0.33430  Biso   1.000  O
  O52      1.0000 0.42431  0.10560  0.16570  Biso   1.000  O
  O53      1.0000 0.92431  0.39440  0.66570  Biso   1.000  O
  O54      1.0000 0.07569  0.39440  0.83430  Biso   1.000  O
  O55      1.0000 0.42431  0.89440  0.66570  Biso   1.000  O
  O56      1.0000 0.57569  0.89440  0.83430  Biso   1.000  O
