data_image0
_cell_length_a       7.3914
_cell_length_b       9.863
_cell_length_c       10.311
_cell_angle_alpha    107.03
_cell_angle_beta     105.119
_cell_angle_gamma    98.158

_symmetry_space_group_name_H-M    "P 1"
_symmetry_int_tables_number       1

loop_
  _symmetry_equiv_pos_as_xyz
  'x, y, z'

loop_
  _atom_site_label
  _atom_site_occupancy
  _atom_site_fract_x
  _atom_site_fract_y
  _atom_site_fract_z
  _atom_site_thermal_displace_type
  _atom_site_B_iso_or_equiv
  _atom_site_type_symbol
  Cu1      1.0000 0.38305  0.50920  0.25142  Biso   1.000  Cu
  Cu2      1.0000 0.61695  0.49080  0.74858  Biso   1.000  Cu
  N1       1.0000 0.26320  0.39290  0.04720  Biso   1.000  N
  N2       1.0000 0.73680  0.60710  0.95280  Biso   1.000  N
  C1       1.0000 0.22150  0.24660  0.01100  Biso   1.000  C
  C2       1.0000 0.77850  0.75340  0.98900  Biso   1.000  C
  H1       1.0000 0.28700  0.20500  0.08900  Biso   1.000  H
  H2       1.0000 0.71300  0.79500  0.91100  Biso   1.000  H
  C3       1.0000 0.11670  0.15100  0.87820  Biso   1.000  C
  C4       1.0000 0.88330  0.84900  0.12180  Biso   1.000  C
  H3       1.0000 0.08900  0.04100  0.87200  Biso   1.000  H
  H4       1.0000 0.91100  0.95900  0.12800  Biso   1.000  H
  C5       1.0000 0.04680  0.20620  0.77360  Biso   1.000  C
  C6       1.0000 0.95320  0.79380  0.22640  Biso   1.000  C
  H5       1.0000 0.93900  0.14400  0.67600  Biso   1.000  H
  H6       1.0000 0.06100  0.85600  0.32400  Biso   1.000  H
  C7       1.0000 0.08250  0.35280  0.80420  Biso   1.000  C
  C8       1.0000 0.91750  0.64720  0.19580  Biso   1.000  C
  H7       1.0000 0.02200  0.41200  0.74200  Biso   1.000  H
  H8       1.0000 0.97800  0.58800  0.25800  Biso   1.000  H
  C9       1.0000 0.19620  0.44320  0.94380  Biso   1.000  C
  C10      1.0000 0.80380  0.55680  0.05620  Biso   1.000  C
  N3       1.0000 0.22870  0.59350  0.97140  Biso   1.000  N
  N4       1.0000 0.77130  0.40650  0.02860  Biso   1.000  N
  H9       1.0000 0.15200  0.60600  0.88800  Biso   1.000  H
  H10      1.0000 0.84800  0.39400  0.11200  Biso   1.000  H
  C11      1.0000 0.33530  0.71250  0.08930  Biso   1.000  C
  C12      1.0000 0.66470  0.28750  0.91070  Biso   1.000  C
  C13      1.0000 0.35640  0.85030  0.07650  Biso   1.000  C
  C14      1.0000 0.64360  0.14970  0.92350  Biso   1.000  C
  H11      1.0000 0.26700  0.87000  0.99000  Biso   1.000  H
  H12      1.0000 0.73300  0.13000  0.01000  Biso   1.000  H
  C15      1.0000 0.46150  0.96960  0.19220  Biso   1.000  C
  C16      1.0000 0.53850  0.03040  0.80780  Biso   1.000  C
  H13      1.0000 0.42800  0.05500  0.15600  Biso   1.000  H
  H14      1.0000 0.57200  0.94500  0.84400  Biso   1.000  H
  C17      1.0000 0.54900  0.95340  0.31710  Biso   1.000  C
  C18      1.0000 0.45100  0.04660  0.68290  Biso   1.000  C
  H15      1.0000 0.65200  0.02100  0.41500  Biso   1.000  H
  H16      1.0000 0.34800  0.97900  0.58500  Biso   1.000  H
  C19      1.0000 0.52770  0.81660  0.32500  Biso   1.000  C
  C20      1.0000 0.47230  0.18340  0.67500  Biso   1.000  C
  H17      1.0000 0.58800  0.81000  0.42600  Biso   1.000  H
  H18      1.0000 0.41200  0.19000  0.57400  Biso   1.000  H
  N5       1.0000 0.41820  0.69420  0.21200  Biso   1.000  N
  N6       1.0000 0.58180  0.30580  0.78800  Biso   1.000  N
  P1       1.0000 0.66830  0.39600  0.43300  Biso   1.000  P
  P2       1.0000 0.33170  0.60400  0.56700  Biso   1.000  P
  O1       1.0000 0.50530  0.35900  0.29910  Biso   1.000  O
  O2       1.0000 0.49470  0.64100  0.70090  Biso   1.000  O
  O3       1.0000 0.61020  0.39210  0.55890  Biso   1.000  O
  O4       1.0000 0.38980  0.60790  0.44110  Biso   1.000  O
  O5       1.0000 0.79680  0.54930  0.46080  Biso   1.000  O
  O6       1.0000 0.20320  0.45070  0.53920  Biso   1.000  O
  O7       1.0000 0.79710  0.28450  0.40870  Biso   1.000  O
  O8       1.0000 0.20290  0.71550  0.59130  Biso   1.000  O
  V1       1.0000 0.96535  0.70064  0.61460  Biso   1.000  V
  V2       1.0000 0.03465  0.29936  0.38540  Biso   1.000  V
  O9       1.0000 0.90440  0.85010  0.62100  Biso   1.000  O
  O10      1.0000 0.09560  0.14990  0.37900  Biso   1.000  O
  O11      1.0000 0.97230  0.66870  0.75810  Biso   1.000  O
  O12      1.0000 0.02770  0.33130  0.24190  Biso   1.000  O
