data_image0
_cell_length_a       7.413
_cell_length_b       12.9922
_cell_length_c       14.9682
_cell_angle_alpha    87.8
_cell_angle_beta     78.85
_cell_angle_gamma    78.09

_symmetry_space_group_name_H-M    "P 1"
_symmetry_int_tables_number       1

loop_
  _symmetry_equiv_pos_as_xyz
  'x, y, z'

loop_
  _atom_site_label
  _atom_site_occupancy
  _atom_site_fract_x
  _atom_site_fract_y
  _atom_site_fract_z
  _atom_site_thermal_displace_type
  _atom_site_B_iso_or_equiv
  _atom_site_type_symbol
  Cu1      1.0000 0.17330  0.82761  0.61353  Biso   1.000  Cu
  Cu2      1.0000 0.82670  0.17239  0.38647  Biso   1.000  Cu
  Cu3      1.0000 0.19500  0.59122  0.83923  Biso   1.000  Cu
  Cu4      1.0000 0.80500  0.40878  0.16077  Biso   1.000  Cu
  V1       1.0000 0.57300  0.70325  0.70646  Biso   1.000  V
  V2       1.0000 0.42700  0.29675  0.29354  Biso   1.000  V
  V3       1.0000 0.76520  0.51538  0.55945  Biso   1.000  V
  V4       1.0000 0.23480  0.48462  0.44055  Biso   1.000  V
  P1       1.0000 0.30070  0.57870  0.62530  Biso   1.000  P
  P2       1.0000 0.69930  0.42130  0.37470  Biso   1.000  P
  P3       1.0000 0.88680  0.79120  0.78900  Biso   1.000  P
  P4       1.0000 0.11320  0.20880  0.21100  Biso   1.000  P
  P5       1.0000 0.68940  0.98500  0.91260  Biso   1.000  P
  P6       1.0000 0.31060  0.01500  0.08740  Biso   1.000  P
  O1       1.0000 0.49590  0.60410  0.61910  Biso   1.000  O
  O2       1.0000 0.50410  0.39590  0.38090  Biso   1.000  O
  O3       1.0000 0.45580  0.65720  0.79290  Biso   1.000  O
  O4       1.0000 0.54420  0.34280  0.20710  Biso   1.000  O
  O5       1.0000 0.44420  0.80700  0.67280  Biso   1.000  O
  O6       1.0000 0.55580  0.19300  0.32720  Biso   1.000  O
  O7       1.0000 0.80300  0.63090  0.62530  Biso   1.000  O
  O8       1.0000 0.19700  0.36910  0.37470  Biso   1.000  O
  O9       1.0000 0.76160  0.41460  0.62150  Biso   1.000  O
  O10      1.0000 0.23840  0.58540  0.37850  Biso   1.000  O
  O11      1.0000 0.00000  0.50000  0.50000  Biso   1.000  O
  O12      1.0000 0.17090  0.67750  0.60090  Biso   1.000  O
  O13      1.0000 0.82910  0.32250  0.39910  Biso   1.000  O
  O14      1.0000 0.67670  0.50550  0.44740  Biso   1.000  O
  O15      1.0000 0.32330  0.49450  0.55260  Biso   1.000  O
  O16      1.0000 0.23880  0.53230  0.71670  Biso   1.000  O
  O17      1.0000 0.76120  0.46770  0.28330  Biso   1.000  O
  O18      1.0000 0.77900  0.86670  0.87060  Biso   1.000  O
  O19      1.0000 0.22100  0.13330  0.12940  Biso   1.000  O
  O20      1.0000 0.76850  0.70930  0.77700  Biso   1.000  O
  O21      1.0000 0.23150  0.29070  0.22300  Biso   1.000  O
  O22      1.0000 0.05350  0.83690  0.73570  Biso   1.000  O
  O23      1.0000 0.94650  0.16310  0.26430  Biso   1.000  O
  O24      1.0000 0.07690  0.73380  0.81040  Biso   1.000  O
  O25      1.0000 0.92310  0.26620  0.18960  Biso   1.000  O
  O26      1.0000 0.96190  0.68120  0.82660  Biso   1.000  O
  O27      1.0000 0.03810  0.31880  0.17340  Biso   1.000  O
  O28      1.0000 0.92080  0.85460  0.69920  Biso   1.000  O
  O29      1.0000 0.07920  0.14540  0.30080  Biso   1.000  O
  O30      1.0000 0.75110  0.78130  0.72470  Biso   1.000  O
  O31      1.0000 0.24890  0.21870  0.27530  Biso   1.000  O
  O32      1.0000 0.67900  0.06510  0.83420  Biso   1.000  O
  O33      1.0000 0.32100  0.93490  0.16580  Biso   1.000  O
  O34      1.0000 0.48870  0.98750  0.96850  Biso   1.000  O
  O35      1.0000 0.51130  0.01250  0.03150  Biso   1.000  O
  O36      1.0000 0.81470  0.01360  0.97520  Biso   1.000  O
  O37      1.0000 0.18530  0.98640  0.02480  Biso   1.000  O
  O38      1.0000 0.24300  0.96440  0.83990  Biso   1.000  O
  O39      1.0000 0.75700  0.03560  0.16010  Biso   1.000  O
  N1       1.0000 0.12270  0.98550  0.60270  Biso   1.000  N
  N2       1.0000 0.87730  0.01450  0.39730  Biso   1.000  N
  N3       1.0000 0.34360  0.83830  0.49310  Biso   1.000  N
  N4       1.0000 0.65640  0.16170  0.50690  Biso   1.000  N
  C1       1.0000 0.02100  0.05630  0.65950  Biso   1.000  C
  C2       1.0000 0.97900  0.94370  0.34050  Biso   1.000  C
  H1       1.0000 0.96390  0.02980  0.71440  Biso   1.000  H
  H2       1.0000 0.03610  0.97020  0.28560  Biso   1.000  H
  C3       1.0000 0.98910  0.15980  0.64420  Biso   1.000  C
  C4       1.0000 0.01090  0.84020  0.35580  Biso   1.000  C
  H3       1.0000 0.90850  0.20760  0.68430  Biso   1.000  H
  H4       1.0000 0.09150  0.79240  0.31570  Biso   1.000  H
  C5       1.0000 0.06700  0.19780  0.56170  Biso   1.000  C
  C6       1.0000 0.93300  0.80220  0.43830  Biso   1.000  C
  H5       1.0000 0.04640  0.26840  0.54780  Biso   1.000  H
  H6       1.0000 0.95360  0.73160  0.45220  Biso   1.000  H
  C7       1.0000 0.18080  0.12590  0.49950  Biso   1.000  C
  C8       1.0000 0.81920  0.87410  0.50050  Biso   1.000  C
  H7       1.0000 0.24650  0.14930  0.44700  Biso   1.000  H
  H8       1.0000 0.75350  0.85070  0.55300  Biso   1.000  H
  C9       1.0000 0.21660  0.02000  0.51670  Biso   1.000  C
  C10      1.0000 0.78340  0.98000  0.48330  Biso   1.000  C
  C11      1.0000 0.33170  0.93620  0.45810  Biso   1.000  C
  C12      1.0000 0.66830  0.06380  0.54190  Biso   1.000  C
  C13      1.0000 0.43410  0.95350  0.37330  Biso   1.000  C
  C14      1.0000 0.56590  0.04650  0.62670  Biso   1.000  C
  H9       1.0000 0.42950  0.02110  0.35170  Biso   1.000  H
  H10      1.0000 0.57050  0.97890  0.64830  Biso   1.000  H
  C15      1.0000 0.55600  0.87010  0.32190  Biso   1.000  C
  C16      1.0000 0.44400  0.12990  0.67810  Biso   1.000  C
  H11      1.0000 0.61520  0.88230  0.26660  Biso   1.000  H
  H12      1.0000 0.38480  0.11770  0.73340  Biso   1.000  H
  C17      1.0000 0.55840  0.77360  0.35930  Biso   1.000  C
  C18      1.0000 0.44160  0.22640  0.64070  Biso   1.000  C
  H13      1.0000 0.63200  0.71430  0.32570  Biso   1.000  H
  H14      1.0000 0.36800  0.28570  0.67430  Biso   1.000  H
  C19      1.0000 0.44370  0.75800  0.44230  Biso   1.000  C
  C20      1.0000 0.55630  0.24200  0.55770  Biso   1.000  C
  H15      1.0000 0.44330  0.69140  0.46140  Biso   1.000  H
  H16      1.0000 0.55670  0.30860  0.53860  Biso   1.000  H
  N5       1.0000 0.34720  0.46020  0.88460  Biso   1.000  N
  N6       1.0000 0.65280  0.53980  0.11540  Biso   1.000  N
  N7       1.0000 0.13380  0.61690  0.97530  Biso   1.000  N
  N8       1.0000 0.86620  0.38310  0.02470  Biso   1.000  N
  C21      1.0000 0.45300  0.38680  0.83220  Biso   1.000  C
  C22      1.0000 0.54700  0.61320  0.16780  Biso   1.000  C
  H17      1.0000 0.48280  0.39220  0.76700  Biso   1.000  H
  H18      1.0000 0.51720  0.60780  0.23300  Biso   1.000  H
  C23      1.0000 0.54170  0.29590  0.86700  Biso   1.000  C
  C24      1.0000 0.45830  0.70410  0.13300  Biso   1.000  C
  H19      1.0000 0.61360  0.23940  0.82350  Biso   1.000  H
  H20      1.0000 0.38640  0.76060  0.17650  Biso   1.000  H
  C25      1.0000 0.51470  0.27490  0.95560  Biso   1.000  C
  C26      1.0000 0.48530  0.72510  0.04440  Biso   1.000  C
  H21      1.0000 0.56310  0.21210  0.98330  Biso   1.000  H
  H22      1.0000 0.43690  0.78790  0.01670  Biso   1.000  H
  C27      1.0000 0.40010  0.35580  0.01010  Biso   1.000  C
  C28      1.0000 0.59990  0.64420  0.98990  Biso   1.000  C
  H23      1.0000 0.37450  0.34600  0.07350  Biso   1.000  H
  H24      1.0000 0.62550  0.65400  0.92650  Biso   1.000  H
  C29      1.0000 0.31640  0.44970  0.97490  Biso   1.000  C
  C30      1.0000 0.68360  0.55030  0.02510  Biso   1.000  C
  C31      1.0000 0.19980  0.53490  0.02720  Biso   1.000  C
  C32      1.0000 0.80020  0.46510  0.97280  Biso   1.000  C
  C33      1.0000 0.15280  0.53580  0.12040  Biso   1.000  C
  C34      1.0000 0.84720  0.46420  0.87960  Biso   1.000  C
  H25      1.0000 0.19560  0.48340  0.15690  Biso   1.000  H
  H26      1.0000 0.80440  0.51660  0.84310  Biso   1.000  H
  C35      1.0000 0.03440  0.63190  0.16280  Biso   1.000  C
  C36      1.0000 0.96560  0.36810  0.83720  Biso   1.000  C
  H27      1.0000 0.99890  0.63340  0.22550  Biso   1.000  H
  H28      1.0000 0.00110  0.36660  0.77450  Biso   1.000  H
  C37      1.0000 0.97520  0.71330  0.11250  Biso   1.000  C
  C38      1.0000 0.02480  0.28670  0.88750  Biso   1.000  C
  H29      1.0000 0.90270  0.77380  0.13870  Biso   1.000  H
  H30      1.0000 0.09730  0.22620  0.86130  Biso   1.000  H
  C39      1.0000 0.03130  0.70600  0.01650  Biso   1.000  C
  C40      1.0000 0.96870  0.29400  0.98350  Biso   1.000  C
  H31      1.0000 0.99440  0.76480  0.98280  Biso   1.000  H
  H32      1.0000 0.00560  0.23520  0.01720  Biso   1.000  H
