data_image0
_cell_length_a       10.7673
_cell_length_b       6.96853
_cell_length_c       5.68972
_cell_angle_alpha    90
_cell_angle_beta     90.9445
_cell_angle_gamma    90

_symmetry_space_group_name_H-M    "P 1"
_symmetry_int_tables_number       1

loop_
  _symmetry_equiv_pos_as_xyz
  'x, y, z'

loop_
  _atom_site_label
  _atom_site_occupancy
  _atom_site_fract_x
  _atom_site_fract_y
  _atom_site_fract_z
  _atom_site_thermal_displace_type
  _atom_site_B_iso_or_equiv
  _atom_site_type_symbol
  Cu1      1.0000 0.00000  0.00000  0.00000  Biso   1.000  Cu
  Cu2      1.0000 0.50000  0.50000  0.00000  Biso   1.000  Cu
  N1       1.0000 0.00000  0.30022  0.00000  Biso   1.000  N
  N2       1.0000 0.50000  0.80022  0.00000  Biso   1.000  N
  N3       1.0000 0.00000  0.69978  0.00000  Biso   1.000  N
  N4       1.0000 0.50000  0.19978  0.00000  Biso   1.000  N
  N5       1.0000 0.89765  0.00000  0.27220  Biso   1.000  N
  N6       1.0000 0.39765  0.50000  0.27220  Biso   1.000  N
  N7       1.0000 0.10235  0.00000  0.72780  Biso   1.000  N
  N8       1.0000 0.60235  0.50000  0.72780  Biso   1.000  N
  C1       1.0000 0.04890  0.39925  0.17730  Biso   1.000  C
  C2       1.0000 0.54890  0.89925  0.17730  Biso   1.000  C
  C3       1.0000 0.95110  0.39925  0.82270  Biso   1.000  C
  C4       1.0000 0.45110  0.89925  0.82270  Biso   1.000  C
  C5       1.0000 0.95110  0.60075  0.82270  Biso   1.000  C
  C6       1.0000 0.45110  0.10075  0.82270  Biso   1.000  C
  C7       1.0000 0.04890  0.60075  0.17730  Biso   1.000  C
  C8       1.0000 0.54890  0.10075  0.17730  Biso   1.000  C
  C9       1.0000 0.84292  0.00000  0.44880  Biso   1.000  C
  C10      1.0000 0.34292  0.50000  0.44880  Biso   1.000  C
  C11      1.0000 0.15708  0.00000  0.55120  Biso   1.000  C
  C12      1.0000 0.65708  0.50000  0.55120  Biso   1.000  C
  S1       1.0000 0.76760  0.00000  0.70360  Biso   1.000  S
  S2       1.0000 0.26760  0.50000  0.70360  Biso   1.000  S
  S3       1.0000 0.23240  0.00000  0.29640  Biso   1.000  S
  S4       1.0000 0.73240  0.50000  0.29640  Biso   1.000  S
  H1       1.0000 0.08350  0.32520  0.32220  Biso   1.000  H
  H2       1.0000 0.58350  0.82520  0.32220  Biso   1.000  H
  H3       1.0000 0.91650  0.32520  0.67780  Biso   1.000  H
  H4       1.0000 0.41650  0.82520  0.67780  Biso   1.000  H
  H5       1.0000 0.91650  0.67480  0.67780  Biso   1.000  H
  H6       1.0000 0.41650  0.17480  0.67780  Biso   1.000  H
  H7       1.0000 0.08350  0.67480  0.32220  Biso   1.000  H
  H8       1.0000 0.58350  0.17480  0.32220  Biso   1.000  H
