data_image0
_cell_length_a       7.5158
_cell_length_b       7.5207
_cell_length_c       17.9669
_cell_angle_alpha    90
_cell_angle_beta     100.012
_cell_angle_gamma    90

_symmetry_space_group_name_H-M    "P 1"
_symmetry_int_tables_number       1

loop_
  _symmetry_equiv_pos_as_xyz
  'x, y, z'

loop_
  _atom_site_label
  _atom_site_occupancy
  _atom_site_fract_x
  _atom_site_fract_y
  _atom_site_fract_z
  _atom_site_thermal_displace_type
  _atom_site_B_iso_or_equiv
  _atom_site_type_symbol
  Cu1      1.0000 0.14679  0.77044  0.66036  Biso   1.000  Cu
  Cu2      1.0000 0.85321  0.27044  0.33964  Biso   1.000  Cu
  Cu3      1.0000 0.98146  0.22253  0.71995  Biso   1.000  Cu
  Cu4      1.0000 0.01854  0.72253  0.28005  Biso   1.000  Cu
  Cl1      1.0000 0.90976  0.57843  0.63996  Biso   1.000  Cl
  Cl2      1.0000 0.09024  0.07843  0.36004  Biso   1.000  Cl
  Cl3      1.0000 0.11751  0.85342  0.77999  Biso   1.000  Cl
  Cl4      1.0000 0.88249  0.35342  0.22001  Biso   1.000  Cl
  Cl5      1.0000 0.92115  0.06289  0.61261  Biso   1.000  Cl
  Cl6      1.0000 0.07885  0.56289  0.38739  Biso   1.000  Cl
  Cl7      1.0000 0.71594  0.21068  0.76017  Biso   1.000  Cl
  Cl8      1.0000 0.28406  0.71068  0.23983  Biso   1.000  Cl
  O1       1.0000 0.23100  0.26940  0.69904  Biso   1.000  O
  O2       1.0000 0.76900  0.76940  0.30096  Biso   1.000  O
  N1       1.0000 0.22170  0.68730  0.56230  Biso   1.000  N
  N2       1.0000 0.77830  0.18730  0.43770  Biso   1.000  N
  H1       1.0000 0.11850  0.69230  0.52530  Biso   1.000  H
  H2       1.0000 0.88150  0.19230  0.47470  Biso   1.000  H
  N3       1.0000 0.38140  0.90710  0.66921  Biso   1.000  N
  N4       1.0000 0.61860  0.40710  0.33079  Biso   1.000  N
  H3       1.0000 0.37260  0.00660  0.69910  Biso   1.000  H
  H4       1.0000 0.62740  0.50660  0.30090  Biso   1.000  H
  N5       1.0000 0.40760  0.51080  0.70455  Biso   1.000  N
  N6       1.0000 0.59240  0.01080  0.29545  Biso   1.000  N
  N7       1.0000 0.06610  0.39140  0.80505  Biso   1.000  N
  N8       1.0000 0.93390  0.89140  0.19495  Biso   1.000  N
  H5       1.0000 0.00530  0.49740  0.79570  Biso   1.000  H
  H6       1.0000 0.99470  0.99740  0.20430  Biso   1.000  H
  H7       1.0000 0.03860  0.34510  0.84910  Biso   1.000  H
  H8       1.0000 0.96140  0.84510  0.15090  Biso   1.000  H
  C1       1.0000 0.44160  0.46270  0.62847  Biso   1.000  C
  C2       1.0000 0.55840  0.96270  0.37153  Biso   1.000  C
  H9       1.0000 0.47240  0.33470  0.62800  Biso   1.000  H
  H10      1.0000 0.52760  0.83470  0.37200  Biso   1.000  H
  H11      1.0000 0.54710  0.53080  0.61780  Biso   1.000  H
  H12      1.0000 0.45290  0.03080  0.38220  Biso   1.000  H
  C3       1.0000 0.28170  0.49880  0.56646  Biso   1.000  C
  C4       1.0000 0.71830  0.99880  0.43354  Biso   1.000  C
  H13      1.0000 0.31430  0.46480  0.51730  Biso   1.000  H
  H14      1.0000 0.68570  0.96480  0.48270  Biso   1.000  H
  H15      1.0000 0.17950  0.42270  0.57480  Biso   1.000  H
  H16      1.0000 0.82050  0.92270  0.42520  Biso   1.000  H
  C5       1.0000 0.35480  0.81100  0.53782  Biso   1.000  C
  C6       1.0000 0.64520  0.31100  0.46218  Biso   1.000  C
  H17      1.0000 0.30960  0.85230  0.48560  Biso   1.000  H
  H18      1.0000 0.69040  0.35230  0.51440  Biso   1.000  H
  H19      1.0000 0.47100  0.74860  0.53830  Biso   1.000  H
  H20      1.0000 0.52900  0.24860  0.46170  Biso   1.000  H
  C7       1.0000 0.38340  0.96930  0.59110  Biso   1.000  C
  C8       1.0000 0.61660  0.46930  0.40890  Biso   1.000  C
  H21      1.0000 0.50060  0.02670  0.58840  Biso   1.000  H
  H22      1.0000 0.49940  0.52670  0.41160  Biso   1.000  H
  H23      1.0000 0.28630  0.05790  0.57620  Biso   1.000  H
  H24      1.0000 0.71370  0.55790  0.42380  Biso   1.000  H
  C9       1.0000 0.55270  0.81100  0.70163  Biso   1.000  C
  C10      1.0000 0.44730  0.31100  0.29837  Biso   1.000  C
  H25      1.0000 0.63300  0.89430  0.73440  Biso   1.000  H
  H26      1.0000 0.36700  0.39430  0.26560  Biso   1.000  H
  H27      1.0000 0.61490  0.77600  0.65960  Biso   1.000  H
  H28      1.0000 0.38510  0.27600  0.34040  Biso   1.000  H
  C11      1.0000 0.52660  0.64590  0.74739  Biso   1.000  C
  C12      1.0000 0.47340  0.14590  0.25261  Biso   1.000  C
  H29      1.0000 0.64610  0.59160  0.76580  Biso   1.000  H
  H30      1.0000 0.35390  0.09160  0.23420  Biso   1.000  H
  H31      1.0000 0.47470  0.68180  0.79210  Biso   1.000  H
  H32      1.0000 0.52530  0.18180  0.20790  Biso   1.000  H
  C13      1.0000 0.30390  0.40180  0.73570  Biso   1.000  C
  C14      1.0000 0.69610  0.90180  0.26430  Biso   1.000  C
  C15      1.0000 0.26200  0.42490  0.81511  Biso   1.000  C
  C16      1.0000 0.73800  0.92490  0.18489  Biso   1.000  C
  H33      1.0000 0.29150  0.54810  0.83430  Biso   1.000  H
  H34      1.0000 0.70850  0.04810  0.16570  Biso   1.000  H
  C17      1.0000 0.36620  0.28650  0.86785  Biso   1.000  C
  C18      1.0000 0.63380  0.78650  0.13215  Biso   1.000  C
  H35      1.0000 0.34770  0.16760  0.84410  Biso   1.000  H
  H36      1.0000 0.65230  0.66760  0.15590  Biso   1.000  H
  H37      1.0000 0.49690  0.31400  0.87520  Biso   1.000  H
  H38      1.0000 0.50310  0.81400  0.12480  Biso   1.000  H
  C19      1.0000 0.30570  0.28270  0.94380  Biso   1.000  C
  C20      1.0000 0.69430  0.78270  0.05620  Biso   1.000  C
  C21      1.0000 0.36970  0.40710  0.99839  Biso   1.000  C
  C22      1.0000 0.63030  0.90710  0.00161  Biso   1.000  C
  H39      1.0000 0.45660  0.49220  0.98910  Biso   1.000  H
  H40      1.0000 0.54340  0.99220  0.01090  Biso   1.000  H
  C23      1.0000 0.30780  0.40870  0.06682  Biso   1.000  C
  C24      1.0000 0.69220  0.90870  0.93318  Biso   1.000  C
  H41      1.0000 0.35340  0.49440  0.10410  Biso   1.000  H
  H42      1.0000 0.64660  0.99440  0.89590  Biso   1.000  H
  C25      1.0000 0.18190  0.28810  0.08101  Biso   1.000  C
  C26      1.0000 0.81810  0.78810  0.91899  Biso   1.000  C
  H43      1.0000 0.13870  0.29080  0.12760  Biso   1.000  H
  H44      1.0000 0.86130  0.79080  0.87240  Biso   1.000  H
  C27      1.0000 0.11810  0.16250  0.02698  Biso   1.000  C
  C28      1.0000 0.88190  0.66250  0.97302  Biso   1.000  C
  H45      1.0000 0.03090  0.07780  0.03650  Biso   1.000  H
  H46      1.0000 0.96910  0.57780  0.96350  Biso   1.000  H
  C29      1.0000 0.18120  0.15950  0.95828  Biso   1.000  C
  C30      1.0000 0.81880  0.65950  0.04172  Biso   1.000  C
  H47      1.0000 0.13790  0.07180  0.92150  Biso   1.000  H
  H48      1.0000 0.86210  0.57180  0.07850  Biso   1.000  H
