data_image0
_cell_length_a       9.9962
_cell_length_b       17.432
_cell_length_c       20.285
_cell_angle_alpha    90
_cell_angle_beta     90
_cell_angle_gamma    90

_symmetry_space_group_name_H-M    "P 1"
_symmetry_int_tables_number       1

loop_
  _symmetry_equiv_pos_as_xyz
  'x, y, z'

loop_
  _atom_site_label
  _atom_site_occupancy
  _atom_site_fract_x
  _atom_site_fract_y
  _atom_site_fract_z
  _atom_site_thermal_displace_type
  _atom_site_B_iso_or_equiv
  _atom_site_type_symbol
  Cu1      1.0000 0.05150  0.39583  0.17849  Biso   1.000  Cu
  Cu2      1.0000 0.44850  0.60417  0.67849  Biso   1.000  Cu
  Cu3      1.0000 0.94850  0.89583  0.32151  Biso   1.000  Cu
  Cu4      1.0000 0.55150  0.10417  0.82151  Biso   1.000  Cu
  Cu5      1.0000 0.08335  0.11282  0.18163  Biso   1.000  Cu
  Cu6      1.0000 0.41665  0.88718  0.68163  Biso   1.000  Cu
  Cu7      1.0000 0.91665  0.61282  0.31837  Biso   1.000  Cu
  Cu8      1.0000 0.58335  0.38718  0.81837  Biso   1.000  Cu
  Cl1      1.0000 0.03910  0.25353  0.16127  Biso   1.000  Cl
  Cl2      1.0000 0.46090  0.74647  0.66127  Biso   1.000  Cl
  Cl3      1.0000 0.96090  0.75353  0.33873  Biso   1.000  Cl
  Cl4      1.0000 0.53910  0.24647  0.83873  Biso   1.000  Cl
  Cl5      1.0000 0.36667  0.37430  0.39366  Biso   1.000  Cl
  Cl6      1.0000 0.13333  0.62570  0.89366  Biso   1.000  Cl
  Cl7      1.0000 0.63333  0.87430  0.10634  Biso   1.000  Cl
  Cl8      1.0000 0.86667  0.12570  0.60634  Biso   1.000  Cl
  Cl9      1.0000 0.61807  0.56195  0.09697  Biso   1.000  Cl
  Cl10     1.0000 0.88193  0.43805  0.59697  Biso   1.000  Cl
  Cl11     1.0000 0.38193  0.06195  0.40303  Biso   1.000  Cl
  Cl12     1.0000 0.11807  0.93805  0.90303  Biso   1.000  Cl
  Cl13     1.0000 0.60081  0.20707  0.08545  Biso   1.000  Cl
  Cl14     1.0000 0.89919  0.79293  0.58545  Biso   1.000  Cl
  Cl15     1.0000 0.39919  0.70707  0.41455  Biso   1.000  Cl
  Cl16     1.0000 0.10081  0.29293  0.91455  Biso   1.000  Cl
  O1       1.0000 0.07540  0.58751  0.26256  Biso   1.000  O
  O2       1.0000 0.42460  0.41249  0.76256  Biso   1.000  O
  O3       1.0000 0.92460  0.08751  0.23744  Biso   1.000  O
  O4       1.0000 0.57540  0.91249  0.73744  Biso   1.000  O
  O5       1.0000 0.00680  0.41072  0.27364  Biso   1.000  O
  O6       1.0000 0.49320  0.58928  0.77364  Biso   1.000  O
  O7       1.0000 0.99320  0.91072  0.22636  Biso   1.000  O
  O8       1.0000 0.50680  0.08928  0.72636  Biso   1.000  O
  O9       1.0000 0.24490  0.35758  0.35901  Biso   1.000  O
  O10      1.0000 0.25510  0.64242  0.85901  Biso   1.000  O
  O11      1.0000 0.75510  0.85758  0.14099  Biso   1.000  O
  O12      1.0000 0.74490  0.14242  0.64099  Biso   1.000  O
  O13      1.0000 0.47420  0.32952  0.36484  Biso   1.000  O
  O14      1.0000 0.02580  0.67048  0.86484  Biso   1.000  O
  O15      1.0000 0.52580  0.82952  0.13516  Biso   1.000  O
  O16      1.0000 0.97420  0.17048  0.63516  Biso   1.000  O
  O17      1.0000 0.35380  0.35520  0.46198  Biso   1.000  O
  O18      1.0000 0.14620  0.64480  0.96198  Biso   1.000  O
  O19      1.0000 0.64620  0.85520  0.03802  Biso   1.000  O
  O20      1.0000 0.85380  0.14480  0.53802  Biso   1.000  O
  O21      1.0000 0.39840  0.45384  0.38793  Biso   1.000  O
  O22      1.0000 0.10160  0.54616  0.88793  Biso   1.000  O
  O23      1.0000 0.60160  0.95384  0.11207  Biso   1.000  O
  O24      1.0000 0.89840  0.04616  0.61207  Biso   1.000  O
  O25      1.0000 0.49790  0.54721  0.05988  Biso   1.000  O
  O26      1.0000 0.00210  0.45279  0.55988  Biso   1.000  O
  O27      1.0000 0.50210  0.04721  0.44012  Biso   1.000  O
  O28      1.0000 0.99790  0.95279  0.94012  Biso   1.000  O
  O29      1.0000 0.72940  0.52250  0.06662  Biso   1.000  O
  O30      1.0000 0.77060  0.47750  0.56662  Biso   1.000  O
  O31      1.0000 0.27060  0.02250  0.43338  Biso   1.000  O
  O32      1.0000 0.22940  0.97750  0.93338  Biso   1.000  O
  O33      1.0000 0.60280  0.53165  0.16279  Biso   1.000  O
  O34      1.0000 0.89720  0.46835  0.66279  Biso   1.000  O
  O35      1.0000 0.39720  0.03165  0.33721  Biso   1.000  O
  O36      1.0000 0.10280  0.96835  0.83721  Biso   1.000  O
  O37      1.0000 0.64550  0.64148  0.10060  Biso   1.000  O
  O38      1.0000 0.85450  0.35852  0.60060  Biso   1.000  O
  O39      1.0000 0.35450  0.14148  0.39940  Biso   1.000  O
  O40      1.0000 0.14550  0.85852  0.89940  Biso   1.000  O
  O41      1.0000 0.70500  0.15200  0.08260  Biso   1.000  O
  O42      1.0000 0.79500  0.84800  0.58260  Biso   1.000  O
  O43      1.0000 0.29500  0.65200  0.41740  Biso   1.000  O
  O44      1.0000 0.20500  0.34800  0.91740  Biso   1.000  O
  O45      1.0000 0.51720  0.19690  0.02824  Biso   1.000  O
  O46      1.0000 0.98280  0.80310  0.52824  Biso   1.000  O
  O47      1.0000 0.48280  0.69690  0.47176  Biso   1.000  O
  O48      1.0000 0.01720  0.30310  0.97176  Biso   1.000  O
  O49      1.0000 0.52110  0.19580  0.14342  Biso   1.000  O
  O50      1.0000 0.97890  0.80420  0.64342  Biso   1.000  O
  O51      1.0000 0.47890  0.69580  0.35658  Biso   1.000  O
  O52      1.0000 0.02110  0.30420  0.85658  Biso   1.000  O
  O53      1.0000 0.65210  0.28380  0.08644  Biso   1.000  O
  O54      1.0000 0.84790  0.71620  0.58644  Biso   1.000  O
  O55      1.0000 0.34790  0.78380  0.41356  Biso   1.000  O
  O56      1.0000 0.15210  0.21620  0.91356  Biso   1.000  O
  O57      1.0000 0.76930  0.30070  0.43040  Biso   1.000  O
  O58      1.0000 0.73070  0.69930  0.93040  Biso   1.000  O
  O59      1.0000 0.23070  0.80070  0.06960  Biso   1.000  O
  O60      1.0000 0.26930  0.19930  0.56960  Biso   1.000  O
  O61      1.0000 0.69410  0.20030  0.38610  Biso   1.000  O
  O62      1.0000 0.80590  0.79970  0.88610  Biso   1.000  O
  O63      1.0000 0.30590  0.70030  0.11390  Biso   1.000  O
  O64      1.0000 0.19410  0.29970  0.61390  Biso   1.000  O
  O65      1.0000 0.37110  0.24542  0.25487  Biso   1.000  O
  O66      1.0000 0.12890  0.75458  0.75487  Biso   1.000  O
  O67      1.0000 0.62890  0.74542  0.24513  Biso   1.000  O
  O68      1.0000 0.87110  0.25458  0.74513  Biso   1.000  O
  N1       1.0000 0.11050  0.41524  0.08414  Biso   1.000  N
  N2       1.0000 0.38950  0.58476  0.58414  Biso   1.000  N
  N3       1.0000 0.88950  0.91524  0.41586  Biso   1.000  N
  N4       1.0000 0.61050  0.08476  0.91586  Biso   1.000  N
  N5       1.0000 0.24670  0.39584  0.19992  Biso   1.000  N
  N6       1.0000 0.25330  0.60416  0.69992  Biso   1.000  N
  N7       1.0000 0.75330  0.89584  0.30008  Biso   1.000  N
  N8       1.0000 0.74670  0.10416  0.80008  Biso   1.000  N
  N9       1.0000 0.14430  0.55660  0.16066  Biso   1.000  N
  N10      1.0000 0.35570  0.44340  0.66066  Biso   1.000  N
  N11      1.0000 0.85570  0.05660  0.33934  Biso   1.000  N
  N12      1.0000 0.64430  0.94340  0.83934  Biso   1.000  N
  N13      1.0000 0.82770  0.62295  0.23009  Biso   1.000  N
  N14      1.0000 0.67230  0.37705  0.73009  Biso   1.000  N
  N15      1.0000 0.17230  0.12295  0.26991  Biso   1.000  N
  N16      1.0000 0.32770  0.87705  0.76991  Biso   1.000  N
  N17      1.0000 0.75220  0.60659  0.37636  Biso   1.000  N
  N18      1.0000 0.74780  0.39341  0.87636  Biso   1.000  N
  N19      1.0000 0.24780  0.10659  0.12364  Biso   1.000  N
  N20      1.0000 0.25220  0.89341  0.62364  Biso   1.000  N
  N21      1.0000 0.01740  0.58632  0.39950  Biso   1.000  N
  N22      1.0000 0.48260  0.41368  0.89950  Biso   1.000  N
  N23      1.0000 0.98260  0.08632  0.10050  Biso   1.000  N
  N24      1.0000 0.51740  0.91368  0.60050  Biso   1.000  N
  N25      1.0000 0.85040  0.45035  0.34479  Biso   1.000  N
  N26      1.0000 0.64960  0.54965  0.84479  Biso   1.000  N
  N27      1.0000 0.14960  0.95035  0.15521  Biso   1.000  N
  N28      1.0000 0.35040  0.04965  0.65521  Biso   1.000  N
  N29      1.0000 0.84720  0.40390  0.16854  Biso   1.000  N
  N30      1.0000 0.65280  0.59610  0.66854  Biso   1.000  N
  N31      1.0000 0.15280  0.90390  0.33146  Biso   1.000  N
  N32      1.0000 0.34720  0.09610  0.83146  Biso   1.000  N
  N33      1.0000 0.69820  0.24790  0.43070  Biso   1.000  N
  N34      1.0000 0.80180  0.75210  0.93070  Biso   1.000  N
  N35      1.0000 0.30180  0.74790  0.06930  Biso   1.000  N
  N36      1.0000 0.19820  0.25210  0.56930  Biso   1.000  N
  C1       1.0000 0.25750  0.40360  0.07710  Biso   1.000  C
  C2       1.0000 0.24250  0.59640  0.57710  Biso   1.000  C
  C3       1.0000 0.74250  0.90360  0.42290  Biso   1.000  C
  C4       1.0000 0.75750  0.09640  0.92290  Biso   1.000  C
  H1       1.0000 0.30080  0.45340  0.06750  Biso   1.000  H
  H2       1.0000 0.19920  0.54660  0.56750  Biso   1.000  H
  H3       1.0000 0.69920  0.95340  0.43250  Biso   1.000  H
  H4       1.0000 0.80080  0.04660  0.93250  Biso   1.000  H
  H5       1.0000 0.27490  0.36880  0.03950  Biso   1.000  H
  H6       1.0000 0.22510  0.63120  0.53950  Biso   1.000  H
  H7       1.0000 0.72510  0.86880  0.46050  Biso   1.000  H
  H8       1.0000 0.77490  0.13120  0.96050  Biso   1.000  H
  C5       1.0000 0.31850  0.36940  0.13960  Biso   1.000  C
  C6       1.0000 0.18150  0.63060  0.63960  Biso   1.000  C
  C7       1.0000 0.68150  0.86940  0.36040  Biso   1.000  C
  C8       1.0000 0.81850  0.13060  0.86040  Biso   1.000  C
  H9       1.0000 0.31450  0.31270  0.13720  Biso   1.000  H
  H10      1.0000 0.18550  0.68730  0.63720  Biso   1.000  H
  H11      1.0000 0.68550  0.81270  0.36280  Biso   1.000  H
  H12      1.0000 0.81450  0.18730  0.86280  Biso   1.000  H
  H13      1.0000 0.41380  0.38450  0.14260  Biso   1.000  H
  H14      1.0000 0.08620  0.61550  0.64260  Biso   1.000  H
  H15      1.0000 0.58620  0.88450  0.35740  Biso   1.000  H
  H16      1.0000 0.91380  0.11550  0.85740  Biso   1.000  H
  C9       1.0000 0.29310  0.46920  0.22958  Biso   1.000  C
  C10      1.0000 0.20690  0.53080  0.72958  Biso   1.000  C
  C11      1.0000 0.70690  0.96920  0.27042  Biso   1.000  C
  C12      1.0000 0.79310  0.03080  0.77042  Biso   1.000  C
  H17      1.0000 0.38860  0.46340  0.24160  Biso   1.000  H
  H18      1.0000 0.11140  0.53660  0.74160  Biso   1.000  H
  H19      1.0000 0.61140  0.96340  0.25840  Biso   1.000  H
  H20      1.0000 0.88860  0.03660  0.75840  Biso   1.000  H
  H21      1.0000 0.24260  0.47770  0.27090  Biso   1.000  H
  H22      1.0000 0.25740  0.52230  0.77090  Biso   1.000  H
  H23      1.0000 0.75740  0.97770  0.22910  Biso   1.000  H
  H24      1.0000 0.74260  0.02230  0.72910  Biso   1.000  H
  C13      1.0000 0.27920  0.53980  0.18730  Biso   1.000  C
  C14      1.0000 0.22080  0.46020  0.68730  Biso   1.000  C
  C15      1.0000 0.72080  0.03980  0.31270  Biso   1.000  C
  C16      1.0000 0.77920  0.96020  0.81270  Biso   1.000  C
  H25      1.0000 0.30850  0.58460  0.21360  Biso   1.000  H
  H26      1.0000 0.19150  0.41540  0.71360  Biso   1.000  H
  H27      1.0000 0.69150  0.08460  0.28640  Biso   1.000  H
  H28      1.0000 0.80850  0.91540  0.78640  Biso   1.000  H
  H29      1.0000 0.34170  0.53490  0.14970  Biso   1.000  H
  H30      1.0000 0.15830  0.46510  0.64970  Biso   1.000  H
  H31      1.0000 0.65830  0.03490  0.35030  Biso   1.000  H
  H32      1.0000 0.84170  0.96510  0.85030  Biso   1.000  H
  C17      1.0000 0.12730  0.55960  0.08799  Biso   1.000  C
  C18      1.0000 0.37270  0.44040  0.58799  Biso   1.000  C
  C19      1.0000 0.87270  0.05960  0.41201  Biso   1.000  C
  C20      1.0000 0.62730  0.94040  0.91201  Biso   1.000  C
  H33      1.0000 0.21640  0.56770  0.06780  Biso   1.000  H
  H34      1.0000 0.28360  0.43230  0.56780  Biso   1.000  H
  H35      1.0000 0.78360  0.06770  0.43220  Biso   1.000  H
  H36      1.0000 0.71640  0.93230  0.93220  Biso   1.000  H
  H37      1.0000 0.07180  0.60490  0.07710  Biso   1.000  H
  H38      1.0000 0.42820  0.39510  0.57710  Biso   1.000  H
  H39      1.0000 0.92820  0.10490  0.42290  Biso   1.000  H
  H40      1.0000 0.57180  0.89510  0.92290  Biso   1.000  H
  C21      1.0000 0.06410  0.48970  0.05647  Biso   1.000  C
  C22      1.0000 0.43590  0.51030  0.55647  Biso   1.000  C
  C23      1.0000 0.93590  0.98970  0.44353  Biso   1.000  C
  C24      1.0000 0.56410  0.01030  0.94353  Biso   1.000  C
  H41      1.0000 0.96590  0.49310  0.06180  Biso   1.000  H
  H42      1.0000 0.53410  0.50690  0.56180  Biso   1.000  H
  H43      1.0000 0.03410  0.99310  0.43820  Biso   1.000  H
  H44      1.0000 0.46590  0.00690  0.93820  Biso   1.000  H
  H45      1.0000 0.08370  0.49050  0.00860  Biso   1.000  H
  H46      1.0000 0.41630  0.50950  0.50860  Biso   1.000  H
  H47      1.0000 0.91630  0.99050  0.49140  Biso   1.000  H
  H48      1.0000 0.58370  0.00950  0.99140  Biso   1.000  H
  C25      1.0000 0.05560  0.58740  0.20274  Biso   1.000  C
  C26      1.0000 0.44440  0.41260  0.70274  Biso   1.000  C
  C27      1.0000 0.94440  0.08740  0.29726  Biso   1.000  C
  C28      1.0000 0.55560  0.91260  0.79726  Biso   1.000  C
  C29      1.0000 0.92670  0.62620  0.17684  Biso   1.000  C
  C30      1.0000 0.57330  0.37380  0.67684  Biso   1.000  C
  C31      1.0000 0.07330  0.12620  0.32316  Biso   1.000  C
  C32      1.0000 0.42670  0.87380  0.82316  Biso   1.000  C
  H49      1.0000 0.89280  0.59900  0.13680  Biso   1.000  H
  H50      1.0000 0.60720  0.40100  0.63680  Biso   1.000  H
  H51      1.0000 0.10720  0.09900  0.36320  Biso   1.000  H
  H52      1.0000 0.39280  0.90100  0.86320  Biso   1.000  H
  C33      1.0000 0.96030  0.71050  0.16050  Biso   1.000  C
  C34      1.0000 0.53970  0.28950  0.66050  Biso   1.000  C
  C35      1.0000 0.03970  0.21050  0.33950  Biso   1.000  C
  C36      1.0000 0.46030  0.78950  0.83950  Biso   1.000  C
  H53      1.0000 0.88140  0.73550  0.14150  Biso   1.000  H
  H54      1.0000 0.61860  0.26450  0.64150  Biso   1.000  H
  H55      1.0000 0.11860  0.23550  0.35850  Biso   1.000  H
  H56      1.0000 0.38140  0.76450  0.85850  Biso   1.000  H
  H57      1.0000 0.03410  0.71220  0.12870  Biso   1.000  H
  H58      1.0000 0.46590  0.28780  0.62870  Biso   1.000  H
  H59      1.0000 0.96590  0.21220  0.37130  Biso   1.000  H
  H60      1.0000 0.53410  0.78780  0.87130  Biso   1.000  H
  H61      1.0000 0.98670  0.73730  0.20090  Biso   1.000  H
  H62      1.0000 0.51330  0.26270  0.70090  Biso   1.000  H
  H63      1.0000 0.01330  0.23730  0.29910  Biso   1.000  H
  H64      1.0000 0.48670  0.76270  0.79910  Biso   1.000  H
  C37      1.0000 0.79000  0.60280  0.44580  Biso   1.000  C
  C38      1.0000 0.71000  0.39720  0.94580  Biso   1.000  C
  C39      1.0000 0.21000  0.10280  0.05420  Biso   1.000  C
  C40      1.0000 0.29000  0.89720  0.55420  Biso   1.000  C
  H65      1.0000 0.76420  0.55210  0.46370  Biso   1.000  H
  H66      1.0000 0.73580  0.44790  0.96370  Biso   1.000  H
  H67      1.0000 0.23580  0.05210  0.03630  Biso   1.000  H
  H68      1.0000 0.26420  0.94790  0.53630  Biso   1.000  H
  H69      1.0000 0.73970  0.64240  0.47050  Biso   1.000  H
  H70      1.0000 0.76030  0.35760  0.97050  Biso   1.000  H
  H71      1.0000 0.26030  0.14240  0.02950  Biso   1.000  H
  H72      1.0000 0.23970  0.85760  0.52950  Biso   1.000  H
  C41      1.0000 0.94000  0.61500  0.45699  Biso   1.000  C
  C42      1.0000 0.56000  0.38500  0.95699  Biso   1.000  C
  C43      1.0000 0.06000  0.11500  0.04301  Biso   1.000  C
  C44      1.0000 0.44000  0.88500  0.54301  Biso   1.000  C
  H73      1.0000 0.95820  0.67040  0.46340  Biso   1.000  H
  H74      1.0000 0.54180  0.32960  0.96340  Biso   1.000  H
  H75      1.0000 0.04180  0.17040  0.03660  Biso   1.000  H
  H76      1.0000 0.45820  0.82960  0.53660  Biso   1.000  H
  H77      1.0000 0.96830  0.58750  0.49730  Biso   1.000  H
  H78      1.0000 0.53170  0.41250  0.99730  Biso   1.000  H
  H79      1.0000 0.03170  0.08750  0.00270  Biso   1.000  H
  H80      1.0000 0.46830  0.91250  0.50270  Biso   1.000  H
  C45      1.0000 0.06270  0.50560  0.40090  Biso   1.000  C
  C46      1.0000 0.43730  0.49440  0.90090  Biso   1.000  C
  C47      1.0000 0.93730  0.00560  0.09910  Biso   1.000  C
  C48      1.0000 0.56270  0.99440  0.59910  Biso   1.000  C
  H81      1.0000 0.11660  0.49760  0.44130  Biso   1.000  H
  H82      1.0000 0.38340  0.50240  0.94130  Biso   1.000  H
  H83      1.0000 0.88340  0.99760  0.05870  Biso   1.000  H
  H84      1.0000 0.61660  0.00240  0.55870  Biso   1.000  H
  H85      1.0000 0.12220  0.49680  0.36260  Biso   1.000  H
  H86      1.0000 0.37780  0.50320  0.86260  Biso   1.000  H
  H87      1.0000 0.87780  0.99680  0.13740  Biso   1.000  H
  H88      1.0000 0.62220  0.00320  0.63740  Biso   1.000  H
  C49      1.0000 0.95010  0.44490  0.39942  Biso   1.000  C
  C50      1.0000 0.54990  0.55510  0.89942  Biso   1.000  C
  C51      1.0000 0.04990  0.94490  0.10058  Biso   1.000  C
  C52      1.0000 0.45010  0.05510  0.60058  Biso   1.000  C
  H89      1.0000 0.99240  0.39360  0.39720  Biso   1.000  H
  H90      1.0000 0.50760  0.60640  0.89720  Biso   1.000  H
  H91      1.0000 0.00760  0.89360  0.10280  Biso   1.000  H
  H92      1.0000 0.49240  0.10640  0.60280  Biso   1.000  H
  H93      1.0000 0.90110  0.44780  0.44170  Biso   1.000  H
  H94      1.0000 0.59890  0.55220  0.94170  Biso   1.000  H
  H95      1.0000 0.09890  0.94780  0.05830  Biso   1.000  H
  H96      1.0000 0.40110  0.05220  0.55830  Biso   1.000  H
  C53      1.0000 0.70880  0.46520  0.36370  Biso   1.000  C
  C54      1.0000 0.79120  0.53480  0.86370  Biso   1.000  C
  C55      1.0000 0.29120  0.96520  0.13630  Biso   1.000  C
  C56      1.0000 0.20880  0.03480  0.63630  Biso   1.000  C
  H97      1.0000 0.65100  0.43020  0.33790  Biso   1.000  H
  H98      1.0000 0.84900  0.56980  0.83790  Biso   1.000  H
  H99      1.0000 0.34900  0.93020  0.16210  Biso   1.000  H
  H100     1.0000 0.15100  0.06980  0.66210  Biso   1.000  H
  H101     1.0000 0.69790  0.45150  0.41080  Biso   1.000  H
  H102     1.0000 0.80210  0.54850  0.91080  Biso   1.000  H
  H103     1.0000 0.30210  0.95150  0.08920  Biso   1.000  H
  H104     1.0000 0.19790  0.04850  0.58920  Biso   1.000  H
  C57      1.0000 0.65870  0.54430  0.35450  Biso   1.000  C
  C58      1.0000 0.84130  0.45570  0.85450  Biso   1.000  C
  C59      1.0000 0.34130  0.04430  0.14550  Biso   1.000  C
  C60      1.0000 0.15870  0.95570  0.64550  Biso   1.000  C
  H105     1.0000 0.57370  0.54980  0.37910  Biso   1.000  H
  H106     1.0000 0.92630  0.45020  0.87910  Biso   1.000  H
  H107     1.0000 0.42630  0.04980  0.12090  Biso   1.000  H
  H108     1.0000 0.07370  0.95020  0.62090  Biso   1.000  H
  H109     1.0000 0.63850  0.55200  0.30720  Biso   1.000  H
  H110     1.0000 0.86150  0.44800  0.80720  Biso   1.000  H
  H111     1.0000 0.36150  0.05200  0.19280  Biso   1.000  H
  H112     1.0000 0.13850  0.94800  0.69280  Biso   1.000  H
  C61      1.0000 0.88520  0.42340  0.28583  Biso   1.000  C
  C62      1.0000 0.61480  0.57660  0.78583  Biso   1.000  C
  C63      1.0000 0.11480  0.92340  0.21417  Biso   1.000  C
  C64      1.0000 0.38520  0.07660  0.71417  Biso   1.000  C
  C65      1.0000 0.78250  0.40300  0.23407  Biso   1.000  C
  C66      1.0000 0.71750  0.59700  0.73407  Biso   1.000  C
  C67      1.0000 0.21750  0.90300  0.26593  Biso   1.000  C
  C68      1.0000 0.28250  0.09700  0.76593  Biso   1.000  C
  H113     1.0000 0.70780  0.44110  0.23500  Biso   1.000  H
  H114     1.0000 0.79220  0.55890  0.73500  Biso   1.000  H
  H115     1.0000 0.29220  0.94110  0.26500  Biso   1.000  H
  H116     1.0000 0.20780  0.05890  0.76500  Biso   1.000  H
  C69      1.0000 0.72810  0.32280  0.24880  Biso   1.000  C
  C70      1.0000 0.77190  0.67720  0.74880  Biso   1.000  C
  C71      1.0000 0.27190  0.82280  0.25120  Biso   1.000  C
  C72      1.0000 0.22810  0.17720  0.75120  Biso   1.000  C
  H117     1.0000 0.65290  0.31170  0.21940  Biso   1.000  H
  H118     1.0000 0.84710  0.68830  0.71940  Biso   1.000  H
  H119     1.0000 0.34710  0.81170  0.28060  Biso   1.000  H
  H120     1.0000 0.15290  0.18830  0.78060  Biso   1.000  H
  H121     1.0000 0.69780  0.32050  0.29470  Biso   1.000  H
  H122     1.0000 0.80220  0.67950  0.79470  Biso   1.000  H
  H123     1.0000 0.30220  0.82050  0.20530  Biso   1.000  H
  H124     1.0000 0.19780  0.17950  0.70530  Biso   1.000  H
  H125     1.0000 0.79900  0.28480  0.24190  Biso   1.000  H
  H126     1.0000 0.70100  0.71520  0.74190  Biso   1.000  H
  H127     1.0000 0.20100  0.78480  0.25810  Biso   1.000  H
  H128     1.0000 0.29900  0.21520  0.75810  Biso   1.000  H
  C73      1.0000 0.60380  0.23590  0.48570  Biso   1.000  C
  C74      1.0000 0.89620  0.76410  0.98570  Biso   1.000  C
  C75      1.0000 0.39620  0.73590  0.01430  Biso   1.000  C
  C76      1.0000 0.10380  0.26410  0.51430  Biso   1.000  C
  H129     1.0000 0.58680  0.28490  0.50780  Biso   1.000  H
  H130     1.0000 0.91320  0.71510  0.00780  Biso   1.000  H
  H131     1.0000 0.41320  0.78490  0.99220  Biso   1.000  H
  H132     1.0000 0.08680  0.21510  0.49220  Biso   1.000  H
  H133     1.0000 0.64230  0.19950  0.51720  Biso   1.000  H
  H134     1.0000 0.85770  0.80050  0.01720  Biso   1.000  H
  H135     1.0000 0.35770  0.69950  0.98280  Biso   1.000  H
  H136     1.0000 0.14230  0.30050  0.48280  Biso   1.000  H
  H137     1.0000 0.51940  0.21540  0.46850  Biso   1.000  H
  H138     1.0000 0.98060  0.78460  0.96850  Biso   1.000  H
  H139     1.0000 0.48060  0.71540  0.03150  Biso   1.000  H
  H140     1.0000 0.01940  0.28460  0.53150  Biso   1.000  H
  H141     1.0000 0.43200  0.21660  0.23370  Biso   1.000  H
  H142     1.0000 0.06800  0.78340  0.73370  Biso   1.000  H
  H143     1.0000 0.56800  0.71660  0.26630  Biso   1.000  H
  H144     1.0000 0.93200  0.28340  0.76630  Biso   1.000  H
  H145     1.0000 0.39800  0.25300  0.29620  Biso   1.000  H
  H146     1.0000 0.10200  0.74700  0.79620  Biso   1.000  H
  H147     1.0000 0.60200  0.75300  0.20380  Biso   1.000  H
  H148     1.0000 0.89800  0.24700  0.70380  Biso   1.000  H
  H149     1.0000 0.06600  0.38530  0.06000  Biso   1.000  H
  H150     1.0000 0.43400  0.61470  0.56000  Biso   1.000  H
  H151     1.0000 0.93400  0.88530  0.44000  Biso   1.000  H
  H152     1.0000 0.56600  0.11470  0.94000  Biso   1.000  H
  H153     1.0000 0.27100  0.36050  0.22800  Biso   1.000  H
  H154     1.0000 0.22900  0.63950  0.72800  Biso   1.000  H
  H155     1.0000 0.72900  0.86050  0.27200  Biso   1.000  H
  H156     1.0000 0.77100  0.13950  0.77200  Biso   1.000  H
  H157     1.0000 0.77300  0.58590  0.22500  Biso   1.000  H
  H158     1.0000 0.72700  0.41410  0.72500  Biso   1.000  H
  H159     1.0000 0.22700  0.08590  0.27500  Biso   1.000  H
  H160     1.0000 0.27300  0.91410  0.77500  Biso   1.000  H
  H161     1.0000 0.80000  0.66850  0.22600  Biso   1.000  H
  H162     1.0000 0.70000  0.33150  0.72600  Biso   1.000  H
  H163     1.0000 0.20000  0.16850  0.27400  Biso   1.000  H
  H164     1.0000 0.30000  0.83150  0.77400  Biso   1.000  H
  H165     1.0000 0.72200  0.65350  0.37300  Biso   1.000  H
  H166     1.0000 0.77800  0.34650  0.87300  Biso   1.000  H
  H167     1.0000 0.27800  0.15350  0.12700  Biso   1.000  H
  H168     1.0000 0.22200  0.84650  0.62700  Biso   1.000  H
  H169     1.0000 0.07900  0.62070  0.39600  Biso   1.000  H
  H170     1.0000 0.42100  0.37930  0.89600  Biso   1.000  H
  H171     1.0000 0.92100  0.12070  0.10400  Biso   1.000  H
  H172     1.0000 0.57900  0.87930  0.60400  Biso   1.000  H
  H173     1.0000 0.82400  0.44170  0.14270  Biso   1.000  H
  H174     1.0000 0.67600  0.55830  0.64270  Biso   1.000  H
  H175     1.0000 0.17600  0.94170  0.35730  Biso   1.000  H
  H176     1.0000 0.32400  0.05830  0.85730  Biso   1.000  H
  H177     1.0000 0.82000  0.35940  0.15480  Biso   1.000  H
  H178     1.0000 0.68000  0.64060  0.65480  Biso   1.000  H
  H179     1.0000 0.18000  0.85940  0.34520  Biso   1.000  H
  H180     1.0000 0.32000  0.14060  0.84520  Biso   1.000  H
