data_image0
_cell_length_a       10.9897
_cell_length_b       11.2381
_cell_length_c       12.9222
_cell_angle_alpha    102.7
_cell_angle_beta     105.272
_cell_angle_gamma    91.721

_symmetry_space_group_name_H-M    "P 1"
_symmetry_int_tables_number       1

loop_
  _symmetry_equiv_pos_as_xyz
  'x, y, z'

loop_
  _atom_site_label
  _atom_site_occupancy
  _atom_site_fract_x
  _atom_site_fract_y
  _atom_site_fract_z
  _atom_site_thermal_displace_type
  _atom_site_B_iso_or_equiv
  _atom_site_type_symbol
  C1       1.0000 0.77290  0.08980  0.85330  Biso   1.000  C
  C2       1.0000 0.22710  0.91020  0.14670  Biso   1.000  C
  H1       1.0000 0.79740  0.06870  0.78850  Biso   1.000  H
  H2       1.0000 0.20260  0.93130  0.21150  Biso   1.000  H
  C3       1.0000 0.76530  0.11810  0.01310  Biso   1.000  C
  C4       1.0000 0.23470  0.88190  0.98690  Biso   1.000  C
  H3       1.0000 0.78750  0.11950  0.08800  Biso   1.000  H
  H4       1.0000 0.21250  0.88050  0.91200  Biso   1.000  H
  C5       1.0000 0.56630  0.17280  0.77530  Biso   1.000  C
  C6       1.0000 0.43370  0.82720  0.22470  Biso   1.000  C
  H5       1.0000 0.48830  0.12570  0.76910  Biso   1.000  H
  H6       1.0000 0.51170  0.87430  0.23090  Biso   1.000  H
  H7       1.0000 0.58480  0.15080  0.70450  Biso   1.000  H
  H8       1.0000 0.41520  0.84920  0.29550  Biso   1.000  H
  C7       1.0000 0.74810  0.35360  0.75250  Biso   1.000  C
  C8       1.0000 0.25190  0.64640  0.24750  Biso   1.000  C
  H9       1.0000 0.75450  0.26810  0.75010  Biso   1.000  H
  H10      1.0000 0.24550  0.73190  0.24990  Biso   1.000  H
  H11      1.0000 0.81970  0.40080  0.80750  Biso   1.000  H
  H12      1.0000 0.18030  0.59920  0.19250  Biso   1.000  H
  H13      1.0000 0.74640  0.36820  0.68170  Biso   1.000  H
  H14      1.0000 0.25360  0.63180  0.31830  Biso   1.000  H
  C9       1.0000 0.35450  0.25610  0.86120  Biso   1.000  C
  C10      1.0000 0.64550  0.74390  0.13880  Biso   1.000  C
  H15      1.0000 0.27620  0.29100  0.86320  Biso   1.000  H
  H16      1.0000 0.72380  0.70900  0.13680  Biso   1.000  H
  H17      1.0000 0.39250  0.23680  0.93070  Biso   1.000  H
  H18      1.0000 0.60750  0.76320  0.06930  Biso   1.000  H
  H19      1.0000 0.33820  0.18270  0.80320  Biso   1.000  H
  H20      1.0000 0.66180  0.81730  0.19680  Biso   1.000  H
  C11      1.0000 0.47070  0.68210  0.83410  Biso   1.000  C
  C12      1.0000 0.52930  0.31790  0.16590  Biso   1.000  C
  H21      1.0000 0.41620  0.68860  0.76450  Biso   1.000  H
  H22      1.0000 0.58380  0.31140  0.23550  Biso   1.000  H
  H23      1.0000 0.54820  0.73330  0.85070  Biso   1.000  H
  H24      1.0000 0.45180  0.26670  0.14930  Biso   1.000  H
  H25      1.0000 0.42940  0.70790  0.89100  Biso   1.000  H
  H26      1.0000 0.57060  0.29210  0.10900  Biso   1.000  H
  C13      1.0000 0.54680  0.30910  0.80080  Biso   1.000  C
  C14      1.0000 0.45320  0.69090  0.19920  Biso   1.000  C
  C15      1.0000 0.62750  0.39090  0.78100  Biso   1.000  C
  C16      1.0000 0.37250  0.60910  0.21900  Biso   1.000  C
  C17      1.0000 0.60230  0.51290  0.79080  Biso   1.000  C
  C18      1.0000 0.39770  0.48710  0.20920  Biso   1.000  C
  C19      1.0000 0.49940  0.55300  0.82800  Biso   1.000  C
  C20      1.0000 0.50060  0.44700  0.17200  Biso   1.000  C
  C21      1.0000 0.42220  0.47110  0.85660  Biso   1.000  C
  C22      1.0000 0.57780  0.52890  0.14340  Biso   1.000  C
  C23      1.0000 0.44340  0.34700  0.83990  Biso   1.000  C
  C24      1.0000 0.55660  0.65300  0.16010  Biso   1.000  C
  C25      1.0000 0.68220  0.59920  0.75510  Biso   1.000  C
  C26      1.0000 0.31780  0.40080  0.24490  Biso   1.000  C
  H27      1.0000 0.72630  0.55210  0.70630  Biso   1.000  H
  H28      1.0000 0.27370  0.44790  0.29370  Biso   1.000  H
  H29      1.0000 0.62770  0.64960  0.71440  Biso   1.000  H
  H30      1.0000 0.37230  0.35040  0.28560  Biso   1.000  H
  C27      1.0000 0.81470  0.79260  0.86330  Biso   1.000  C
  C28      1.0000 0.18530  0.20740  0.13670  Biso   1.000  C
  H31      1.0000 0.78310  0.83840  0.81200  Biso   1.000  H
  H32      1.0000 0.21690  0.16160  0.18800  Biso   1.000  H
  C29      1.0000 0.91400  0.73640  0.00100  Biso   1.000  C
  C30      1.0000 0.08600  0.26360  0.99900  Biso   1.000  C
  H33      1.0000 0.96900  0.73790  0.06980  Biso   1.000  H
  H34      1.0000 0.03100  0.26210  0.93020  Biso   1.000  H
  C31      1.0000 0.31840  0.51870  0.90540  Biso   1.000  C
  C32      1.0000 0.68160  0.48130  0.09460  Biso   1.000  C
  H35      1.0000 0.29800  0.46490  0.94900  Biso   1.000  H
  H36      1.0000 0.70200  0.53510  0.05100  Biso   1.000  H
  H37      1.0000 0.34610  0.59960  0.95340  Biso   1.000  H
  H38      1.0000 0.65390  0.40040  0.04660  Biso   1.000  H
  C33      1.0000 0.19260  0.50260  0.70960  Biso   1.000  C
  C34      1.0000 0.80740  0.49740  0.29040  Biso   1.000  C
  H39      1.0000 0.25560  0.47800  0.67570  Biso   1.000  H
  H40      1.0000 0.74440  0.52200  0.32430  Biso   1.000  H
  C35      1.0000 0.02500  0.54960  0.74030  Biso   1.000  C
  C36      1.0000 0.97500  0.45040  0.25970  Biso   1.000  C
  H41      1.0000 0.94020  0.56440  0.72880  Biso   1.000  H
  H42      1.0000 0.05980  0.43560  0.27120  Biso   1.000  H
  N1       1.0000 0.07600  0.52040  0.65760  Biso   1.000  N
  N2       1.0000 0.92400  0.47960  0.34240  Biso   1.000  N
  N3       1.0000 0.09870  0.55670  0.83860  Biso   1.000  N
  N4       1.0000 0.90130  0.44330  0.16140  Biso   1.000  N
  N5       1.0000 0.20570  0.52460  0.81550  Biso   1.000  N
  N6       1.0000 0.79430  0.47540  0.18450  Biso   1.000  N
  N7       1.0000 0.67050  0.13910  0.86030  Biso   1.000  N
  N8       1.0000 0.32950  0.86090  0.13970  Biso   1.000  N
  N9       1.0000 0.66110  0.16010  0.96560  Biso   1.000  N
  N10      1.0000 0.33890  0.83990  0.03440  Biso   1.000  N
  N11      1.0000 0.83880  0.07280  0.94890  Biso   1.000  N
  N12      1.0000 0.16120  0.92720  0.05110  Biso   1.000  N
  N13      1.0000 0.77590  0.67910  0.85160  Biso   1.000  N
  N14      1.0000 0.22410  0.32090  0.14840  Biso   1.000  N
  N15      1.0000 0.90440  0.83570  0.95660  Biso   1.000  N
  N16      1.0000 0.09560  0.16430  0.04340  Biso   1.000  N
  N17      1.0000 0.84050  0.63810  0.94040  Biso   1.000  N
  N18      1.0000 0.15950  0.36190  0.05960  Biso   1.000  N
  O1       1.0000 0.29030  0.15470  0.36750  Biso   1.000  O
  O2       1.0000 0.70970  0.84530  0.63250  Biso   1.000  O
  O3       1.0000 0.13600  0.24430  0.61170  Biso   1.000  O
  O4       1.0000 0.86400  0.75570  0.38830  Biso   1.000  O
  O5       1.0000 0.07860  0.25930  0.40310  Biso   1.000  O
  O6       1.0000 0.92140  0.74070  0.59690  Biso   1.000  O
  O7       1.0000 0.91340  0.95930  0.54950  Biso   1.000  O
  O8       1.0000 0.08660  0.04070  0.45050  Biso   1.000  O
  O9       1.0000 0.99860  0.06190  0.21170  Biso   1.000  O
  O10      1.0000 0.00140  0.93810  0.78830  Biso   1.000  O
  O11      1.0000 0.02320  0.81370  0.27690  Biso   1.000  O
  O12      1.0000 0.97680  0.18630  0.72310  Biso   1.000  O
  O13      1.0000 0.85360  0.97770  0.33530  Biso   1.000  O
  O14      1.0000 0.14640  0.02230  0.66470  Biso   1.000  O
  O15      1.0000 0.82760  0.20470  0.27740  Biso   1.000  O
  O16      1.0000 0.17240  0.79530  0.72260  Biso   1.000  O
  O17      1.0000 0.88900  0.16840  0.49240  Biso   1.000  O
  O18      1.0000 0.11100  0.83160  0.50760  Biso   1.000  O
  O19      1.0000 0.67630  0.88020  0.42360  Biso   1.000  O
  O20      1.0000 0.32370  0.11980  0.57640  Biso   1.000  O
  O21      1.0000 0.30510  0.90050  0.42480  Biso   1.000  O
  O22      1.0000 0.69490  0.09950  0.57520  Biso   1.000  O
  O23      1.0000 0.36870  0.89870  0.64030  Biso   1.000  O
  O24      1.0000 0.63130  0.10130  0.35970  Biso   1.000  O
  O25      1.0000 0.32560  0.35760  0.53260  Biso   1.000  O
  O26      1.0000 0.67440  0.64240  0.46740  Biso   1.000  O
  Cu1      1.0000 0.00000  0.50000  0.50000  Biso   1.000  Cu
  Cu2      1.0000 0.00000  0.00000  0.00000  Biso   1.000  Cu
  Mo1      1.0000 0.95024  0.12764  0.32669  Biso   1.000  Mo
  Mo2      1.0000 0.04976  0.87236  0.67331  Biso   1.000  Mo
  Mo3      1.0000 0.02477  0.13194  0.61122  Biso   1.000  Mo
  Mo4      1.0000 0.97523  0.86806  0.38878  Biso   1.000  Mo
  Mo5      1.0000 0.24104  0.21755  0.48025  Biso   1.000  Mo
  Mo6      1.0000 0.75896  0.78245  0.51975  Biso   1.000  Mo
  Mo7      1.0000 0.73653  0.04638  0.45623  Biso   1.000  Mo
  Mo8      1.0000 0.26347  0.95362  0.54377  Biso   1.000  Mo
  O27      1.0000 0.15340  0.58650  0.48190  Biso   1.000  O
  O28      1.0000 0.84660  0.41350  0.51810  Biso   1.000  O
  O29      1.0000 0.41980  0.63750  0.53960  Biso   1.000  O
  O30      1.0000 0.58020  0.36250  0.46040  Biso   1.000  O
  H43      1.0000 0.22700  0.57400  0.52100  Biso   1.000  H
  H44      1.0000 0.77300  0.42600  0.47900  Biso   1.000  H
  H45      1.0000 0.15500  0.66500  0.50500  Biso   1.000  H
  H46      1.0000 0.84500  0.33500  0.49500  Biso   1.000  H
  H47      1.0000 0.46900  0.60200  0.50300  Biso   1.000  H
  H48      1.0000 0.53100  0.39800  0.49700  Biso   1.000  H
  H49      1.0000 0.43000  0.71500  0.55200  Biso   1.000  H
  H50      1.0000 0.57000  0.28500  0.44800  Biso   1.000  H
