data_image0
_cell_length_a       8.033
_cell_length_b       9.641
_cell_length_c       10.724
_cell_angle_alpha    77.318
_cell_angle_beta     68.181
_cell_angle_gamma    69.813

_symmetry_space_group_name_H-M    "P 1"
_symmetry_int_tables_number       1

loop_
  _symmetry_equiv_pos_as_xyz
  'x, y, z'

loop_
  _atom_site_label
  _atom_site_occupancy
  _atom_site_fract_x
  _atom_site_fract_y
  _atom_site_fract_z
  _atom_site_thermal_displace_type
  _atom_site_B_iso_or_equiv
  _atom_site_type_symbol
  Cu1      1.0000 0.50000  0.50000  0.00000  Biso   1.000  Cu
  C1       1.0000 0.89910  0.34760  0.82160  Biso   1.000  C
  C2       1.0000 0.10090  0.65240  0.17840  Biso   1.000  C
  H1       1.0000 0.94900  0.30580  0.89150  Biso   1.000  H
  H2       1.0000 0.05100  0.69420  0.10850  Biso   1.000  H
  C3       1.0000 0.19030  0.26570  0.62300  Biso   1.000  C
  C4       1.0000 0.80970  0.73430  0.37700  Biso   1.000  C
  H3       1.0000 0.25700  0.23410  0.68820  Biso   1.000  H
  H4       1.0000 0.74300  0.76590  0.31180  Biso   1.000  H
  H5       1.0000 0.24280  0.33790  0.55540  Biso   1.000  H
  H6       1.0000 0.75720  0.66210  0.44460  Biso   1.000  H
  C5       1.0000 0.21960  0.13320  0.55580  Biso   1.000  C
  C6       1.0000 0.78040  0.86680  0.44420  Biso   1.000  C
  C7       1.0000 0.33080  0.12070  0.42230  Biso   1.000  C
  C8       1.0000 0.66920  0.87930  0.57770  Biso   1.000  C
  H7       1.0000 0.38100  0.19710  0.37230  Biso   1.000  H
  H8       1.0000 0.61900  0.80290  0.62770  Biso   1.000  H
  C9       1.0000 0.36780  0.99500  0.36280  Biso   1.000  C
  C10      1.0000 0.63220  0.00500  0.63720  Biso   1.000  C
  H9       1.0000 0.44280  0.98710  0.27300  Biso   1.000  H
  H10      1.0000 0.55720  0.01290  0.72700  Biso   1.000  H
  C11      1.0000 0.29320  0.88130  0.43660  Biso   1.000  C
  C12      1.0000 0.70680  0.11870  0.56340  Biso   1.000  C
  H11      1.0000 0.32000  0.79620  0.39670  Biso   1.000  H
  H12      1.0000 0.68000  0.20380  0.60330  Biso   1.000  H
  C13      1.0000 0.17830  0.89340  0.57020  Biso   1.000  C
  C14      1.0000 0.82170  0.10660  0.42980  Biso   1.000  C
  C15      1.0000 0.14100  0.02030  0.62860  Biso   1.000  C
  C16      1.0000 0.85900  0.97970  0.37140  Biso   1.000  C
  H13      1.0000 0.06260  0.02990  0.71740  Biso   1.000  H
  H14      1.0000 0.93740  0.97010  0.28260  Biso   1.000  H
  C17      1.0000 0.08810  0.77480  0.65080  Biso   1.000  C
  C18      1.0000 0.91190  0.22520  0.34920  Biso   1.000  C
  H15      1.0000 0.96200  0.82130  0.70690  Biso   1.000  H
  H16      1.0000 0.03800  0.17870  0.29310  Biso   1.000  H
  H17      1.0000 0.07880  0.71940  0.58960  Biso   1.000  H
  H18      1.0000 0.92120  0.28060  0.41040  Biso   1.000  H
  C19      1.0000 0.27670  0.69250  0.81440  Biso   1.000  C
  C20      1.0000 0.72330  0.30750  0.18560  Biso   1.000  C
  H19      1.0000 0.29180  0.78250  0.81870  Biso   1.000  H
  H20      1.0000 0.70820  0.21750  0.18130  Biso   1.000  H
  N1       1.0000 0.72480  0.42718  0.83536  Biso   1.000  N
  N2       1.0000 0.27520  0.57282  0.16464  Biso   1.000  N
  N3       1.0000 0.71310  0.46480  0.70802  Biso   1.000  N
  N4       1.0000 0.28690  0.53520  0.29198  Biso   1.000  N
  N5       1.0000 0.87320  0.41050  0.62150  Biso   1.000  N
  N6       1.0000 0.12680  0.58950  0.37850  Biso   1.000  N
  N7       1.0000 0.99150  0.33672  0.69181  Biso   1.000  N
  N8       1.0000 0.00850  0.66328  0.30819  Biso   1.000  N
  N9       1.0000 0.19390  0.67088  0.73775  Biso   1.000  N
  N10      1.0000 0.80610  0.32912  0.26225  Biso   1.000  N
  N11      1.0000 0.20020  0.52770  0.75860  Biso   1.000  N
  N12      1.0000 0.79980  0.47230  0.24140  Biso   1.000  N
  N13      1.0000 0.28500  0.46490  0.84600  Biso   1.000  N
  N14      1.0000 0.71500  0.53510  0.15400  Biso   1.000  N
  N15      1.0000 0.33390  0.56631  0.88355  Biso   1.000  N
  N16      1.0000 0.66610  0.43369  0.11645  Biso   1.000  N
  O1       1.0000 0.44330  0.26786  0.06371  Biso   1.000  O
  O2       1.0000 0.55670  0.73214  0.93629  Biso   1.000  O
  H21      1.0000 0.53390  0.20510  0.02150  Biso   1.000  H
  H22      1.0000 0.46610  0.79490  0.97850  Biso   1.000  H
  H23      1.0000 0.34790  0.25860  0.05320  Biso   1.000  H
  H24      1.0000 0.65210  0.74140  0.94680  Biso   1.000  H
  N17      1.0000 0.20140  0.05500  0.00261  Biso   1.000  N
  N18      1.0000 0.79860  0.94500  0.99739  Biso   1.000  N
  O3       1.0000 0.12710  0.18621  0.02988  Biso   1.000  O
  O4       1.0000 0.87290  0.81379  0.97012  Biso   1.000  O
  O5       1.0000 0.26660  0.95850  0.08311  Biso   1.000  O
  O6       1.0000 0.73340  0.04150  0.91689  Biso   1.000  O
  O7       1.0000 0.20760  0.02160  0.89579  Biso   1.000  O
  O8       1.0000 0.79240  0.97840  0.10421  Biso   1.000  O
