data_image0
_cell_length_a       10.7838
_cell_length_b       14.04
_cell_length_c       13.344
_cell_angle_alpha    90
_cell_angle_beta     113.389
_cell_angle_gamma    90

_symmetry_space_group_name_H-M    "P 1"
_symmetry_int_tables_number       1

loop_
  _symmetry_equiv_pos_as_xyz
  'x, y, z'

loop_
  _atom_site_label
  _atom_site_occupancy
  _atom_site_fract_x
  _atom_site_fract_y
  _atom_site_fract_z
  _atom_site_thermal_displace_type
  _atom_site_B_iso_or_equiv
  _atom_site_type_symbol
  Cu1      1.0000 0.70795  0.26136  0.54476  Biso   1.000  Cu
  Cu2      1.0000 0.79205  0.76136  0.95524  Biso   1.000  Cu
  Cu3      1.0000 0.29205  0.73864  0.45524  Biso   1.000  Cu
  Cu4      1.0000 0.20795  0.23864  0.04476  Biso   1.000  Cu
  S1       1.0000 0.00327  0.22048  0.76616  Biso   1.000  S
  S2       1.0000 0.49673  0.72048  0.73384  Biso   1.000  S
  S3       1.0000 0.99673  0.77952  0.23384  Biso   1.000  S
  S4       1.0000 0.50327  0.27952  0.26616  Biso   1.000  S
  O1       1.0000 0.55544  0.26750  0.61045  Biso   1.000  O
  O2       1.0000 0.94456  0.76750  0.88955  Biso   1.000  O
  O3       1.0000 0.44456  0.73250  0.38955  Biso   1.000  O
  O4       1.0000 0.05544  0.23250  0.11045  Biso   1.000  O
  O5       1.0000 0.86200  0.25241  0.72239  Biso   1.000  O
  O6       1.0000 0.63800  0.75241  0.77761  Biso   1.000  O
  O7       1.0000 0.13800  0.74759  0.27761  Biso   1.000  O
  O8       1.0000 0.36200  0.24759  0.22239  Biso   1.000  O
  O9       1.0000 0.06680  0.25316  0.87888  Biso   1.000  O
  O10      1.0000 0.43320  0.75316  0.62112  Biso   1.000  O
  O11      1.0000 0.93320  0.74684  0.12112  Biso   1.000  O
  O12      1.0000 0.56680  0.24684  0.37888  Biso   1.000  O
  O13      1.0000 0.00890  0.11609  0.76094  Biso   1.000  O
  O14      1.0000 0.49110  0.61609  0.73906  Biso   1.000  O
  O15      1.0000 0.99110  0.88391  0.23906  Biso   1.000  O
  O16      1.0000 0.50890  0.38391  0.26094  Biso   1.000  O
  O17      1.0000 0.07280  0.26064  0.70128  Biso   1.000  O
  O18      1.0000 0.42720  0.76064  0.79872  Biso   1.000  O
  O19      1.0000 0.92720  0.73936  0.29872  Biso   1.000  O
  O20      1.0000 0.57280  0.23936  0.20128  Biso   1.000  O
  O21      1.0000 0.86700  0.26209  0.50082  Biso   1.000  O
  O22      1.0000 0.63300  0.76209  0.99918  Biso   1.000  O
  O23      1.0000 0.13300  0.73791  0.49918  Biso   1.000  O
  O24      1.0000 0.36700  0.23791  0.00082  Biso   1.000  O
  H1       1.0000 0.93850  0.25450  0.55870  Biso   1.000  H
  H2       1.0000 0.56150  0.75450  0.94130  Biso   1.000  H
  H3       1.0000 0.06150  0.74550  0.44130  Biso   1.000  H
  H4       1.0000 0.43850  0.24550  0.05870  Biso   1.000  H
  H5       1.0000 0.86620  0.23120  0.44490  Biso   1.000  H
  H6       1.0000 0.63380  0.73120  0.05510  Biso   1.000  H
  H7       1.0000 0.13380  0.76880  0.55510  Biso   1.000  H
  H8       1.0000 0.36620  0.26880  0.94490  Biso   1.000  H
  N1       1.0000 0.68000  0.12363  0.56581  Biso   1.000  N
  N2       1.0000 0.82000  0.62363  0.93419  Biso   1.000  N
  N3       1.0000 0.32000  0.87637  0.43419  Biso   1.000  N
  N4       1.0000 0.18000  0.37637  0.06581  Biso   1.000  N
  N5       1.0000 0.68820  0.39852  0.56273  Biso   1.000  N
  N6       1.0000 0.81180  0.89852  0.93727  Biso   1.000  N
  N7       1.0000 0.31180  0.60148  0.43727  Biso   1.000  N
  N8       1.0000 0.18820  0.10148  0.06273  Biso   1.000  N
  N9       1.0000 0.61690  0.51853  0.63313  Biso   1.000  N
  N10      1.0000 0.88310  0.01853  0.86687  Biso   1.000  N
  N11      1.0000 0.38310  0.48147  0.36687  Biso   1.000  N
  N12      1.0000 0.11690  0.98147  0.13313  Biso   1.000  N
  H9       1.0000 0.57420  0.55090  0.66760  Biso   1.000  H
  H10      1.0000 0.92580  0.05090  0.83240  Biso   1.000  H
  H11      1.0000 0.42580  0.44910  0.33240  Biso   1.000  H
  H12      1.0000 0.07420  0.94910  0.16760  Biso   1.000  H
  C1       1.0000 0.73770  0.05172  0.53780  Biso   1.000  C
  C2       1.0000 0.76230  0.55172  0.96220  Biso   1.000  C
  C3       1.0000 0.26230  0.94828  0.46220  Biso   1.000  C
  C4       1.0000 0.23770  0.44828  0.03780  Biso   1.000  C
  H13      1.0000 0.79110  0.06430  0.49920  Biso   1.000  H
  H14      1.0000 0.70890  0.56430  0.00080  Biso   1.000  H
  H15      1.0000 0.20890  0.93570  0.50080  Biso   1.000  H
  H16      1.0000 0.29110  0.43570  0.99920  Biso   1.000  H
  C5       1.0000 0.72210  0.95745  0.56360  Biso   1.000  C
  C6       1.0000 0.77790  0.45745  0.93640  Biso   1.000  C
  C7       1.0000 0.27790  0.04255  0.43640  Biso   1.000  C
  C8       1.0000 0.22210  0.54255  0.06360  Biso   1.000  C
  H17      1.0000 0.76420  0.90860  0.54180  Biso   1.000  H
  H18      1.0000 0.73580  0.40860  0.95820  Biso   1.000  H
  H19      1.0000 0.23580  0.09140  0.45820  Biso   1.000  H
  H20      1.0000 0.26420  0.59140  0.04180  Biso   1.000  H
  C9       1.0000 0.64560  0.93707  0.62040  Biso   1.000  C
  C10      1.0000 0.85440  0.43707  0.87960  Biso   1.000  C
  C11      1.0000 0.35440  0.06293  0.37960  Biso   1.000  C
  C12      1.0000 0.14560  0.56293  0.12040  Biso   1.000  C
  H21      1.0000 0.63470  0.87430  0.63750  Biso   1.000  H
  H22      1.0000 0.86530  0.37430  0.86250  Biso   1.000  H
  H23      1.0000 0.36530  0.12570  0.36250  Biso   1.000  H
  H24      1.0000 0.13470  0.62570  0.13750  Biso   1.000  H
  C13      1.0000 0.58250  0.01145  0.65330  Biso   1.000  C
  C14      1.0000 0.91750  0.51145  0.84670  Biso   1.000  C
  C15      1.0000 0.41750  0.98855  0.34670  Biso   1.000  C
  C16      1.0000 0.08250  0.48855  0.15330  Biso   1.000  C
  C17      1.0000 0.50250  0.99800  0.71350  Biso   1.000  C
  C18      1.0000 0.99750  0.49800  0.78650  Biso   1.000  C
  C19      1.0000 0.49750  0.00200  0.28650  Biso   1.000  C
  C20      1.0000 0.00250  0.50200  0.21350  Biso   1.000  C
  H25      1.0000 0.49000  0.93700  0.73500  Biso   1.000  H
  H26      1.0000 0.01000  0.43700  0.76500  Biso   1.000  H
  H27      1.0000 0.51000  0.06300  0.26500  Biso   1.000  H
  H28      1.0000 0.99000  0.56300  0.23500  Biso   1.000  H
  C21      1.0000 0.44350  0.07360  0.74040  Biso   1.000  C
  C22      1.0000 0.05650  0.57360  0.75960  Biso   1.000  C
  C23      1.0000 0.55650  0.92640  0.25960  Biso   1.000  C
  C24      1.0000 0.94350  0.42640  0.24040  Biso   1.000  C
  H29      1.0000 0.39130  0.06360  0.78070  Biso   1.000  H
  H30      1.0000 0.10870  0.56360  0.71930  Biso   1.000  H
  H31      1.0000 0.60870  0.93640  0.21930  Biso   1.000  H
  H32      1.0000 0.89130  0.43640  0.28070  Biso   1.000  H
  C25      1.0000 0.45950  0.16670  0.70870  Biso   1.000  C
  C26      1.0000 0.04050  0.66670  0.79130  Biso   1.000  C
  C27      1.0000 0.54050  0.83330  0.29130  Biso   1.000  C
  C28      1.0000 0.95950  0.33330  0.20870  Biso   1.000  C
  H33      1.0000 0.41760  0.21780  0.72700  Biso   1.000  H
  H34      1.0000 0.08240  0.71780  0.77300  Biso   1.000  H
  H35      1.0000 0.58240  0.78220  0.27300  Biso   1.000  H
  H36      1.0000 0.91760  0.28220  0.22700  Biso   1.000  H
  C29      1.0000 0.53650  0.18095  0.65142  Biso   1.000  C
  C30      1.0000 0.96350  0.68095  0.84858  Biso   1.000  C
  C31      1.0000 0.46350  0.81905  0.34858  Biso   1.000  C
  C32      1.0000 0.03650  0.31905  0.15142  Biso   1.000  C
  C33      1.0000 0.60160  0.10455  0.62259  Biso   1.000  C
  C34      1.0000 0.89840  0.60455  0.87741  Biso   1.000  C
  C35      1.0000 0.39840  0.89545  0.37741  Biso   1.000  C
  C36      1.0000 0.10160  0.39545  0.12259  Biso   1.000  C
  C37      1.0000 0.55320  0.35354  0.66680  Biso   1.000  C
  C38      1.0000 0.94680  0.85354  0.83320  Biso   1.000  C
  C39      1.0000 0.44680  0.64646  0.33320  Biso   1.000  C
  C40      1.0000 0.05320  0.14646  0.16680  Biso   1.000  C
  H37      1.0000 0.60330  0.34640  0.74490  Biso   1.000  H
  H38      1.0000 0.89670  0.84640  0.75510  Biso   1.000  H
  H39      1.0000 0.39670  0.65360  0.25510  Biso   1.000  H
  H40      1.0000 0.10330  0.15360  0.24490  Biso   1.000  H
  H41      1.0000 0.46120  0.37230  0.65290  Biso   1.000  H
  H42      1.0000 0.03880  0.87230  0.84710  Biso   1.000  H
  H43      1.0000 0.53880  0.62770  0.34710  Biso   1.000  H
  H44      1.0000 0.96120  0.12770  0.15290  Biso   1.000  H
  C41      1.0000 0.61930  0.42445  0.62048  Biso   1.000  C
  C42      1.0000 0.88070  0.92445  0.87952  Biso   1.000  C
  C43      1.0000 0.38070  0.57555  0.37952  Biso   1.000  C
  C44      1.0000 0.11930  0.07555  0.12048  Biso   1.000  C
  C45      1.0000 0.73470  0.48229  0.53462  Biso   1.000  C
  C46      1.0000 0.76530  0.98229  0.96538  Biso   1.000  C
  C47      1.0000 0.26530  0.51771  0.46538  Biso   1.000  C
  C48      1.0000 0.23470  0.01771  0.03462  Biso   1.000  C
  C49      1.0000 0.81100  0.49800  0.47390  Biso   1.000  C
  C50      1.0000 0.68900  0.99800  0.02610  Biso   1.000  C
  C51      1.0000 0.18900  0.50200  0.52610  Biso   1.000  C
  C52      1.0000 0.31100  0.00200  0.97390  Biso   1.000  C
  H45      1.0000 0.83980  0.44770  0.44300  Biso   1.000  H
  H46      1.0000 0.66020  0.94770  0.05700  Biso   1.000  H
  H47      1.0000 0.16020  0.55230  0.55700  Biso   1.000  H
  H48      1.0000 0.33980  0.05230  0.94300  Biso   1.000  H
  C53      1.0000 0.84260  0.59060  0.46090  Biso   1.000  C
  C54      1.0000 0.65740  0.09060  0.03910  Biso   1.000  C
  C55      1.0000 0.15740  0.40940  0.53910  Biso   1.000  C
  C56      1.0000 0.34260  0.90940  0.96090  Biso   1.000  C
  H49      1.0000 0.89330  0.60340  0.42010  Biso   1.000  H
  H50      1.0000 0.60670  0.10340  0.07990  Biso   1.000  H
  H51      1.0000 0.10670  0.39660  0.57990  Biso   1.000  H
  H52      1.0000 0.39330  0.89660  0.92010  Biso   1.000  H
  C57      1.0000 0.80020  0.66600  0.50780  Biso   1.000  C
  C58      1.0000 0.69980  0.16600  0.99220  Biso   1.000  C
  C59      1.0000 0.19980  0.33400  0.49220  Biso   1.000  C
  C60      1.0000 0.30020  0.83400  0.00780  Biso   1.000  C
  H53      1.0000 0.82450  0.72770  0.49800  Biso   1.000  H
  H54      1.0000 0.67550  0.22770  0.00200  Biso   1.000  H
  H55      1.0000 0.17550  0.27230  0.50200  Biso   1.000  H
  H56      1.0000 0.32450  0.77230  0.99800  Biso   1.000  H
  C61      1.0000 0.72380  0.65196  0.56800  Biso   1.000  C
  C62      1.0000 0.77620  0.15196  0.93200  Biso   1.000  C
  C63      1.0000 0.27620  0.34804  0.43200  Biso   1.000  C
  C64      1.0000 0.22380  0.84804  0.06800  Biso   1.000  C
  H57      1.0000 0.69560  0.70250  0.59880  Biso   1.000  H
  H58      1.0000 0.80440  0.20250  0.90120  Biso   1.000  H
  H59      1.0000 0.30440  0.29750  0.40120  Biso   1.000  H
  H60      1.0000 0.19560  0.79750  0.09880  Biso   1.000  H
  C65      1.0000 0.69110  0.55851  0.58010  Biso   1.000  C
  C66      1.0000 0.80890  0.05851  0.91990  Biso   1.000  C
  C67      1.0000 0.30890  0.44149  0.41990  Biso   1.000  C
  C68      1.0000 0.19110  0.94149  0.08010  Biso   1.000  C
  O25      1.0000 0.33290  0.33450  0.81860  Biso   1.000  O
  O26      1.0000 0.16710  0.83450  0.68140  Biso   1.000  O
  O27      1.0000 0.66710  0.66550  0.18140  Biso   1.000  O
  O28      1.0000 0.83290  0.16550  0.31860  Biso   1.000  O
  H61      1.0000 0.24700  0.31900  0.77800  Biso   1.000  H
  H62      1.0000 0.25300  0.81900  0.72200  Biso   1.000  H
  H63      1.0000 0.75300  0.68100  0.22200  Biso   1.000  H
  H64      1.0000 0.74700  0.18100  0.27800  Biso   1.000  H
  H65      1.0000 0.34300  0.39000  0.82400  Biso   1.000  H
  H66      1.0000 0.15700  0.89000  0.67600  Biso   1.000  H
  H67      1.0000 0.65700  0.61000  0.17600  Biso   1.000  H
  H68      1.0000 0.84300  0.11000  0.32400  Biso   1.000  H
  O29      1.0000 0.09870  0.02830  0.61820  Biso   1.000  O
  O30      1.0000 0.40130  0.52830  0.88180  Biso   1.000  O
  O31      1.0000 0.90130  0.97170  0.38180  Biso   1.000  O
  O32      1.0000 0.59870  0.47170  0.11820  Biso   1.000  O
  H69      1.0000 0.05600  0.05700  0.66400  Biso   1.000  H
  H70      1.0000 0.44400  0.55700  0.83600  Biso   1.000  H
  H71      1.0000 0.94400  0.94300  0.33600  Biso   1.000  H
  H72      1.0000 0.55600  0.44300  0.16400  Biso   1.000  H
  H73      1.0000 0.05000  0.99300  0.58800  Biso   1.000  H
  H74      1.0000 0.45000  0.49300  0.91200  Biso   1.000  H
  H75      1.0000 0.95000  0.00700  0.41200  Biso   1.000  H
  H76      1.0000 0.55000  0.50700  0.08800  Biso   1.000  H
