data_image0
_cell_length_a       12.2302
_cell_length_b       11.4007
_cell_length_c       10.1791
_cell_angle_alpha    90
_cell_angle_beta     118.409
_cell_angle_gamma    90

_symmetry_space_group_name_H-M    "P 1"
_symmetry_int_tables_number       1

loop_
  _symmetry_equiv_pos_as_xyz
  'x, y, z'

loop_
  _atom_site_label
  _atom_site_occupancy
  _atom_site_fract_x
  _atom_site_fract_y
  _atom_site_fract_z
  _atom_site_thermal_displace_type
  _atom_site_B_iso_or_equiv
  _atom_site_type_symbol
  C1       1.0000 0.13000  0.12550  0.65460  Biso   1.000  C
  C2       1.0000 0.87000  0.12550  0.84540  Biso   1.000  C
  C3       1.0000 0.63000  0.62550  0.65460  Biso   1.000  C
  C4       1.0000 0.37000  0.62550  0.84540  Biso   1.000  C
  C5       1.0000 0.87000  0.87450  0.34540  Biso   1.000  C
  C6       1.0000 0.13000  0.87450  0.15460  Biso   1.000  C
  C7       1.0000 0.37000  0.37450  0.34540  Biso   1.000  C
  C8       1.0000 0.63000  0.37450  0.15460  Biso   1.000  C
  H1       1.0000 0.20640  0.10070  0.73060  Biso   1.000  H
  H2       1.0000 0.79360  0.10070  0.76940  Biso   1.000  H
  H3       1.0000 0.70640  0.60070  0.73060  Biso   1.000  H
  H4       1.0000 0.29360  0.60070  0.76940  Biso   1.000  H
  H5       1.0000 0.79360  0.89930  0.26940  Biso   1.000  H
  H6       1.0000 0.20640  0.89930  0.23060  Biso   1.000  H
  H7       1.0000 0.29360  0.39930  0.26940  Biso   1.000  H
  H8       1.0000 0.70640  0.39930  0.23060  Biso   1.000  H
  C9       1.0000 0.98870  0.21010  0.45570  Biso   1.000  C
  C10      1.0000 0.01130  0.21010  0.04430  Biso   1.000  C
  C11      1.0000 0.48870  0.71010  0.45570  Biso   1.000  C
  C12      1.0000 0.51130  0.71010  0.04430  Biso   1.000  C
  C13      1.0000 0.01130  0.78990  0.54430  Biso   1.000  C
  C14      1.0000 0.98870  0.78990  0.95570  Biso   1.000  C
  C15      1.0000 0.51130  0.28990  0.54430  Biso   1.000  C
  C16      1.0000 0.48870  0.28990  0.95570  Biso   1.000  C
  H9       1.0000 0.95080  0.25500  0.36910  Biso   1.000  H
  H10      1.0000 0.04920  0.25500  0.13090  Biso   1.000  H
  H11      1.0000 0.45080  0.75500  0.36910  Biso   1.000  H
  H12      1.0000 0.54920  0.75500  0.13090  Biso   1.000  H
  H13      1.0000 0.04920  0.74500  0.63090  Biso   1.000  H
  H14      1.0000 0.95080  0.74500  0.86910  Biso   1.000  H
  H15      1.0000 0.54920  0.24500  0.63090  Biso   1.000  H
  H16      1.0000 0.45080  0.24500  0.86910  Biso   1.000  H
  C17      1.0000 0.92830  0.15140  0.51770  Biso   1.000  C
  C18      1.0000 0.07170  0.15140  0.98230  Biso   1.000  C
  C19      1.0000 0.42830  0.65140  0.51770  Biso   1.000  C
  C20      1.0000 0.57170  0.65140  0.98230  Biso   1.000  C
  C21      1.0000 0.07170  0.84860  0.48230  Biso   1.000  C
  C22      1.0000 0.92830  0.84860  0.01770  Biso   1.000  C
  C23      1.0000 0.57170  0.34860  0.48230  Biso   1.000  C
  C24      1.0000 0.42830  0.34860  0.01770  Biso   1.000  C
  H17      1.0000 0.84290  0.14770  0.48210  Biso   1.000  H
  H18      1.0000 0.15710  0.14770  0.01790  Biso   1.000  H
  H19      1.0000 0.34290  0.64770  0.48210  Biso   1.000  H
  H20      1.0000 0.65710  0.64770  0.01790  Biso   1.000  H
  H21      1.0000 0.15710  0.85230  0.51790  Biso   1.000  H
  H22      1.0000 0.84290  0.85230  0.98210  Biso   1.000  H
  H23      1.0000 0.65710  0.35230  0.51790  Biso   1.000  H
  H24      1.0000 0.34290  0.35230  0.98210  Biso   1.000  H
  C25      1.0000 0.00000  0.02670  0.75000  Biso   1.000  C
  C26      1.0000 0.50000  0.52670  0.75000  Biso   1.000  C
  C27      1.0000 0.00000  0.97330  0.25000  Biso   1.000  C
  C28      1.0000 0.50000  0.47330  0.25000  Biso   1.000  C
  H25      1.0000 0.92820  0.97670  0.69580  Biso   1.000  H
  H26      1.0000 0.07180  0.97670  0.80420  Biso   1.000  H
  H27      1.0000 0.42820  0.47670  0.69580  Biso   1.000  H
  H28      1.0000 0.57180  0.47670  0.80420  Biso   1.000  H
  H29      1.0000 0.07180  0.02330  0.30420  Biso   1.000  H
  H30      1.0000 0.92820  0.02330  0.19580  Biso   1.000  H
  H31      1.0000 0.57180  0.52330  0.30420  Biso   1.000  H
  H32      1.0000 0.42820  0.52330  0.19580  Biso   1.000  H
  C29      1.0000 0.13320  0.45540  0.41590  Biso   1.000  C
  C30      1.0000 0.86680  0.45540  0.08410  Biso   1.000  C
  C31      1.0000 0.63320  0.95540  0.41590  Biso   1.000  C
  C32      1.0000 0.36680  0.95540  0.08410  Biso   1.000  C
  C33      1.0000 0.86680  0.54460  0.58410  Biso   1.000  C
  C34      1.0000 0.13320  0.54460  0.91590  Biso   1.000  C
  C35      1.0000 0.36680  0.04460  0.58410  Biso   1.000  C
  C36      1.0000 0.63320  0.04460  0.91590  Biso   1.000  C
  C37      1.0000 0.03210  0.54140  0.32830  Biso   1.000  C
  C38      1.0000 0.96790  0.54140  0.17170  Biso   1.000  C
  C39      1.0000 0.53210  0.04140  0.32830  Biso   1.000  C
  C40      1.0000 0.46790  0.04140  0.17170  Biso   1.000  C
  C41      1.0000 0.96790  0.45860  0.67170  Biso   1.000  C
  C42      1.0000 0.03210  0.45860  0.82830  Biso   1.000  C
  C43      1.0000 0.46790  0.95860  0.67170  Biso   1.000  C
  C44      1.0000 0.53210  0.95860  0.82830  Biso   1.000  C
  H33      1.0000 0.06790  0.61900  0.35890  Biso   1.000  H
  H34      1.0000 0.93210  0.61900  0.14110  Biso   1.000  H
  H35      1.0000 0.56790  0.11900  0.35890  Biso   1.000  H
  H36      1.0000 0.43210  0.11900  0.14110  Biso   1.000  H
  H37      1.0000 0.93210  0.38100  0.64110  Biso   1.000  H
  H38      1.0000 0.06790  0.38100  0.85890  Biso   1.000  H
  H39      1.0000 0.43210  0.88100  0.64110  Biso   1.000  H
  H40      1.0000 0.56790  0.88100  0.85890  Biso   1.000  H
  H41      1.0000 0.97020  0.53300  0.36160  Biso   1.000  H
  H42      1.0000 0.02980  0.53300  0.13840  Biso   1.000  H
  H43      1.0000 0.47020  0.03300  0.36160  Biso   1.000  H
  H44      1.0000 0.52980  0.03300  0.13840  Biso   1.000  H
  H45      1.0000 0.02980  0.46700  0.63840  Biso   1.000  H
  H46      1.0000 0.97020  0.46700  0.86160  Biso   1.000  H
  H47      1.0000 0.52980  0.96700  0.63840  Biso   1.000  H
  H48      1.0000 0.47020  0.96700  0.86160  Biso   1.000  H
  Cu1      1.0000 0.25000  0.25000  0.50000  Biso   1.000  Cu
  Cu2      1.0000 0.75000  0.25000  0.00000  Biso   1.000  Cu
  Cu3      1.0000 0.75000  0.75000  0.50000  Biso   1.000  Cu
  Cu4      1.0000 0.25000  0.75000  0.00000  Biso   1.000  Cu
  N1       1.0000 0.11480  0.19280  0.54070  Biso   1.000  N
  N2       1.0000 0.88520  0.19280  0.95930  Biso   1.000  N
  N3       1.0000 0.61480  0.69280  0.54070  Biso   1.000  N
  N4       1.0000 0.38520  0.69280  0.95930  Biso   1.000  N
  N5       1.0000 0.88520  0.80720  0.45930  Biso   1.000  N
  N6       1.0000 0.11480  0.80720  0.04070  Biso   1.000  N
  N7       1.0000 0.38520  0.30720  0.45930  Biso   1.000  N
  N8       1.0000 0.61480  0.30720  0.04070  Biso   1.000  N
  N9       1.0000 0.01910  0.09820  0.64430  Biso   1.000  N
  N10      1.0000 0.98090  0.09820  0.85570  Biso   1.000  N
  N11      1.0000 0.51910  0.59820  0.64430  Biso   1.000  N
  N12      1.0000 0.48090  0.59820  0.85570  Biso   1.000  N
  N13      1.0000 0.98090  0.90180  0.35570  Biso   1.000  N
  N14      1.0000 0.01910  0.90180  0.14430  Biso   1.000  N
  N15      1.0000 0.48090  0.40180  0.35570  Biso   1.000  N
  N16      1.0000 0.51910  0.40180  0.14430  Biso   1.000  N
  O1       1.0000 0.13580  0.35970  0.35210  Biso   1.000  O
  O2       1.0000 0.86420  0.35970  0.14790  Biso   1.000  O
  O3       1.0000 0.63580  0.85970  0.35210  Biso   1.000  O
  O4       1.0000 0.36420  0.85970  0.14790  Biso   1.000  O
  O5       1.0000 0.86420  0.64030  0.64790  Biso   1.000  O
  O6       1.0000 0.13580  0.64030  0.85210  Biso   1.000  O
  O7       1.0000 0.36420  0.14030  0.64790  Biso   1.000  O
  O8       1.0000 0.63580  0.14030  0.85210  Biso   1.000  O
  O9       1.0000 0.20490  0.47580  0.54850  Biso   1.000  O
  O10      1.0000 0.79510  0.47580  0.95150  Biso   1.000  O
  O11      1.0000 0.70490  0.97580  0.54850  Biso   1.000  O
  O12      1.0000 0.29510  0.97580  0.95150  Biso   1.000  O
  O13      1.0000 0.79510  0.52420  0.45150  Biso   1.000  O
  O14      1.0000 0.20490  0.52420  0.04850  Biso   1.000  O
  O15      1.0000 0.29510  0.02420  0.45150  Biso   1.000  O
  O16      1.0000 0.70490  0.02420  0.04850  Biso   1.000  O
