data_image0
_cell_length_a       8.4601
_cell_length_b       10.15
_cell_length_c       11.6109
_cell_angle_alpha    85.995
_cell_angle_beta     77.371
_cell_angle_gamma    78.703

_symmetry_space_group_name_H-M    "P 1"
_symmetry_int_tables_number       1

loop_
  _symmetry_equiv_pos_as_xyz
  'x, y, z'

loop_
  _atom_site_label
  _atom_site_occupancy
  _atom_site_fract_x
  _atom_site_fract_y
  _atom_site_fract_z
  _atom_site_thermal_displace_type
  _atom_site_B_iso_or_equiv
  _atom_site_type_symbol
  Cu1      1.0000 0.00000  0.50000  0.50000  Biso   1.000  Cu
  N1       1.0000 0.59070  0.35320  0.32760  Biso   1.000  N
  N2       1.0000 0.40930  0.64680  0.67240  Biso   1.000  N
  N3       1.0000 0.32620  0.63930  0.21680  Biso   1.000  N
  N4       1.0000 0.67380  0.36070  0.78320  Biso   1.000  N
  N5       1.0000 0.12840  0.57220  0.35035  Biso   1.000  N
  N6       1.0000 0.87160  0.42780  0.64965  Biso   1.000  N
  N7       1.0000 0.18650  0.14920  0.30480  Biso   1.000  N
  N8       1.0000 0.81350  0.85080  0.69520  Biso   1.000  N
  N9       1.0000 0.06520  0.31510  0.42530  Biso   1.000  N
  N10      1.0000 0.93480  0.68490  0.57470  Biso   1.000  N
  O1       1.0000 0.81640  0.38140  0.15100  Biso   1.000  O
  O2       1.0000 0.18360  0.61860  0.84900  Biso   1.000  O
  O3       1.0000 0.55670  0.34020  0.11870  Biso   1.000  O
  O4       1.0000 0.44330  0.65980  0.88130  Biso   1.000  O
  O5       1.0000 0.52860  0.24150  0.50466  Biso   1.000  O
  O6       1.0000 0.47140  0.75850  0.49534  Biso   1.000  O
  O7       1.0000 0.25580  0.45020  0.58136  Biso   1.000  O
  O8       1.0000 0.74420  0.54980  0.41864  Biso   1.000  O
  H1       1.0000 0.29520  0.50950  0.60840  Biso   1.000  H
  H2       1.0000 0.70480  0.49050  0.39160  Biso   1.000  H
  H3       1.0000 0.33420  0.38560  0.55730  Biso   1.000  H
  H4       1.0000 0.66580  0.61440  0.44270  Biso   1.000  H
  O9       1.0000 0.85980  0.66380  0.99780  Biso   1.000  O
  O10      1.0000 0.14020  0.33620  0.00220  Biso   1.000  O
  H5       1.0000 0.84690  0.59200  0.03800  Biso   1.000  H
  H6       1.0000 0.15310  0.40800  0.96200  Biso   1.000  H
  H7       1.0000 0.95580  0.65080  0.95380  Biso   1.000  H
  H8       1.0000 0.04420  0.34920  0.04620  Biso   1.000  H
  S1       1.0000 0.67532  0.31674  0.19297  Biso   1.000  S
  S2       1.0000 0.32468  0.68326  0.80703  Biso   1.000  S
  C1       1.0000 0.59040  0.24140  0.39820  Biso   1.000  C
  C2       1.0000 0.40960  0.75860  0.60180  Biso   1.000  C
  C3       1.0000 0.67410  0.11450  0.33350  Biso   1.000  C
  C4       1.0000 0.32590  0.88550  0.66650  Biso   1.000  C
  C5       1.0000 0.73470  0.14150  0.21650  Biso   1.000  C
  C6       1.0000 0.26530  0.85850  0.78350  Biso   1.000  C
  C7       1.0000 0.82060  0.04240  0.13860  Biso   1.000  C
  C8       1.0000 0.17940  0.95760  0.86140  Biso   1.000  C
  H9       1.0000 0.86090  0.06230  0.05950  Biso   1.000  H
  H10      1.0000 0.13910  0.93770  0.94050  Biso   1.000  H
  C9       1.0000 0.84380  0.91170  0.18440  Biso   1.000  C
  C10      1.0000 0.15620  0.08830  0.81560  Biso   1.000  C
  H11      1.0000 0.90060  0.84200  0.13490  Biso   1.000  H
  H12      1.0000 0.09940  0.15800  0.86510  Biso   1.000  H
  C11      1.0000 0.78450  0.88330  0.30130  Biso   1.000  C
  C12      1.0000 0.21550  0.11670  0.69870  Biso   1.000  C
  H13      1.0000 0.80280  0.79480  0.32960  Biso   1.000  H
  H14      1.0000 0.19720  0.20520  0.67040  Biso   1.000  H
  C13      1.0000 0.69790  0.98350  0.37820  Biso   1.000  C
  C14      1.0000 0.30210  0.01650  0.62180  Biso   1.000  C
  H15      1.0000 0.65700  0.96370  0.45720  Biso   1.000  H
  H16      1.0000 0.34300  0.03630  0.54280  Biso   1.000  H
  C15      1.0000 0.47620  0.69240  0.16610  Biso   1.000  C
  C16      1.0000 0.52380  0.30760  0.83390  Biso   1.000  C
  H17      1.0000 0.53500  0.64300  0.09620  Biso   1.000  H
  H18      1.0000 0.46500  0.35700  0.90380  Biso   1.000  H
  H19      1.0000 0.54730  0.67890  0.22280  Biso   1.000  H
  H20      1.0000 0.45270  0.32110  0.77720  Biso   1.000  H
  C17      1.0000 0.43870  0.84120  0.13340  Biso   1.000  C
  C18      1.0000 0.56130  0.15880  0.86660  Biso   1.000  C
  H21      1.0000 0.37790  0.85340  0.07040  Biso   1.000  H
  H22      1.0000 0.62210  0.14660  0.92960  Biso   1.000  H
  H23      1.0000 0.54160  0.87270  0.10380  Biso   1.000  H
  H24      1.0000 0.45840  0.12730  0.89620  Biso   1.000  H
  C19      1.0000 0.33900  0.92560  0.23710  Biso   1.000  C
  C20      1.0000 0.66100  0.07440  0.76290  Biso   1.000  C
  H25      1.0000 0.23800  0.89190  0.26820  Biso   1.000  H
  H26      1.0000 0.76200  0.10810  0.73180  Biso   1.000  H
  H27      1.0000 0.40150  0.91530  0.29900  Biso   1.000  H
  H28      1.0000 0.59850  0.08470  0.70100  Biso   1.000  H
  C21      1.0000 0.29580  0.07320  0.20550  Biso   1.000  C
  C22      1.0000 0.70420  0.92680  0.79450  Biso   1.000  C
  H29      1.0000 0.39630  0.10960  0.18200  Biso   1.000  H
  H30      1.0000 0.60370  0.89040  0.81800  Biso   1.000  H
  H31      1.0000 0.24210  0.08360  0.13880  Biso   1.000  H
  H32      1.0000 0.75790  0.91640  0.86120  Biso   1.000  H
  C23      1.0000 0.27470  0.60760  0.33090  Biso   1.000  C
  C24      1.0000 0.72530  0.39240  0.66910  Biso   1.000  C
  H33      1.0000 0.33410  0.61010  0.38910  Biso   1.000  H
  H34      1.0000 0.66590  0.38990  0.61090  Biso   1.000  H
  C25      1.0000 0.08650  0.58040  0.24160  Biso   1.000  C
  C26      1.0000 0.91350  0.41960  0.75840  Biso   1.000  C
  H35      1.0000 0.98980  0.56100  0.22720  Biso   1.000  H
  H36      1.0000 0.01020  0.43900  0.77280  Biso   1.000  H
  C27      1.0000 0.20780  0.62110  0.15940  Biso   1.000  C
  C28      1.0000 0.79220  0.37890  0.84060  Biso   1.000  C
  H37      1.0000 0.21040  0.63430  0.07900  Biso   1.000  H
  H38      1.0000 0.78960  0.36570  0.92100  Biso   1.000  H
  C29      1.0000 0.18910  0.27280  0.33730  Biso   1.000  C
  C30      1.0000 0.81090  0.72720  0.66270  Biso   1.000  C
  H39      1.0000 0.26870  0.32290  0.30200  Biso   1.000  H
  H40      1.0000 0.73130  0.67710  0.69800  Biso   1.000  H
  C31      1.0000 0.97840  0.21200  0.44950  Biso   1.000  C
  C32      1.0000 0.02160  0.78800  0.55050  Biso   1.000  C
  H41      1.0000 0.88330  0.21250  0.50770  Biso   1.000  H
  H42      1.0000 0.11670  0.78750  0.49230  Biso   1.000  H
  C33      1.0000 0.05080  0.11040  0.37660  Biso   1.000  C
  C34      1.0000 0.94920  0.88960  0.62340  Biso   1.000  C
  H43      1.0000 0.01580  0.02930  0.37520  Biso   1.000  H
  H44      1.0000 0.98420  0.97070  0.62480  Biso   1.000  H
