data_image0
_cell_length_a       9.3776
_cell_length_b       13.4011
_cell_length_c       19.5267
_cell_angle_alpha    90
_cell_angle_beta     111.197
_cell_angle_gamma    90

_symmetry_space_group_name_H-M    "P 1"
_symmetry_int_tables_number       1

loop_
  _symmetry_equiv_pos_as_xyz
  'x, y, z'

loop_
  _atom_site_label
  _atom_site_occupancy
  _atom_site_fract_x
  _atom_site_fract_y
  _atom_site_fract_z
  _atom_site_thermal_displace_type
  _atom_site_B_iso_or_equiv
  _atom_site_type_symbol
  Cu1      1.0000 0.03660  0.60176  0.40519  Biso   1.000  Cu
  Cu2      1.0000 0.96340  0.10176  0.09481  Biso   1.000  Cu
  Cu3      1.0000 0.96340  0.39824  0.59481  Biso   1.000  Cu
  Cu4      1.0000 0.03660  0.89824  0.90519  Biso   1.000  Cu
  O1       1.0000 0.17930  0.42332  0.11165  Biso   1.000  O
  O2       1.0000 0.82070  0.92332  0.38835  Biso   1.000  O
  O3       1.0000 0.82070  0.57668  0.88835  Biso   1.000  O
  O4       1.0000 0.17930  0.07668  0.61165  Biso   1.000  O
  O5       1.0000 0.17870  0.50697  0.01811  Biso   1.000  O
  O6       1.0000 0.82130  0.00697  0.48189  Biso   1.000  O
  O7       1.0000 0.82130  0.49303  0.98189  Biso   1.000  O
  O8       1.0000 0.17870  0.99303  0.51811  Biso   1.000  O
  O9       1.0000 0.05620  0.75900  0.30942  Biso   1.000  O
  O10      1.0000 0.94380  0.25900  0.19058  Biso   1.000  O
  O11      1.0000 0.94380  0.24100  0.69058  Biso   1.000  O
  O12      1.0000 0.05620  0.74100  0.80942  Biso   1.000  O
  O13      1.0000 0.01153  0.93687  0.08480  Biso   1.000  O
  O14      1.0000 0.98847  0.43687  0.41520  Biso   1.000  O
  O15      1.0000 0.98847  0.06313  0.91520  Biso   1.000  O
  O16      1.0000 0.01153  0.56313  0.58480  Biso   1.000  O
  O17      1.0000 0.96494  0.84743  0.98203  Biso   1.000  O
  O18      1.0000 0.03506  0.34743  0.51797  Biso   1.000  O
  O19      1.0000 0.03506  0.15257  0.01797  Biso   1.000  O
  O20      1.0000 0.96494  0.65257  0.48203  Biso   1.000  O
  O21      1.0000 0.10742  0.59559  0.32148  Biso   1.000  O
  O22      1.0000 0.89258  0.09559  0.17852  Biso   1.000  O
  O23      1.0000 0.89258  0.40441  0.67852  Biso   1.000  O
  O24      1.0000 0.10742  0.90441  0.82148  Biso   1.000  O
  N1       1.0000 0.45072  0.54595  0.57488  Biso   1.000  N
  N2       1.0000 0.54928  0.04595  0.92512  Biso   1.000  N
  N3       1.0000 0.54928  0.45405  0.42512  Biso   1.000  N
  N4       1.0000 0.45072  0.95405  0.07488  Biso   1.000  N
  N5       1.0000 0.60920  0.78691  0.77740  Biso   1.000  N
  N6       1.0000 0.39080  0.28691  0.72260  Biso   1.000  N
  N7       1.0000 0.39080  0.21309  0.22260  Biso   1.000  N
  N8       1.0000 0.60920  0.71309  0.27740  Biso   1.000  N
  N9       1.0000 0.82270  0.87391  0.83315  Biso   1.000  N
  N10      1.0000 0.17730  0.37391  0.66685  Biso   1.000  N
  N11      1.0000 0.17730  0.12609  0.16685  Biso   1.000  N
  N12      1.0000 0.82270  0.62609  0.33315  Biso   1.000  N
  N13      1.0000 0.25160  0.59528  0.47806  Biso   1.000  N
  N14      1.0000 0.74840  0.09528  0.02194  Biso   1.000  N
  N15      1.0000 0.74840  0.40472  0.52194  Biso   1.000  N
  N16      1.0000 0.25160  0.90472  0.97806  Biso   1.000  N
  N17      1.0000 0.16110  0.50060  0.07681  Biso   1.000  N
  N18      1.0000 0.83890  0.00060  0.42319  Biso   1.000  N
  N19      1.0000 0.83890  0.49940  0.92319  Biso   1.000  N
  N20      1.0000 0.16110  0.99940  0.57681  Biso   1.000  N
  C1       1.0000 0.05330  0.76158  0.16737  Biso   1.000  C
  C2       1.0000 0.94670  0.26158  0.33263  Biso   1.000  C
  C3       1.0000 0.94670  0.23842  0.83263  Biso   1.000  C
  C4       1.0000 0.05330  0.73842  0.66737  Biso   1.000  C
  H1       1.0000 0.03460  0.82030  0.18810  Biso   1.000  H
  H2       1.0000 0.96540  0.32030  0.31190  Biso   1.000  H
  H3       1.0000 0.96540  0.17970  0.81190  Biso   1.000  H
  H4       1.0000 0.03460  0.67970  0.68810  Biso   1.000  H
  C5       1.0000 0.11800  0.59091  0.10793  Biso   1.000  C
  C6       1.0000 0.88200  0.09091  0.39207  Biso   1.000  C
  C7       1.0000 0.88200  0.40909  0.89207  Biso   1.000  C
  C8       1.0000 0.11800  0.90909  0.60793  Biso   1.000  C
  C9       1.0000 0.04960  0.76285  0.09540  Biso   1.000  C
  C10      1.0000 0.95040  0.26285  0.40460  Biso   1.000  C
  C11      1.0000 0.95040  0.23715  0.90460  Biso   1.000  C
  C12      1.0000 0.04960  0.73715  0.59540  Biso   1.000  C
  C13      1.0000 0.50210  0.62564  0.54480  Biso   1.000  C
  C14      1.0000 0.49790  0.12564  0.95520  Biso   1.000  C
  C15      1.0000 0.49790  0.37436  0.45520  Biso   1.000  C
  C16      1.0000 0.50210  0.87436  0.04480  Biso   1.000  C
  C17      1.0000 0.08420  0.67449  0.20873  Biso   1.000  C
  C18      1.0000 0.91580  0.17449  0.29127  Biso   1.000  C
  C19      1.0000 0.91580  0.32551  0.79127  Biso   1.000  C
  C20      1.0000 0.08420  0.82551  0.70873  Biso   1.000  C
  C21      1.0000 0.08190  0.67867  0.28595  Biso   1.000  C
  C22      1.0000 0.91810  0.17867  0.21405  Biso   1.000  C
  C23      1.0000 0.91810  0.32133  0.71405  Biso   1.000  C
  C24      1.0000 0.08190  0.82133  0.78595  Biso   1.000  C
  C25      1.0000 0.61750  0.85761  0.72683  Biso   1.000  C
  C26      1.0000 0.38250  0.35761  0.77317  Biso   1.000  C
  C27      1.0000 0.38250  0.14239  0.27317  Biso   1.000  C
  C28      1.0000 0.61750  0.64239  0.22683  Biso   1.000  C
  C29      1.0000 0.73440  0.80073  0.83890  Biso   1.000  C
  C30      1.0000 0.26560  0.30073  0.66110  Biso   1.000  C
  C31      1.0000 0.26560  0.19927  0.16110  Biso   1.000  C
  C32      1.0000 0.73440  0.69927  0.33890  Biso   1.000  C
  H5       1.0000 0.75580  0.76220  0.88100  Biso   1.000  H
  H6       1.0000 0.24420  0.26220  0.61900  Biso   1.000  H
  H7       1.0000 0.24420  0.23780  0.11900  Biso   1.000  H
  H8       1.0000 0.75580  0.73780  0.38100  Biso   1.000  H
  C33      1.0000 0.75200  0.91094  0.76178  Biso   1.000  C
  C34      1.0000 0.24800  0.41094  0.73822  Biso   1.000  C
  C35      1.0000 0.24800  0.08906  0.23822  Biso   1.000  C
  C36      1.0000 0.75200  0.58906  0.26178  Biso   1.000  C
  C37      1.0000 0.11580  0.58707  0.17846  Biso   1.000  C
  C38      1.0000 0.88420  0.08707  0.32154  Biso   1.000  C
  C39      1.0000 0.88420  0.41293  0.82154  Biso   1.000  C
  C40      1.0000 0.11580  0.91293  0.67846  Biso   1.000  C
  H9       1.0000 0.13490  0.52770  0.20490  Biso   1.000  H
  H10      1.0000 0.86510  0.02770  0.29510  Biso   1.000  H
  H11      1.0000 0.86510  0.47230  0.79510  Biso   1.000  H
  H12      1.0000 0.13490  0.97230  0.70490  Biso   1.000  H
  C41      1.0000 0.08360  0.67638  0.06520  Biso   1.000  C
  C42      1.0000 0.91640  0.17638  0.43480  Biso   1.000  C
  C43      1.0000 0.91640  0.32362  0.93480  Biso   1.000  C
  C44      1.0000 0.08360  0.82362  0.56520  Biso   1.000  C
  H13      1.0000 0.08330  0.67590  0.01750  Biso   1.000  H
  H14      1.0000 0.91670  0.17590  0.48250  Biso   1.000  H
  H15      1.0000 0.91670  0.32410  0.98250  Biso   1.000  H
  H16      1.0000 0.08330  0.82410  0.51750  Biso   1.000  H
  C45      1.0000 0.00630  0.85825  0.05108  Biso   1.000  C
  C46      1.0000 0.99370  0.35825  0.44892  Biso   1.000  C
  C47      1.0000 0.99370  0.14175  0.94892  Biso   1.000  C
  C48      1.0000 0.00630  0.64175  0.55108  Biso   1.000  C
  C49      1.0000 0.37530  0.65720  0.48452  Biso   1.000  C
  C50      1.0000 0.62470  0.15720  0.01548  Biso   1.000  C
  C51      1.0000 0.62470  0.34280  0.51548  Biso   1.000  C
  C52      1.0000 0.37530  0.84280  0.98452  Biso   1.000  C
  C53      1.0000 0.44500  0.64607  0.70551  Biso   1.000  C
  C54      1.0000 0.55500  0.14607  0.79449  Biso   1.000  C
  C55      1.0000 0.55500  0.35393  0.29449  Biso   1.000  C
  C56      1.0000 0.44500  0.85393  0.20551  Biso   1.000  C
  H17      1.0000 0.35080  0.64590  0.66700  Biso   1.000  H
  H18      1.0000 0.64920  0.14590  0.83300  Biso   1.000  H
  H19      1.0000 0.64920  0.35410  0.33300  Biso   1.000  H
  H20      1.0000 0.35080  0.85410  0.16700  Biso   1.000  H
  H21      1.0000 0.36000  0.60760  0.70720  Biso   1.000  H
  H22      1.0000 0.64000  0.10760  0.79280  Biso   1.000  H
  H23      1.0000 0.64000  0.39240  0.29280  Biso   1.000  H
  H24      1.0000 0.36000  0.89240  0.20720  Biso   1.000  H
  C57      1.0000 0.57370  0.57590  0.70947  Biso   1.000  C
  C58      1.0000 0.42630  0.07590  0.79053  Biso   1.000  C
  C59      1.0000 0.42630  0.42410  0.29053  Biso   1.000  C
  C60      1.0000 0.57370  0.92410  0.20947  Biso   1.000  C
  H25      1.0000 0.60480  0.54020  0.75580  Biso   1.000  H
  H26      1.0000 0.39520  0.04020  0.74420  Biso   1.000  H
  H27      1.0000 0.39520  0.45980  0.24420  Biso   1.000  H
  H28      1.0000 0.60480  0.95980  0.25580  Biso   1.000  H
  H29      1.0000 0.66050  0.61500  0.70920  Biso   1.000  H
  H30      1.0000 0.33950  0.11500  0.79080  Biso   1.000  H
  H31      1.0000 0.33950  0.38500  0.29080  Biso   1.000  H
  H32      1.0000 0.66050  0.88500  0.20920  Biso   1.000  H
  C61      1.0000 0.30210  0.53197  0.53316  Biso   1.000  C
  C62      1.0000 0.69790  0.03197  0.96684  Biso   1.000  C
  C63      1.0000 0.69790  0.46803  0.46684  Biso   1.000  C
  C64      1.0000 0.30210  0.96803  0.03316  Biso   1.000  C
  H33      1.0000 0.24150  0.48270  0.54240  Biso   1.000  H
  H34      1.0000 0.75850  0.98270  0.95760  Biso   1.000  H
  H35      1.0000 0.75850  0.51730  0.45760  Biso   1.000  H
  H36      1.0000 0.24150  0.01730  0.04240  Biso   1.000  H
  C65      1.0000 0.79670  0.98736  0.72527  Biso   1.000  C
  C66      1.0000 0.20330  0.48736  0.77473  Biso   1.000  C
  C67      1.0000 0.20330  0.01264  0.27473  Biso   1.000  C
  C68      1.0000 0.79670  0.51264  0.22527  Biso   1.000  C
  H37      1.0000 0.88610  0.02340  0.74820  Biso   1.000  H
  H38      1.0000 0.11390  0.52340  0.75180  Biso   1.000  H
  H39      1.0000 0.11390  0.97660  0.25180  Biso   1.000  H
  H40      1.0000 0.88610  0.47660  0.24820  Biso   1.000  H
  C69      1.0000 0.38690  0.74033  0.44370  Biso   1.000  C
  C70      1.0000 0.61310  0.24033  0.05630  Biso   1.000  C
  C71      1.0000 0.61310  0.25967  0.55630  Biso   1.000  C
  C72      1.0000 0.38690  0.75967  0.94370  Biso   1.000  C
  H41      1.0000 0.30380  0.76290  0.40390  Biso   1.000  H
  H42      1.0000 0.69620  0.26290  0.09610  Biso   1.000  H
  H43      1.0000 0.69620  0.23710  0.59610  Biso   1.000  H
  H44      1.0000 0.30380  0.73710  0.90390  Biso   1.000  H
  C73      1.0000 0.53310  0.49951  0.64648  Biso   1.000  C
  C74      1.0000 0.46690  0.99951  0.85352  Biso   1.000  C
  C75      1.0000 0.46690  0.50049  0.35352  Biso   1.000  C
  C76      1.0000 0.53310  0.00049  0.14648  Biso   1.000  C
  H45      1.0000 0.62620  0.46900  0.64570  Biso   1.000  H
  H46      1.0000 0.37380  0.96900  0.85430  Biso   1.000  H
  H47      1.0000 0.37380  0.53100  0.35430  Biso   1.000  H
  H48      1.0000 0.62620  0.03100  0.14570  Biso   1.000  H
  H49      1.0000 0.47010  0.44730  0.65530  Biso   1.000  H
  H50      1.0000 0.52990  0.94730  0.84470  Biso   1.000  H
  H51      1.0000 0.52990  0.55270  0.34470  Biso   1.000  H
  H52      1.0000 0.47010  0.05270  0.15530  Biso   1.000  H
  C77      1.0000 0.48400  0.71650  0.77008  Biso   1.000  C
  C78      1.0000 0.51600  0.21650  0.72992  Biso   1.000  C
  C79      1.0000 0.51600  0.28350  0.22992  Biso   1.000  C
  C80      1.0000 0.48400  0.78350  0.27008  Biso   1.000  C
  H53      1.0000 0.43260  0.71550  0.80290  Biso   1.000  H
  H54      1.0000 0.56740  0.21550  0.69710  Biso   1.000  H
  H55      1.0000 0.56740  0.28450  0.19710  Biso   1.000  H
  H56      1.0000 0.43260  0.78450  0.30290  Biso   1.000  H
  H57      1.0000 0.39280  0.75390  0.76400  Biso   1.000  H
  H58      1.0000 0.60720  0.25390  0.73600  Biso   1.000  H
  H59      1.0000 0.60720  0.24610  0.23600  Biso   1.000  H
  H60      1.0000 0.39280  0.74610  0.26400  Biso   1.000  H
  C81      1.0000 0.70330  0.00733  0.65386  Biso   1.000  C
  C82      1.0000 0.29670  0.50733  0.84614  Biso   1.000  C
  C83      1.0000 0.29670  0.99267  0.34614  Biso   1.000  C
  C84      1.0000 0.70330  0.49267  0.15386  Biso   1.000  C
  H61      1.0000 0.73120  0.05690  0.62780  Biso   1.000  H
  H62      1.0000 0.26880  0.55690  0.87220  Biso   1.000  H
  H63      1.0000 0.26880  0.94310  0.37220  Biso   1.000  H
  H64      1.0000 0.73120  0.44310  0.12780  Biso   1.000  H
  C85      1.0000 0.65320  0.75438  0.52403  Biso   1.000  C
  C86      1.0000 0.34680  0.25438  0.97597  Biso   1.000  C
  C87      1.0000 0.34680  0.24562  0.47597  Biso   1.000  C
  C88      1.0000 0.65320  0.74562  0.02403  Biso   1.000  C
  H65      1.0000 0.74560  0.78820  0.53600  Biso   1.000  H
  H66      1.0000 0.25440  0.28820  0.96400  Biso   1.000  H
  H67      1.0000 0.25440  0.21180  0.46400  Biso   1.000  H
  H68      1.0000 0.74560  0.71180  0.03600  Biso   1.000  H
  C89      1.0000 0.56690  0.95426  0.61969  Biso   1.000  C
  C90      1.0000 0.43310  0.45426  0.88031  Biso   1.000  C
  C91      1.0000 0.43310  0.04574  0.38031  Biso   1.000  C
  C92      1.0000 0.56690  0.54574  0.11969  Biso   1.000  C
  H69      1.0000 0.50580  0.97040  0.57170  Biso   1.000  H
  H70      1.0000 0.49420  0.47040  0.92830  Biso   1.000  H
  H71      1.0000 0.49420  0.02960  0.42830  Biso   1.000  H
  H72      1.0000 0.50580  0.52960  0.07170  Biso   1.000  H
  C93      1.0000 0.64410  0.67267  0.56511  Biso   1.000  C
  C94      1.0000 0.35590  0.17267  0.93489  Biso   1.000  C
  C95      1.0000 0.35590  0.32733  0.43489  Biso   1.000  C
  C96      1.0000 0.64410  0.82733  0.06511  Biso   1.000  C
  H73      1.0000 0.72820  0.65010  0.60440  Biso   1.000  H
  H74      1.0000 0.27180  0.15010  0.89560  Biso   1.000  H
  H75      1.0000 0.27180  0.34990  0.39560  Biso   1.000  H
  H76      1.0000 0.72820  0.84990  0.10440  Biso   1.000  H
  C97      1.0000 0.52690  0.78750  0.46488  Biso   1.000  C
  C98      1.0000 0.47310  0.28750  0.03512  Biso   1.000  C
  C99      1.0000 0.47310  0.21250  0.53512  Biso   1.000  C
  C100     1.0000 0.52690  0.71250  0.96488  Biso   1.000  C
  H77      1.0000 0.53740  0.84330  0.43880  Biso   1.000  H
  H78      1.0000 0.46260  0.34330  0.06120  Biso   1.000  H
  H79      1.0000 0.46260  0.15670  0.56120  Biso   1.000  H
  H80      1.0000 0.53740  0.65670  0.93880  Biso   1.000  H
  C101     1.0000 0.52110  0.87940  0.65494  Biso   1.000  C
  C102     1.0000 0.47890  0.37940  0.84506  Biso   1.000  C
  C103     1.0000 0.47890  0.12060  0.34506  Biso   1.000  C
  C104     1.0000 0.52110  0.62060  0.15494  Biso   1.000  C
  H81      1.0000 0.43030  0.84480  0.63210  Biso   1.000  H
  H82      1.0000 0.56970  0.34480  0.86790  Biso   1.000  H
  H83      1.0000 0.56970  0.15520  0.36790  Biso   1.000  H
  H84      1.0000 0.43030  0.65520  0.13210  Biso   1.000  H
