data_image0
_cell_length_a       9.6729
_cell_length_b       18.9327
_cell_length_c       15.0121
_cell_angle_alpha    90
_cell_angle_beta     118.323
_cell_angle_gamma    90

_symmetry_space_group_name_H-M    "P 1"
_symmetry_int_tables_number       1

loop_
  _symmetry_equiv_pos_as_xyz
  'x, y, z'

loop_
  _atom_site_label
  _atom_site_occupancy
  _atom_site_fract_x
  _atom_site_fract_y
  _atom_site_fract_z
  _atom_site_thermal_displace_type
  _atom_site_B_iso_or_equiv
  _atom_site_type_symbol
  Cd1      1.0000 0.25179  0.83708  0.59606  Biso   1.000  Cd
  Cd2      1.0000 0.74821  0.33708  0.90394  Biso   1.000  Cd
  Cd3      1.0000 0.74821  0.16292  0.40395  Biso   1.000  Cd
  Cd4      1.0000 0.25179  0.66292  0.09606  Biso   1.000  Cd
  Cu1      1.0000 0.49997  0.96785  0.71409  Biso   1.000  Cu
  Cu2      1.0000 0.50003  0.46785  0.78591  Biso   1.000  Cu
  Cu3      1.0000 0.50003  0.03215  0.28591  Biso   1.000  Cu
  Cu4      1.0000 0.49997  0.53215  0.21409  Biso   1.000  Cu
  O1       1.0000 0.08353  0.84983  0.69177  Biso   1.000  O
  O2       1.0000 0.91647  0.34983  0.80823  Biso   1.000  O
  O3       1.0000 0.91647  0.15017  0.30823  Biso   1.000  O
  O4       1.0000 0.08353  0.65017  0.19177  Biso   1.000  O
  O5       1.0000 0.32364  0.92378  0.71571  Biso   1.000  O
  O6       1.0000 0.67636  0.42378  0.78429  Biso   1.000  O
  O7       1.0000 0.67636  0.07622  0.28429  Biso   1.000  O
  O8       1.0000 0.32364  0.57622  0.21571  Biso   1.000  O
  O9       1.0000 0.45479  0.90580  0.60446  Biso   1.000  O
  O10      1.0000 0.54521  0.40580  0.89554  Biso   1.000  O
  O11      1.0000 0.54521  0.09420  0.39554  Biso   1.000  O
  O12      1.0000 0.45479  0.59420  0.10446  Biso   1.000  O
  O13      1.0000 0.39168  0.79521  0.48946  Biso   1.000  O
  O14      1.0000 0.60832  0.29521  0.01054  Biso   1.000  O
  O15      1.0000 0.60832  0.20479  0.51054  Biso   1.000  O
  O16      1.0000 0.39168  0.70479  0.98946  Biso   1.000  O
  O17      1.0000 0.45290  0.77505  0.72380  Biso   1.000  O
  O18      1.0000 0.54710  0.27505  0.77620  Biso   1.000  O
  O19      1.0000 0.54710  0.22495  0.27620  Biso   1.000  O
  O20      1.0000 0.45290  0.72495  0.22380  Biso   1.000  O
  H1       1.0000 0.52410  0.80370  0.76210  Biso   1.000  H
  H2       1.0000 0.47590  0.30370  0.73790  Biso   1.000  H
  H3       1.0000 0.47590  0.19630  0.23790  Biso   1.000  H
  H4       1.0000 0.52410  0.69630  0.26210  Biso   1.000  H
  H5       1.0000 0.49290  0.74680  0.69830  Biso   1.000  H
  H6       1.0000 0.50710  0.24680  0.80170  Biso   1.000  H
  H7       1.0000 0.50710  0.25320  0.30170  Biso   1.000  H
  H8       1.0000 0.49290  0.75320  0.19830  Biso   1.000  H
  N1       1.0000 0.53840  0.03206  0.82235  Biso   1.000  N
  N2       1.0000 0.46160  0.53206  0.67765  Biso   1.000  N
  N3       1.0000 0.46160  0.96794  0.17765  Biso   1.000  N
  N4       1.0000 0.53840  0.46794  0.32235  Biso   1.000  N
  N5       1.0000 0.65820  0.02012  0.69906  Biso   1.000  N
  N6       1.0000 0.34180  0.52012  0.80094  Biso   1.000  N
  N7       1.0000 0.34180  0.97988  0.30094  Biso   1.000  N
  N8       1.0000 0.65820  0.47988  0.19906  Biso   1.000  N
  N9       1.0000 0.07690  0.89180  0.45475  Biso   1.000  N
  N10      1.0000 0.92310  0.39180  0.04525  Biso   1.000  N
  N11      1.0000 0.92310  0.10820  0.54525  Biso   1.000  N
  N12      1.0000 0.07690  0.60820  0.95475  Biso   1.000  N
  N13      1.0000 0.93380  0.85656  0.27631  Biso   1.000  N
  N14      1.0000 0.06620  0.35656  0.22369  Biso   1.000  N
  N15      1.0000 0.06620  0.14344  0.72369  Biso   1.000  N
  N16      1.0000 0.93380  0.64344  0.77631  Biso   1.000  N
  N17      1.0000 0.66690  0.80604  0.18744  Biso   1.000  N
  N18      1.0000 0.33310  0.30604  0.31256  Biso   1.000  N
  N19      1.0000 0.33310  0.19396  0.81256  Biso   1.000  N
  N20      1.0000 0.66690  0.69396  0.68744  Biso   1.000  N
  N21      1.0000 0.12300  0.73393  0.54348  Biso   1.000  N
  N22      1.0000 0.87700  0.23393  0.95652  Biso   1.000  N
  N23      1.0000 0.87700  0.26607  0.45652  Biso   1.000  N
  N24      1.0000 0.12300  0.76607  0.04348  Biso   1.000  N
  N25      1.0000 0.93500  0.63696  0.50241  Biso   1.000  N
  N26      1.0000 0.06500  0.13696  0.99759  Biso   1.000  N
  N27      1.0000 0.06500  0.36304  0.49759  Biso   1.000  N
  N28      1.0000 0.93500  0.86304  0.00241  Biso   1.000  N
  N29      1.0000 0.68430  0.62271  0.34684  Biso   1.000  N
  N30      1.0000 0.31570  0.12271  0.15316  Biso   1.000  N
  N31      1.0000 0.31570  0.37729  0.65316  Biso   1.000  N
  N32      1.0000 0.68430  0.87729  0.84684  Biso   1.000  N
  C1       1.0000 0.96360  0.80301  0.68780  Biso   1.000  C
  C2       1.0000 0.03640  0.30301  0.81220  Biso   1.000  C
  C3       1.0000 0.03640  0.19699  0.31220  Biso   1.000  C
  C4       1.0000 0.96360  0.69699  0.18780  Biso   1.000  C
  H9       1.0000 0.99490  0.78430  0.75410  Biso   1.000  H
  H10      1.0000 0.00510  0.28430  0.74590  Biso   1.000  H
  H11      1.0000 0.00510  0.21570  0.24590  Biso   1.000  H
  H12      1.0000 0.99490  0.71570  0.25410  Biso   1.000  H
  H13      1.0000 0.94900  0.76490  0.64190  Biso   1.000  H
  H14      1.0000 0.05100  0.26490  0.85810  Biso   1.000  H
  H15      1.0000 0.05100  0.23510  0.35810  Biso   1.000  H
  H16      1.0000 0.94900  0.73510  0.14190  Biso   1.000  H
  H17      1.0000 0.86690  0.82860  0.66480  Biso   1.000  H
  H18      1.0000 0.13310  0.32860  0.83520  Biso   1.000  H
  H19      1.0000 0.13310  0.17140  0.33520  Biso   1.000  H
  H20      1.0000 0.86690  0.67140  0.16480  Biso   1.000  H
  C5       1.0000 0.12420  0.90461  0.75976  Biso   1.000  C
  C6       1.0000 0.87580  0.40461  0.74024  Biso   1.000  C
  C7       1.0000 0.87580  0.09539  0.24024  Biso   1.000  C
  C8       1.0000 0.12420  0.59539  0.25976  Biso   1.000  C
  C9       1.0000 0.04520  0.92330  0.81212  Biso   1.000  C
  C10      1.0000 0.95480  0.42330  0.68788  Biso   1.000  C
  C11      1.0000 0.95480  0.07670  0.18788  Biso   1.000  C
  C12      1.0000 0.04520  0.57670  0.31212  Biso   1.000  C
  H21      1.0000 0.95590  0.89840  0.80190  Biso   1.000  H
  H22      1.0000 0.04410  0.39840  0.69810  Biso   1.000  H
  H23      1.0000 0.04410  0.10160  0.19810  Biso   1.000  H
  H24      1.0000 0.95590  0.60160  0.30190  Biso   1.000  H
  C13      1.0000 0.09890  0.97964  0.88067  Biso   1.000  C
  C14      1.0000 0.90110  0.47964  0.61933  Biso   1.000  C
  C15      1.0000 0.90110  0.02036  0.11933  Biso   1.000  C
  C16      1.0000 0.09890  0.52036  0.38067  Biso   1.000  C
  H25      1.0000 0.04390  0.99280  0.91480  Biso   1.000  H
  H26      1.0000 0.95610  0.49280  0.58520  Biso   1.000  H
  H27      1.0000 0.95610  0.00720  0.08520  Biso   1.000  H
  H28      1.0000 0.04390  0.50720  0.41480  Biso   1.000  H
  C17      1.0000 0.23160  0.01516  0.89748  Biso   1.000  C
  C18      1.0000 0.76840  0.51516  0.60252  Biso   1.000  C
  C19      1.0000 0.76840  0.98484  0.10252  Biso   1.000  C
  C20      1.0000 0.23160  0.48484  0.39748  Biso   1.000  C
  H29      1.0000 0.26830  0.05150  0.94480  Biso   1.000  H
  H30      1.0000 0.73170  0.55150  0.55520  Biso   1.000  H
  H31      1.0000 0.73170  0.94850  0.05520  Biso   1.000  H
  H32      1.0000 0.26830  0.44850  0.44480  Biso   1.000  H
  C21      1.0000 0.31480  0.99788  0.84438  Biso   1.000  C
  C22      1.0000 0.68520  0.49788  0.65562  Biso   1.000  C
  C23      1.0000 0.68520  0.00212  0.15562  Biso   1.000  C
  C24      1.0000 0.31480  0.50212  0.34438  Biso   1.000  C
  C25      1.0000 0.25860  0.94273  0.77219  Biso   1.000  C
  C26      1.0000 0.74140  0.44273  0.72781  Biso   1.000  C
  C27      1.0000 0.74140  0.05727  0.22781  Biso   1.000  C
  C28      1.0000 0.25860  0.55727  0.27219  Biso   1.000  C
  C29      1.0000 0.45560  0.03851  0.86758  Biso   1.000  C
  C30      1.0000 0.54440  0.53851  0.63242  Biso   1.000  C
  C31      1.0000 0.54440  0.96149  0.13242  Biso   1.000  C
  C32      1.0000 0.45560  0.46149  0.36758  Biso   1.000  C
  H33      1.0000 0.48780  0.07170  0.91930  Biso   1.000  H
  H34      1.0000 0.51220  0.57170  0.58070  Biso   1.000  H
  H35      1.0000 0.51220  0.92830  0.08070  Biso   1.000  H
  H36      1.0000 0.48780  0.42830  0.41930  Biso   1.000  H
  C33      1.0000 0.68500  0.07135  0.85464  Biso   1.000  C
  C34      1.0000 0.31500  0.57135  0.64536  Biso   1.000  C
  C35      1.0000 0.31500  0.92865  0.14536  Biso   1.000  C
  C36      1.0000 0.68500  0.42865  0.35464  Biso   1.000  C
  H37      1.0000 0.77220  0.04470  0.90570  Biso   1.000  H
  H38      1.0000 0.22780  0.54470  0.59430  Biso   1.000  H
  H39      1.0000 0.22780  0.95530  0.09430  Biso   1.000  H
  H40      1.0000 0.77220  0.45530  0.40570  Biso   1.000  H
  H41      1.0000 0.67920  0.11620  0.88390  Biso   1.000  H
  H42      1.0000 0.32080  0.61620  0.61610  Biso   1.000  H
  H43      1.0000 0.32080  0.88380  0.11610  Biso   1.000  H
  H44      1.0000 0.67920  0.38380  0.38390  Biso   1.000  H
  C37      1.0000 0.71070  0.08387  0.76340  Biso   1.000  C
  C38      1.0000 0.28930  0.58387  0.73660  Biso   1.000  C
  C39      1.0000 0.28930  0.91613  0.23660  Biso   1.000  C
  C40      1.0000 0.71070  0.41613  0.26340  Biso   1.000  C
  H45      1.0000 0.65090  0.12470  0.72560  Biso   1.000  H
  H46      1.0000 0.34910  0.62470  0.77440  Biso   1.000  H
  H47      1.0000 0.34910  0.87530  0.27440  Biso   1.000  H
  H48      1.0000 0.65090  0.37530  0.22560  Biso   1.000  H
  H49      1.0000 0.82100  0.09270  0.78540  Biso   1.000  H
  H50      1.0000 0.17900  0.59270  0.71460  Biso   1.000  H
  H51      1.0000 0.17900  0.90730  0.21460  Biso   1.000  H
  H52      1.0000 0.82100  0.40730  0.28540  Biso   1.000  H
  C41      1.0000 0.70880  0.00555  0.63617  Biso   1.000  C
  C42      1.0000 0.29120  0.50555  0.86383  Biso   1.000  C
  C43      1.0000 0.29120  0.99445  0.36383  Biso   1.000  C
  C44      1.0000 0.70880  0.49445  0.13617  Biso   1.000  C
  H53      1.0000 0.78270  0.03600  0.63400  Biso   1.000  H
  H54      1.0000 0.21730  0.53600  0.86600  Biso   1.000  H
  H55      1.0000 0.21730  0.96400  0.36600  Biso   1.000  H
  H56      1.0000 0.78270  0.46400  0.13400  Biso   1.000  H
  C45      1.0000 0.66010  0.94544  0.56821  Biso   1.000  C
  C46      1.0000 0.33990  0.44544  0.93179  Biso   1.000  C
  C47      1.0000 0.33990  0.05456  0.43179  Biso   1.000  C
  C48      1.0000 0.66010  0.55456  0.06821  Biso   1.000  C
  C49      1.0000 0.73980  0.93419  0.51078  Biso   1.000  C
  C50      1.0000 0.26020  0.43419  0.98922  Biso   1.000  C
  C51      1.0000 0.26020  0.06581  0.48922  Biso   1.000  C
  C52      1.0000 0.73980  0.56581  0.01078  Biso   1.000  C
  H57      1.0000 0.81610  0.96610  0.51550  Biso   1.000  H
  H58      1.0000 0.18390  0.46610  0.98450  Biso   1.000  H
  H59      1.0000 0.18390  0.03390  0.48450  Biso   1.000  H
  H60      1.0000 0.81610  0.53390  0.01550  Biso   1.000  H
  C53      1.0000 0.70530  0.87679  0.44850  Biso   1.000  C
  C54      1.0000 0.29470  0.37679  0.05150  Biso   1.000  C
  C55      1.0000 0.29470  0.12321  0.55150  Biso   1.000  C
  C56      1.0000 0.70530  0.62321  0.94850  Biso   1.000  C
  H61      1.0000 0.75740  0.87030  0.41070  Biso   1.000  H
  H62      1.0000 0.24260  0.37030  0.08930  Biso   1.000  H
  H63      1.0000 0.24260  0.12970  0.58930  Biso   1.000  H
  H64      1.0000 0.75740  0.62970  0.91070  Biso   1.000  H
  C57      1.0000 0.59160  0.82754  0.44122  Biso   1.000  C
  C58      1.0000 0.40840  0.32754  0.05878  Biso   1.000  C
  C59      1.0000 0.40840  0.17246  0.55878  Biso   1.000  C
  C60      1.0000 0.59160  0.67246  0.94122  Biso   1.000  C
  H65      1.0000 0.57190  0.78760  0.40090  Biso   1.000  H
  H66      1.0000 0.42810  0.28760  0.09910  Biso   1.000  H
  H67      1.0000 0.42810  0.21240  0.59910  Biso   1.000  H
  H68      1.0000 0.57190  0.71240  0.90090  Biso   1.000  H
  C61      1.0000 0.50950  0.83856  0.49383  Biso   1.000  C
  C62      1.0000 0.49050  0.33856  0.00617  Biso   1.000  C
  C63      1.0000 0.49050  0.16144  0.50617  Biso   1.000  C
  C64      1.0000 0.50950  0.66144  0.99383  Biso   1.000  C
  C65      1.0000 0.54060  0.89800  0.55811  Biso   1.000  C
  C66      1.0000 0.45940  0.39800  0.94189  Biso   1.000  C
  C67      1.0000 0.45940  0.10200  0.44189  Biso   1.000  C
  C68      1.0000 0.54060  0.60200  0.05811  Biso   1.000  C
  C69      1.0000 0.36490  0.73083  0.43350  Biso   1.000  C
  C70      1.0000 0.63510  0.23083  0.06650  Biso   1.000  C
  C71      1.0000 0.63510  0.26917  0.56650  Biso   1.000  C
  C72      1.0000 0.36490  0.76917  0.93350  Biso   1.000  C
  H69      1.0000 0.33100  0.74160  0.36360  Biso   1.000  H
  H70      1.0000 0.66900  0.24160  0.13640  Biso   1.000  H
  H71      1.0000 0.66900  0.25840  0.63640  Biso   1.000  H
  H72      1.0000 0.33100  0.75840  0.86360  Biso   1.000  H
  H73      1.0000 0.28540  0.70370  0.43890  Biso   1.000  H
  H74      1.0000 0.71460  0.20370  0.06110  Biso   1.000  H
  H75      1.0000 0.71460  0.29630  0.56110  Biso   1.000  H
  H76      1.0000 0.28540  0.79630  0.93890  Biso   1.000  H
  H77      1.0000 0.46060  0.70400  0.46040  Biso   1.000  H
  H78      1.0000 0.53940  0.20400  0.03960  Biso   1.000  H
  H79      1.0000 0.53940  0.29600  0.53960  Biso   1.000  H
  H80      1.0000 0.46060  0.79600  0.96040  Biso   1.000  H
  C73      1.0000 0.00320  0.87350  0.37128  Biso   1.000  C
  C74      1.0000 0.99680  0.37350  0.12872  Biso   1.000  C
  C75      1.0000 0.99680  0.12650  0.62872  Biso   1.000  C
  C76      1.0000 0.00320  0.62650  0.87128  Biso   1.000  C
  C77      1.0000 0.79070  0.82998  0.23307  Biso   1.000  C
  C78      1.0000 0.20930  0.32998  0.26693  Biso   1.000  C
  C79      1.0000 0.20930  0.17002  0.76693  Biso   1.000  C
  C80      1.0000 0.79070  0.67002  0.73307  Biso   1.000  C
  C81      1.0000 0.02850  0.69006  0.51910  Biso   1.000  C
  C82      1.0000 0.97150  0.19006  0.98090  Biso   1.000  C
  C83      1.0000 0.97150  0.30994  0.48090  Biso   1.000  C
  C84      1.0000 0.02850  0.80994  0.01910  Biso   1.000  C
  C85      1.0000 0.80260  0.63279  0.41868  Biso   1.000  C
  C86      1.0000 0.19740  0.13279  0.08132  Biso   1.000  C
  C87      1.0000 0.19740  0.36721  0.58132  Biso   1.000  C
  C88      1.0000 0.80260  0.86721  0.91868  Biso   1.000  C
