data_image0
_cell_length_a       28.6
_cell_length_b       11.5539
_cell_length_c       17.686
_cell_angle_alpha    90
_cell_angle_beta     116.123
_cell_angle_gamma    90

_symmetry_space_group_name_H-M    "P 1"
_symmetry_int_tables_number       1

loop_
  _symmetry_equiv_pos_as_xyz
  'x, y, z'

loop_
  _atom_site_label
  _atom_site_occupancy
  _atom_site_fract_x
  _atom_site_fract_y
  _atom_site_fract_z
  _atom_site_thermal_displace_type
  _atom_site_B_iso_or_equiv
  _atom_site_type_symbol
  Cu1      1.0000 0.19909  0.03632  0.22981  Biso   1.000  Cu
  Cu2      1.0000 0.80091  0.03632  0.27019  Biso   1.000  Cu
  Cu3      1.0000 0.69909  0.53632  0.22981  Biso   1.000  Cu
  Cu4      1.0000 0.30091  0.53632  0.27019  Biso   1.000  Cu
  Cu5      1.0000 0.80091  0.96368  0.77019  Biso   1.000  Cu
  Cu6      1.0000 0.19909  0.96368  0.72981  Biso   1.000  Cu
  Cu7      1.0000 0.30091  0.46368  0.77019  Biso   1.000  Cu
  Cu8      1.0000 0.69909  0.46368  0.72981  Biso   1.000  Cu
  C1       1.0000 0.21750  0.18510  0.38400  Biso   1.000  C
  C2       1.0000 0.78250  0.18510  0.11600  Biso   1.000  C
  C3       1.0000 0.71750  0.68510  0.38400  Biso   1.000  C
  C4       1.0000 0.28250  0.68510  0.11600  Biso   1.000  C
  C5       1.0000 0.78250  0.81490  0.61600  Biso   1.000  C
  C6       1.0000 0.21750  0.81490  0.88400  Biso   1.000  C
  C7       1.0000 0.28250  0.31490  0.61600  Biso   1.000  C
  C8       1.0000 0.71750  0.31490  0.88400  Biso   1.000  C
  H1       1.0000 0.23110  0.12460  0.42220  Biso   1.000  H
  H2       1.0000 0.76890  0.12460  0.07780  Biso   1.000  H
  H3       1.0000 0.73110  0.62460  0.42220  Biso   1.000  H
  H4       1.0000 0.26890  0.62460  0.07780  Biso   1.000  H
  H5       1.0000 0.76890  0.87540  0.57780  Biso   1.000  H
  H6       1.0000 0.23110  0.87540  0.92220  Biso   1.000  H
  H7       1.0000 0.26890  0.37540  0.57780  Biso   1.000  H
  H8       1.0000 0.73110  0.37540  0.92220  Biso   1.000  H
  C9       1.0000 0.18730  0.27560  0.27150  Biso   1.000  C
  C10      1.0000 0.81270  0.27560  0.22850  Biso   1.000  C
  C11      1.0000 0.68730  0.77560  0.27150  Biso   1.000  C
  C12      1.0000 0.31270  0.77560  0.22850  Biso   1.000  C
  C13      1.0000 0.81270  0.72440  0.72850  Biso   1.000  C
  C14      1.0000 0.18730  0.72440  0.77150  Biso   1.000  C
  C15      1.0000 0.31270  0.22440  0.72850  Biso   1.000  C
  C16      1.0000 0.68730  0.22440  0.77150  Biso   1.000  C
  H9       1.0000 0.17470  0.29650  0.21520  Biso   1.000  H
  H10      1.0000 0.82530  0.29650  0.28480  Biso   1.000  H
  H11      1.0000 0.67470  0.79650  0.21520  Biso   1.000  H
  H12      1.0000 0.32530  0.79650  0.28480  Biso   1.000  H
  H13      1.0000 0.82530  0.70350  0.78480  Biso   1.000  H
  H14      1.0000 0.17470  0.70350  0.71520  Biso   1.000  H
  H15      1.0000 0.32530  0.20350  0.78480  Biso   1.000  H
  H16      1.0000 0.67470  0.20350  0.71520  Biso   1.000  H
  C17      1.0000 0.17600  0.46760  0.32940  Biso   1.000  C
  C18      1.0000 0.82400  0.46760  0.17060  Biso   1.000  C
  C19      1.0000 0.67600  0.96760  0.32940  Biso   1.000  C
  C20      1.0000 0.32400  0.96760  0.17060  Biso   1.000  C
  C21      1.0000 0.82400  0.53240  0.67060  Biso   1.000  C
  C22      1.0000 0.17600  0.53240  0.82940  Biso   1.000  C
  C23      1.0000 0.32400  0.03240  0.67060  Biso   1.000  C
  C24      1.0000 0.67600  0.03240  0.82940  Biso   1.000  C
  H17      1.0000 0.16800  0.49840  0.27400  Biso   1.000  H
  H18      1.0000 0.83200  0.49840  0.22600  Biso   1.000  H
  H19      1.0000 0.66800  0.99840  0.27400  Biso   1.000  H
  H20      1.0000 0.33200  0.99840  0.22600  Biso   1.000  H
  H21      1.0000 0.83200  0.50160  0.72600  Biso   1.000  H
  H22      1.0000 0.16800  0.50160  0.77400  Biso   1.000  H
  H23      1.0000 0.33200  0.00160  0.72600  Biso   1.000  H
  H24      1.0000 0.66800  0.00160  0.77400  Biso   1.000  H
  H25      1.0000 0.20480  0.51210  0.37030  Biso   1.000  H
  H26      1.0000 0.79520  0.51210  0.12970  Biso   1.000  H
  H27      1.0000 0.70480  0.01210  0.37030  Biso   1.000  H
  H28      1.0000 0.29520  0.01210  0.12970  Biso   1.000  H
  H29      1.0000 0.79520  0.48790  0.62970  Biso   1.000  H
  H30      1.0000 0.20480  0.48790  0.87030  Biso   1.000  H
  H31      1.0000 0.29520  0.98790  0.62970  Biso   1.000  H
  H32      1.0000 0.70480  0.98790  0.87030  Biso   1.000  H
  C25      1.0000 0.13030  0.48220  0.34610  Biso   1.000  C
  C26      1.0000 0.86970  0.48220  0.15390  Biso   1.000  C
  C27      1.0000 0.63030  0.98220  0.34610  Biso   1.000  C
  C28      1.0000 0.36970  0.98220  0.15390  Biso   1.000  C
  C29      1.0000 0.86970  0.51780  0.65390  Biso   1.000  C
  C30      1.0000 0.13030  0.51780  0.84610  Biso   1.000  C
  C31      1.0000 0.36970  0.01780  0.65390  Biso   1.000  C
  C32      1.0000 0.63030  0.01780  0.84610  Biso   1.000  C
  C33      1.0000 0.09360  0.39510  0.33180  Biso   1.000  C
  C34      1.0000 0.90640  0.39510  0.16820  Biso   1.000  C
  C35      1.0000 0.59360  0.89510  0.33180  Biso   1.000  C
  C36      1.0000 0.40640  0.89510  0.16820  Biso   1.000  C
  C37      1.0000 0.90640  0.60490  0.66820  Biso   1.000  C
  C38      1.0000 0.09360  0.60490  0.83180  Biso   1.000  C
  C39      1.0000 0.40640  0.10490  0.66820  Biso   1.000  C
  C40      1.0000 0.59360  0.10490  0.83180  Biso   1.000  C
  H33      1.0000 0.09860  0.32280  0.31340  Biso   1.000  H
  H34      1.0000 0.90140  0.32280  0.18660  Biso   1.000  H
  H35      1.0000 0.59860  0.82280  0.31340  Biso   1.000  H
  H36      1.0000 0.40140  0.82280  0.18660  Biso   1.000  H
  H37      1.0000 0.90140  0.67720  0.68660  Biso   1.000  H
  H38      1.0000 0.09860  0.67720  0.81340  Biso   1.000  H
  H39      1.0000 0.40140  0.17720  0.68660  Biso   1.000  H
  H40      1.0000 0.59860  0.17720  0.81340  Biso   1.000  H
  C41      1.0000 0.04990  0.41480  0.34460  Biso   1.000  C
  C42      1.0000 0.95010  0.41480  0.15540  Biso   1.000  C
  C43      1.0000 0.54990  0.91480  0.34460  Biso   1.000  C
  C44      1.0000 0.45010  0.91480  0.15540  Biso   1.000  C
  C45      1.0000 0.95010  0.58520  0.65540  Biso   1.000  C
  C46      1.0000 0.04990  0.58520  0.84460  Biso   1.000  C
  C47      1.0000 0.45010  0.08520  0.65540  Biso   1.000  C
  C48      1.0000 0.54990  0.08520  0.84460  Biso   1.000  C
  H41      1.0000 0.02580  0.35550  0.33450  Biso   1.000  H
  H42      1.0000 0.97420  0.35550  0.16550  Biso   1.000  H
  H43      1.0000 0.52580  0.85550  0.33450  Biso   1.000  H
  H44      1.0000 0.47420  0.85550  0.16550  Biso   1.000  H
  H45      1.0000 0.97420  0.64450  0.66550  Biso   1.000  H
  H46      1.0000 0.02580  0.64450  0.83450  Biso   1.000  H
  H47      1.0000 0.47420  0.14450  0.66550  Biso   1.000  H
  H48      1.0000 0.52580  0.14450  0.83450  Biso   1.000  H
  C49      1.0000 0.04120  0.52190  0.37240  Biso   1.000  C
  C50      1.0000 0.95880  0.52190  0.12760  Biso   1.000  C
  C51      1.0000 0.54120  0.02190  0.37240  Biso   1.000  C
  C52      1.0000 0.45880  0.02190  0.12760  Biso   1.000  C
  C53      1.0000 0.95880  0.47810  0.62760  Biso   1.000  C
  C54      1.0000 0.04120  0.47810  0.87240  Biso   1.000  C
  C55      1.0000 0.45880  0.97810  0.62760  Biso   1.000  C
  C56      1.0000 0.54120  0.97810  0.87240  Biso   1.000  C
  C57      1.0000 0.07970  0.60420  0.39220  Biso   1.000  C
  C58      1.0000 0.92030  0.60420  0.10780  Biso   1.000  C
  C59      1.0000 0.57970  0.10420  0.39220  Biso   1.000  C
  C60      1.0000 0.42030  0.10420  0.10780  Biso   1.000  C
  C61      1.0000 0.92030  0.39580  0.60780  Biso   1.000  C
  C62      1.0000 0.07970  0.39580  0.89220  Biso   1.000  C
  C63      1.0000 0.42030  0.89580  0.60780  Biso   1.000  C
  C64      1.0000 0.57970  0.89580  0.89220  Biso   1.000  C
  H49      1.0000 0.07630  0.67440  0.41500  Biso   1.000  H
  H50      1.0000 0.92370  0.67440  0.08500  Biso   1.000  H
  H51      1.0000 0.57630  0.17440  0.41500  Biso   1.000  H
  H52      1.0000 0.42370  0.17440  0.08500  Biso   1.000  H
  H53      1.0000 0.92370  0.32560  0.58500  Biso   1.000  H
  H54      1.0000 0.07630  0.32560  0.91500  Biso   1.000  H
  H55      1.0000 0.42370  0.82560  0.58500  Biso   1.000  H
  H56      1.0000 0.57630  0.82560  0.91500  Biso   1.000  H
  C65      1.0000 0.12340  0.58460  0.37900  Biso   1.000  C
  C66      1.0000 0.87660  0.58460  0.12100  Biso   1.000  C
  C67      1.0000 0.62340  0.08460  0.37900  Biso   1.000  C
  C68      1.0000 0.37660  0.08460  0.12100  Biso   1.000  C
  C69      1.0000 0.87660  0.41540  0.62100  Biso   1.000  C
  C70      1.0000 0.12340  0.41540  0.87900  Biso   1.000  C
  C71      1.0000 0.37660  0.91540  0.62100  Biso   1.000  C
  C72      1.0000 0.62340  0.91540  0.87900  Biso   1.000  C
  H57      1.0000 0.14860  0.64220  0.39270  Biso   1.000  H
  H58      1.0000 0.85140  0.64220  0.10730  Biso   1.000  H
  H59      1.0000 0.64860  0.14220  0.39270  Biso   1.000  H
  H60      1.0000 0.35140  0.14220  0.10730  Biso   1.000  H
  H61      1.0000 0.85140  0.35780  0.60730  Biso   1.000  H
  H62      1.0000 0.14860  0.35780  0.89270  Biso   1.000  H
  H63      1.0000 0.35140  0.85780  0.60730  Biso   1.000  H
  H64      1.0000 0.64860  0.85780  0.89270  Biso   1.000  H
  C73      1.0000 0.99350  0.54470  0.38450  Biso   1.000  C
  C74      1.0000 0.00650  0.54470  0.11550  Biso   1.000  C
  C75      1.0000 0.49350  0.04470  0.38450  Biso   1.000  C
  C76      1.0000 0.50650  0.04470  0.11550  Biso   1.000  C
  C77      1.0000 0.00650  0.45530  0.61550  Biso   1.000  C
  C78      1.0000 0.99350  0.45530  0.88450  Biso   1.000  C
  C79      1.0000 0.50650  0.95530  0.61550  Biso   1.000  C
  C80      1.0000 0.49350  0.95530  0.88450  Biso   1.000  C
  C81      1.0000 0.96390  0.45720  0.39390  Biso   1.000  C
  C82      1.0000 0.03610  0.45720  0.10610  Biso   1.000  C
  C83      1.0000 0.46390  0.95720  0.39390  Biso   1.000  C
  C84      1.0000 0.53610  0.95720  0.10610  Biso   1.000  C
  C85      1.0000 0.03610  0.54280  0.60610  Biso   1.000  C
  C86      1.0000 0.96390  0.54280  0.89390  Biso   1.000  C
  C87      1.0000 0.53610  0.04280  0.60610  Biso   1.000  C
  C88      1.0000 0.46390  0.04280  0.89390  Biso   1.000  C
  H65      1.0000 0.97340  0.38060  0.39230  Biso   1.000  H
  H66      1.0000 0.02660  0.38060  0.10770  Biso   1.000  H
  H67      1.0000 0.47340  0.88060  0.39230  Biso   1.000  H
  H68      1.0000 0.52660  0.88060  0.10770  Biso   1.000  H
  H69      1.0000 0.02660  0.61940  0.60770  Biso   1.000  H
  H70      1.0000 0.97340  0.61940  0.89230  Biso   1.000  H
  H71      1.0000 0.52660  0.11940  0.60770  Biso   1.000  H
  H72      1.0000 0.47340  0.11940  0.89230  Biso   1.000  H
  C89      1.0000 0.91950  0.48200  0.40600  Biso   1.000  C
  C90      1.0000 0.08050  0.48200  0.09400  Biso   1.000  C
  C91      1.0000 0.41950  0.98200  0.40600  Biso   1.000  C
  C92      1.0000 0.58050  0.98200  0.09400  Biso   1.000  C
  C93      1.0000 0.08050  0.51800  0.59400  Biso   1.000  C
  C94      1.0000 0.91950  0.51800  0.90600  Biso   1.000  C
  C95      1.0000 0.58050  0.01800  0.59400  Biso   1.000  C
  C96      1.0000 0.41950  0.01800  0.90600  Biso   1.000  C
  H73      1.0000 0.90000  0.42150  0.41220  Biso   1.000  H
  H74      1.0000 0.10000  0.42150  0.08780  Biso   1.000  H
  H75      1.0000 0.40000  0.92150  0.41220  Biso   1.000  H
  H76      1.0000 0.60000  0.92150  0.08780  Biso   1.000  H
  H77      1.0000 0.10000  0.57850  0.58780  Biso   1.000  H
  H78      1.0000 0.90000  0.57850  0.91220  Biso   1.000  H
  H79      1.0000 0.60000  0.07850  0.58780  Biso   1.000  H
  H80      1.0000 0.40000  0.07850  0.91220  Biso   1.000  H
  C97      1.0000 0.90460  0.59220  0.40860  Biso   1.000  C
  C98      1.0000 0.09540  0.59220  0.09140  Biso   1.000  C
  C99      1.0000 0.40460  0.09220  0.40860  Biso   1.000  C
  C100     1.0000 0.59540  0.09220  0.09140  Biso   1.000  C
  C101     1.0000 0.09540  0.40780  0.59140  Biso   1.000  C
  C102     1.0000 0.90460  0.40780  0.90860  Biso   1.000  C
  C103     1.0000 0.59540  0.90780  0.59140  Biso   1.000  C
  C104     1.0000 0.40460  0.90780  0.90860  Biso   1.000  C
  C105     1.0000 0.93410  0.68120  0.39910  Biso   1.000  C
  C106     1.0000 0.06590  0.68120  0.10090  Biso   1.000  C
  C107     1.0000 0.43410  0.18120  0.39910  Biso   1.000  C
  C108     1.0000 0.56590  0.18120  0.10090  Biso   1.000  C
  C109     1.0000 0.06590  0.31880  0.60090  Biso   1.000  C
  C110     1.0000 0.93410  0.31880  0.89910  Biso   1.000  C
  C111     1.0000 0.56590  0.81880  0.60090  Biso   1.000  C
  C112     1.0000 0.43410  0.81880  0.89910  Biso   1.000  C
  H81      1.0000 0.92490  0.75780  0.40160  Biso   1.000  H
  H82      1.0000 0.07510  0.75780  0.09840  Biso   1.000  H
  H83      1.0000 0.42490  0.25780  0.40160  Biso   1.000  H
  H84      1.0000 0.57510  0.25780  0.09840  Biso   1.000  H
  H85      1.0000 0.07510  0.24220  0.59840  Biso   1.000  H
  H86      1.0000 0.92490  0.24220  0.90160  Biso   1.000  H
  H87      1.0000 0.57510  0.74220  0.59840  Biso   1.000  H
  H88      1.0000 0.42490  0.74220  0.90160  Biso   1.000  H
  C113     1.0000 0.97680  0.65630  0.38630  Biso   1.000  C
  C114     1.0000 0.02320  0.65630  0.11370  Biso   1.000  C
  C115     1.0000 0.47680  0.15630  0.38630  Biso   1.000  C
  C116     1.0000 0.52320  0.15630  0.11370  Biso   1.000  C
  C117     1.0000 0.02320  0.34370  0.61370  Biso   1.000  C
  C118     1.0000 0.97680  0.34370  0.88630  Biso   1.000  C
  C119     1.0000 0.52320  0.84370  0.61370  Biso   1.000  C
  C120     1.0000 0.47680  0.84370  0.88630  Biso   1.000  C
  H89      1.0000 0.99540  0.71730  0.37830  Biso   1.000  H
  H90      1.0000 0.00460  0.71730  0.12170  Biso   1.000  H
  H91      1.0000 0.49540  0.21730  0.37830  Biso   1.000  H
  H92      1.0000 0.50460  0.21730  0.12170  Biso   1.000  H
  H93      1.0000 0.00460  0.28270  0.62170  Biso   1.000  H
  H94      1.0000 0.99540  0.28270  0.87830  Biso   1.000  H
  H95      1.0000 0.50460  0.78270  0.62170  Biso   1.000  H
  H96      1.0000 0.49540  0.78270  0.87830  Biso   1.000  H
  C121     1.0000 0.85760  0.61540  0.42420  Biso   1.000  C
  C122     1.0000 0.14240  0.61540  0.07580  Biso   1.000  C
  C123     1.0000 0.35760  0.11540  0.42420  Biso   1.000  C
  C124     1.0000 0.64240  0.11540  0.07580  Biso   1.000  C
  C125     1.0000 0.14240  0.38460  0.57580  Biso   1.000  C
  C126     1.0000 0.85760  0.38460  0.92420  Biso   1.000  C
  C127     1.0000 0.64240  0.88460  0.57580  Biso   1.000  C
  C128     1.0000 0.35760  0.88460  0.92420  Biso   1.000  C
  H97      1.0000 0.82880  0.56780  0.38660  Biso   1.000  H
  H98      1.0000 0.17120  0.56780  0.11340  Biso   1.000  H
  H99      1.0000 0.32880  0.06780  0.38660  Biso   1.000  H
  H100     1.0000 0.67120  0.06780  0.11340  Biso   1.000  H
  H101     1.0000 0.17120  0.43220  0.61340  Biso   1.000  H
  H102     1.0000 0.82880  0.43220  0.88660  Biso   1.000  H
  H103     1.0000 0.67120  0.93220  0.61340  Biso   1.000  H
  H104     1.0000 0.32880  0.93220  0.88660  Biso   1.000  H
  H105     1.0000 0.86550  0.59340  0.48160  Biso   1.000  H
  H106     1.0000 0.13450  0.59340  0.01840  Biso   1.000  H
  H107     1.0000 0.36550  0.09340  0.48160  Biso   1.000  H
  H108     1.0000 0.63450  0.09340  0.01840  Biso   1.000  H
  H109     1.0000 0.13450  0.40660  0.51840  Biso   1.000  H
  H110     1.0000 0.86550  0.40660  0.98160  Biso   1.000  H
  H111     1.0000 0.63450  0.90660  0.51840  Biso   1.000  H
  H112     1.0000 0.36550  0.90660  0.98160  Biso   1.000  H
  C129     1.0000 0.82120  0.79710  0.34010  Biso   1.000  C
  C130     1.0000 0.17880  0.79710  0.15990  Biso   1.000  C
  C131     1.0000 0.32120  0.29710  0.34010  Biso   1.000  C
  C132     1.0000 0.67880  0.29710  0.15990  Biso   1.000  C
  C133     1.0000 0.17880  0.20290  0.65990  Biso   1.000  C
  C134     1.0000 0.82120  0.20290  0.84010  Biso   1.000  C
  C135     1.0000 0.67880  0.70290  0.65990  Biso   1.000  C
  C136     1.0000 0.32120  0.70290  0.84010  Biso   1.000  C
  H113     1.0000 0.80970  0.76390  0.28700  Biso   1.000  H
  H114     1.0000 0.19030  0.76390  0.21300  Biso   1.000  H
  H115     1.0000 0.30970  0.26390  0.28700  Biso   1.000  H
  H116     1.0000 0.69030  0.26390  0.21300  Biso   1.000  H
  H117     1.0000 0.19030  0.23610  0.71300  Biso   1.000  H
  H118     1.0000 0.80970  0.23610  0.78700  Biso   1.000  H
  H119     1.0000 0.69030  0.73610  0.71300  Biso   1.000  H
  H120     1.0000 0.30970  0.73610  0.78700  Biso   1.000  H
  C137     1.0000 0.83700  0.91710  0.43690  Biso   1.000  C
  C138     1.0000 0.16300  0.91710  0.06310  Biso   1.000  C
  C139     1.0000 0.33700  0.41710  0.43690  Biso   1.000  C
  C140     1.0000 0.66300  0.41710  0.06310  Biso   1.000  C
  C141     1.0000 0.16300  0.08290  0.56310  Biso   1.000  C
  C142     1.0000 0.83700  0.08290  0.93690  Biso   1.000  C
  C143     1.0000 0.66300  0.58290  0.56310  Biso   1.000  C
  C144     1.0000 0.33700  0.58290  0.93690  Biso   1.000  C
  H121     1.0000 0.83720  0.98490  0.46540  Biso   1.000  H
  H122     1.0000 0.16280  0.98490  0.03460  Biso   1.000  H
  H123     1.0000 0.33720  0.48490  0.46540  Biso   1.000  H
  H124     1.0000 0.66280  0.48490  0.03460  Biso   1.000  H
  H125     1.0000 0.16280  0.01510  0.53460  Biso   1.000  H
  H126     1.0000 0.83720  0.01510  0.96540  Biso   1.000  H
  H127     1.0000 0.66280  0.51510  0.53460  Biso   1.000  H
  H128     1.0000 0.33720  0.51510  0.96540  Biso   1.000  H
  C145     1.0000 0.23680  0.88820  0.35600  Biso   1.000  C
  C146     1.0000 0.76320  0.88820  0.14400  Biso   1.000  C
  C147     1.0000 0.73680  0.38820  0.35600  Biso   1.000  C
  C148     1.0000 0.26320  0.38820  0.14400  Biso   1.000  C
  C149     1.0000 0.76320  0.11180  0.64400  Biso   1.000  C
  C150     1.0000 0.23680  0.11180  0.85600  Biso   1.000  C
  C151     1.0000 0.26320  0.61180  0.64400  Biso   1.000  C
  C152     1.0000 0.73680  0.61180  0.85600  Biso   1.000  C
  C153     1.0000 0.24320  0.81540  0.42890  Biso   1.000  C
  C154     1.0000 0.75680  0.81540  0.07110  Biso   1.000  C
  C155     1.0000 0.74320  0.31540  0.42890  Biso   1.000  C
  C156     1.0000 0.25680  0.31540  0.07110  Biso   1.000  C
  C157     1.0000 0.75680  0.18460  0.57110  Biso   1.000  C
  C158     1.0000 0.24320  0.18460  0.92890  Biso   1.000  C
  C159     1.0000 0.25680  0.68460  0.57110  Biso   1.000  C
  C160     1.0000 0.74320  0.68460  0.92890  Biso   1.000  C
  C161     1.0000 0.27690  0.72090  0.45340  Biso   1.000  C
  C162     1.0000 0.72310  0.72090  0.04660  Biso   1.000  C
  C163     1.0000 0.77690  0.22090  0.45340  Biso   1.000  C
  C164     1.0000 0.22310  0.22090  0.04660  Biso   1.000  C
  C165     1.0000 0.72310  0.27910  0.54660  Biso   1.000  C
  C166     1.0000 0.27690  0.27910  0.95340  Biso   1.000  C
  C167     1.0000 0.22310  0.77910  0.54660  Biso   1.000  C
  C168     1.0000 0.77690  0.77910  0.95340  Biso   1.000  C
  C169     1.0000 0.21620  0.84240  0.47610  Biso   1.000  C
  C170     1.0000 0.78380  0.84240  0.02390  Biso   1.000  C
  C171     1.0000 0.71620  0.34240  0.47610  Biso   1.000  C
  C172     1.0000 0.28380  0.34240  0.02390  Biso   1.000  C
  C173     1.0000 0.78380  0.15760  0.52390  Biso   1.000  C
  C174     1.0000 0.21620  0.15760  0.97610  Biso   1.000  C
  C175     1.0000 0.28380  0.65760  0.52390  Biso   1.000  C
  C176     1.0000 0.71620  0.65760  0.97610  Biso   1.000  C
  H129     1.0000 0.19320  0.90450  0.45970  Biso   1.000  H
  H130     1.0000 0.80680  0.90450  0.04030  Biso   1.000  H
  H131     1.0000 0.69320  0.40450  0.45970  Biso   1.000  H
  H132     1.0000 0.30680  0.40450  0.04030  Biso   1.000  H
  H133     1.0000 0.80680  0.09550  0.54030  Biso   1.000  H
  H134     1.0000 0.19320  0.09550  0.95970  Biso   1.000  H
  H135     1.0000 0.30680  0.59550  0.54030  Biso   1.000  H
  H136     1.0000 0.69320  0.59550  0.95970  Biso   1.000  H
  C177     1.0000 0.30510  0.67930  0.40320  Biso   1.000  C
  C178     1.0000 0.69490  0.67930  0.09680  Biso   1.000  C
  C179     1.0000 0.80510  0.17930  0.40320  Biso   1.000  C
  C180     1.0000 0.19490  0.17930  0.09680  Biso   1.000  C
  C181     1.0000 0.69490  0.32070  0.59680  Biso   1.000  C
  C182     1.0000 0.30510  0.32070  0.90320  Biso   1.000  C
  C183     1.0000 0.19490  0.82070  0.59680  Biso   1.000  C
  C184     1.0000 0.80510  0.82070  0.90320  Biso   1.000  C
  N1       1.0000 0.20261  0.17180  0.30070  Biso   1.000  N
  N2       1.0000 0.79739  0.17180  0.19930  Biso   1.000  N
  N3       1.0000 0.70261  0.67180  0.30070  Biso   1.000  N
  N4       1.0000 0.29739  0.67180  0.19930  Biso   1.000  N
  N5       1.0000 0.79739  0.82820  0.69930  Biso   1.000  N
  N6       1.0000 0.20261  0.82820  0.80070  Biso   1.000  N
  N7       1.0000 0.29739  0.32820  0.69930  Biso   1.000  N
  N8       1.0000 0.70261  0.32820  0.80070  Biso   1.000  N
  N9       1.0000 0.21160  0.28830  0.40660  Biso   1.000  N
  N10      1.0000 0.78840  0.28830  0.09340  Biso   1.000  N
  N11      1.0000 0.71160  0.78830  0.40660  Biso   1.000  N
  N12      1.0000 0.28840  0.78830  0.09340  Biso   1.000  N
  N13      1.0000 0.78840  0.71170  0.59340  Biso   1.000  N
  N14      1.0000 0.21160  0.71170  0.90660  Biso   1.000  N
  N15      1.0000 0.28840  0.21170  0.59340  Biso   1.000  N
  N16      1.0000 0.71160  0.21170  0.90660  Biso   1.000  N
  N17      1.0000 0.19209  0.34730  0.33310  Biso   1.000  N
  N18      1.0000 0.80791  0.34730  0.16690  Biso   1.000  N
  N19      1.0000 0.69209  0.84730  0.33310  Biso   1.000  N
  N20      1.0000 0.30791  0.84730  0.16690  Biso   1.000  N
  N21      1.0000 0.80791  0.65270  0.66690  Biso   1.000  N
  N22      1.0000 0.19209  0.65270  0.83310  Biso   1.000  N
  N23      1.0000 0.30791  0.15270  0.66690  Biso   1.000  N
  N24      1.0000 0.69209  0.15270  0.83310  Biso   1.000  N
  N25      1.0000 0.81881  0.90560  0.35240  Biso   1.000  N
  N26      1.0000 0.18119  0.90560  0.14760  Biso   1.000  N
  N27      1.0000 0.31881  0.40560  0.35240  Biso   1.000  N
  N28      1.0000 0.68119  0.40560  0.14760  Biso   1.000  N
  N29      1.0000 0.18119  0.09440  0.64760  Biso   1.000  N
  N30      1.0000 0.81881  0.09440  0.85240  Biso   1.000  N
  N31      1.0000 0.68119  0.59440  0.64760  Biso   1.000  N
  N32      1.0000 0.31881  0.59440  0.85240  Biso   1.000  N
  N33      1.0000 0.85390  0.81640  0.47110  Biso   1.000  N
  N34      1.0000 0.14610  0.81640  0.02890  Biso   1.000  N
  N35      1.0000 0.35390  0.31640  0.47110  Biso   1.000  N
  N36      1.0000 0.64610  0.31640  0.02890  Biso   1.000  N
  N37      1.0000 0.14610  0.18360  0.52890  Biso   1.000  N
  N38      1.0000 0.85390  0.18360  0.97110  Biso   1.000  N
  N39      1.0000 0.64610  0.68360  0.52890  Biso   1.000  N
  N40      1.0000 0.35390  0.68360  0.97110  Biso   1.000  N
  N41      1.0000 0.84183  0.73710  0.41140  Biso   1.000  N
  N42      1.0000 0.15817  0.73710  0.08860  Biso   1.000  N
  N43      1.0000 0.34183  0.23710  0.41140  Biso   1.000  N
  N44      1.0000 0.65817  0.23710  0.08860  Biso   1.000  N
  N45      1.0000 0.15817  0.26290  0.58860  Biso   1.000  N
  N46      1.0000 0.84183  0.26290  0.91140  Biso   1.000  N
  N47      1.0000 0.65817  0.76290  0.58860  Biso   1.000  N
  N48      1.0000 0.34183  0.76290  0.91140  Biso   1.000  N
  O1       1.0000 0.19155  0.93440  0.31360  Biso   1.000  O
  O2       1.0000 0.80845  0.93440  0.18640  Biso   1.000  O
  O3       1.0000 0.69155  0.43440  0.31360  Biso   1.000  O
  O4       1.0000 0.30845  0.43440  0.18640  Biso   1.000  O
  O5       1.0000 0.80845  0.06560  0.68640  Biso   1.000  O
  O6       1.0000 0.19155  0.06560  0.81360  Biso   1.000  O
  O7       1.0000 0.30845  0.56560  0.68640  Biso   1.000  O
  O8       1.0000 0.69155  0.56560  0.81360  Biso   1.000  O
  O9       1.0000 0.27351  0.90640  0.33920  Biso   1.000  O
  O10      1.0000 0.72649  0.90640  0.16080  Biso   1.000  O
  O11      1.0000 0.77351  0.40640  0.33920  Biso   1.000  O
  O12      1.0000 0.22649  0.40640  0.16080  Biso   1.000  O
  O13      1.0000 0.72649  0.09360  0.66080  Biso   1.000  O
  O14      1.0000 0.27351  0.09360  0.83920  Biso   1.000  O
  O15      1.0000 0.22649  0.59360  0.66080  Biso   1.000  O
  O16      1.0000 0.77351  0.59360  0.83920  Biso   1.000  O
  O17      1.0000 0.27424  0.63130  0.33390  Biso   1.000  O
  O18      1.0000 0.72576  0.63130  0.16610  Biso   1.000  O
  O19      1.0000 0.77424  0.13130  0.33390  Biso   1.000  O
  O20      1.0000 0.22576  0.13130  0.16610  Biso   1.000  O
  O21      1.0000 0.72576  0.36870  0.66610  Biso   1.000  O
  O22      1.0000 0.27424  0.36870  0.83390  Biso   1.000  O
  O23      1.0000 0.22576  0.86870  0.66610  Biso   1.000  O
  O24      1.0000 0.77424  0.86870  0.83390  Biso   1.000  O
  O25      1.0000 0.35213  0.69040  0.42990  Biso   1.000  O
  O26      1.0000 0.64787  0.69040  0.07010  Biso   1.000  O
  O27      1.0000 0.85213  0.19040  0.42990  Biso   1.000  O
  O28      1.0000 0.14787  0.19040  0.07010  Biso   1.000  O
  O29      1.0000 0.64787  0.30960  0.57010  Biso   1.000  O
  O30      1.0000 0.35213  0.30960  0.92990  Biso   1.000  O
  O31      1.0000 0.14787  0.80960  0.57010  Biso   1.000  O
  O32      1.0000 0.85213  0.80960  0.92990  Biso   1.000  O
  O33      1.0000 0.09280  0.09000  0.15730  Biso   1.000  O
  O34      1.0000 0.90720  0.09000  0.34270  Biso   1.000  O
  O35      1.0000 0.59280  0.59000  0.15730  Biso   1.000  O
  O36      1.0000 0.40720  0.59000  0.34270  Biso   1.000  O
  O37      1.0000 0.90720  0.91000  0.84270  Biso   1.000  O
  O38      1.0000 0.09280  0.91000  0.65730  Biso   1.000  O
  O39      1.0000 0.40720  0.41000  0.84270  Biso   1.000  O
  O40      1.0000 0.59280  0.41000  0.65730  Biso   1.000  O
  O41      1.0000 0.05990  0.07200  0.92510  Biso   1.000  O
  O42      1.0000 0.94010  0.07200  0.57490  Biso   1.000  O
  O43      1.0000 0.55990  0.57200  0.92510  Biso   1.000  O
  O44      1.0000 0.44010  0.57200  0.57490  Biso   1.000  O
  O45      1.0000 0.94010  0.92800  0.07490  Biso   1.000  O
  O46      1.0000 0.05990  0.92800  0.42510  Biso   1.000  O
  O47      1.0000 0.44010  0.42800  0.07490  Biso   1.000  O
  O48      1.0000 0.55990  0.42800  0.42510  Biso   1.000  O
