data_image0
_cell_length_a       10.1765
_cell_length_b       16.4109
_cell_length_c       17.349
_cell_angle_alpha    90
_cell_angle_beta     119.258
_cell_angle_gamma    90

_symmetry_space_group_name_H-M    "P 1"
_symmetry_int_tables_number       1

loop_
  _symmetry_equiv_pos_as_xyz
  'x, y, z'

loop_
  _atom_site_label
  _atom_site_occupancy
  _atom_site_fract_x
  _atom_site_fract_y
  _atom_site_fract_z
  _atom_site_thermal_displace_type
  _atom_site_B_iso_or_equiv
  _atom_site_type_symbol
  Cu1      1.0000 0.76930  0.82415  0.27015  Biso   1.000  Cu
  Cu2      1.0000 0.23070  0.32415  0.22985  Biso   1.000  Cu
  Cu3      1.0000 0.23070  0.17585  0.72985  Biso   1.000  Cu
  Cu4      1.0000 0.76930  0.67585  0.77015  Biso   1.000  Cu
  O1       1.0000 0.44750  0.76088  0.28070  Biso   1.000  O
  O2       1.0000 0.55250  0.26088  0.21930  Biso   1.000  O
  O3       1.0000 0.55250  0.23912  0.71930  Biso   1.000  O
  O4       1.0000 0.44750  0.73912  0.78070  Biso   1.000  O
  O5       1.0000 0.58220  0.86033  0.26654  Biso   1.000  O
  O6       1.0000 0.41780  0.36033  0.23346  Biso   1.000  O
  O7       1.0000 0.41780  0.13967  0.73346  Biso   1.000  O
  O8       1.0000 0.58220  0.63967  0.76654  Biso   1.000  O
  O9       1.0000 0.91070  0.96731  0.27560  Biso   1.000  O
  O10      1.0000 0.08930  0.46731  0.22440  Biso   1.000  O
  O11      1.0000 0.08930  0.03269  0.72440  Biso   1.000  O
  O12      1.0000 0.91070  0.53269  0.77560  Biso   1.000  O
  O13      1.0000 0.96110  0.83695  0.26908  Biso   1.000  O
  O14      1.0000 0.03890  0.33695  0.23092  Biso   1.000  O
  O15      1.0000 0.03890  0.16305  0.73092  Biso   1.000  O
  O16      1.0000 0.96110  0.66305  0.76908  Biso   1.000  O
  O17      1.0000 0.40530  0.13245  0.20045  Biso   1.000  O
  O18      1.0000 0.59470  0.63245  0.29955  Biso   1.000  O
  O19      1.0000 0.59470  0.86755  0.79955  Biso   1.000  O
  O20      1.0000 0.40530  0.36755  0.70045  Biso   1.000  O
  O21      1.0000 0.23790  0.17981  0.23752  Biso   1.000  O
  O22      1.0000 0.76210  0.67981  0.26248  Biso   1.000  O
  O23      1.0000 0.76210  0.82019  0.76248  Biso   1.000  O
  O24      1.0000 0.23790  0.32019  0.73752  Biso   1.000  O
  N1       1.0000 0.65870  0.82376  0.13930  Biso   1.000  N
  N2       1.0000 0.34130  0.32376  0.36070  Biso   1.000  N
  N3       1.0000 0.34130  0.17624  0.86070  Biso   1.000  N
  N4       1.0000 0.65870  0.67624  0.63930  Biso   1.000  N
  N5       1.0000 0.61020  0.79700  0.00410  Biso   1.000  N
  N6       1.0000 0.38980  0.29700  0.49590  Biso   1.000  N
  N7       1.0000 0.38980  0.20300  0.99590  Biso   1.000  N
  N8       1.0000 0.61020  0.70300  0.50410  Biso   1.000  N
  N9       1.0000 0.49320  0.83840  0.00190  Biso   1.000  N
  N10      1.0000 0.50680  0.33840  0.49810  Biso   1.000  N
  N11      1.0000 0.50680  0.16160  0.99810  Biso   1.000  N
  N12      1.0000 0.49320  0.66160  0.50190  Biso   1.000  N
  N13      1.0000 0.87780  0.82103  0.40050  Biso   1.000  N
  N14      1.0000 0.12220  0.32103  0.09950  Biso   1.000  N
  N15      1.0000 0.12220  0.17897  0.59950  Biso   1.000  N
  N16      1.0000 0.87780  0.67897  0.90050  Biso   1.000  N
  N17      1.0000 0.93160  0.80230  0.53860  Biso   1.000  N
  N18      1.0000 0.06840  0.30230  0.96140  Biso   1.000  N
  N19      1.0000 0.06840  0.19770  0.46140  Biso   1.000  N
  N20      1.0000 0.93160  0.69770  0.03860  Biso   1.000  N
  N21      1.0000 0.04650  0.84309  0.53730  Biso   1.000  N
  N22      1.0000 0.95350  0.34309  0.96270  Biso   1.000  N
  N23      1.0000 0.95350  0.15691  0.46270  Biso   1.000  N
  N24      1.0000 0.04650  0.65691  0.03730  Biso   1.000  N
  C1       1.0000 0.46840  0.83325  0.26890  Biso   1.000  C
  C2       1.0000 0.53160  0.33325  0.23110  Biso   1.000  C
  C3       1.0000 0.53160  0.16675  0.73110  Biso   1.000  C
  C4       1.0000 0.46840  0.66675  0.76890  Biso   1.000  C
  C5       1.0000 0.35230  0.89577  0.25770  Biso   1.000  C
  C6       1.0000 0.64770  0.39577  0.24230  Biso   1.000  C
  C7       1.0000 0.64770  0.10423  0.74230  Biso   1.000  C
  C8       1.0000 0.35230  0.60423  0.75770  Biso   1.000  C
  C9       1.0000 0.22660  0.87513  0.26530  Biso   1.000  C
  C10      1.0000 0.77340  0.37513  0.23470  Biso   1.000  C
  C11      1.0000 0.77340  0.12487  0.73470  Biso   1.000  C
  C12      1.0000 0.22660  0.62487  0.76530  Biso   1.000  C
  H1       1.0000 0.20990  0.82100  0.27380  Biso   1.000  H
  H2       1.0000 0.79010  0.32100  0.22620  Biso   1.000  H
  H3       1.0000 0.79010  0.17900  0.72620  Biso   1.000  H
  H4       1.0000 0.20990  0.67900  0.77380  Biso   1.000  H
  C13      1.0000 0.12560  0.93477  0.26040  Biso   1.000  C
  C14      1.0000 0.87440  0.43477  0.23960  Biso   1.000  C
  C15      1.0000 0.87440  0.06523  0.73960  Biso   1.000  C
  C16      1.0000 0.12560  0.56523  0.76040  Biso   1.000  C
  C17      1.0000 0.15170  0.01569  0.24840  Biso   1.000  C
  C18      1.0000 0.84830  0.51569  0.25160  Biso   1.000  C
  C19      1.0000 0.84830  0.98431  0.75160  Biso   1.000  C
  C20      1.0000 0.15170  0.48431  0.74840  Biso   1.000  C
  H5       1.0000 0.08700  0.05610  0.24760  Biso   1.000  H
  H6       1.0000 0.91300  0.55610  0.25240  Biso   1.000  H
  H7       1.0000 0.91300  0.94390  0.75240  Biso   1.000  H
  H8       1.0000 0.08700  0.44390  0.74760  Biso   1.000  H
  C21      1.0000 0.27350  0.03648  0.23750  Biso   1.000  C
  C22      1.0000 0.72650  0.53648  0.26250  Biso   1.000  C
  C23      1.0000 0.72650  0.96352  0.76250  Biso   1.000  C
  C24      1.0000 0.27350  0.46352  0.73750  Biso   1.000  C
  C25      1.0000 0.37340  0.97605  0.24230  Biso   1.000  C
  C26      1.0000 0.62660  0.47605  0.25770  Biso   1.000  C
  C27      1.0000 0.62660  0.02395  0.75770  Biso   1.000  C
  C28      1.0000 0.37340  0.52395  0.74230  Biso   1.000  C
  H9       1.0000 0.45520  0.98990  0.23500  Biso   1.000  H
  H10      1.0000 0.54480  0.48990  0.26500  Biso   1.000  H
  H11      1.0000 0.54480  0.01010  0.76500  Biso   1.000  H
  H12      1.0000 0.45520  0.51010  0.73500  Biso   1.000  H
  C29      1.0000 0.98890  0.91310  0.26890  Biso   1.000  C
  C30      1.0000 0.01110  0.41310  0.23110  Biso   1.000  C
  C31      1.0000 0.01110  0.08690  0.73110  Biso   1.000  C
  C32      1.0000 0.98890  0.58690  0.76890  Biso   1.000  C
  C33      1.0000 0.30280  0.12349  0.22520  Biso   1.000  C
  C34      1.0000 0.69720  0.62349  0.27480  Biso   1.000  C
  C35      1.0000 0.69720  0.87651  0.77480  Biso   1.000  C
  C36      1.0000 0.30280  0.37651  0.72520  Biso   1.000  C
  C37      1.0000 0.83180  0.78990  0.45600  Biso   1.000  C
  C38      1.0000 0.16820  0.28990  0.04400  Biso   1.000  C
  C39      1.0000 0.16820  0.21010  0.54400  Biso   1.000  C
  C40      1.0000 0.83180  0.71010  0.95600  Biso   1.000  C
  H13      1.0000 0.74070  0.76310  0.43750  Biso   1.000  H
  H14      1.0000 0.25930  0.26310  0.06250  Biso   1.000  H
  H15      1.0000 0.25930  0.23690  0.56250  Biso   1.000  H
  H16      1.0000 0.74070  0.73690  0.93750  Biso   1.000  H
  C41      1.0000 0.01110  0.85320  0.45370  Biso   1.000  C
  C42      1.0000 0.98890  0.35320  0.04630  Biso   1.000  C
  C43      1.0000 0.98890  0.14680  0.54630  Biso   1.000  C
  C44      1.0000 0.01110  0.64680  0.95370  Biso   1.000  C
  H17      1.0000 0.07160  0.87940  0.43500  Biso   1.000  H
  H18      1.0000 0.92840  0.37940  0.06500  Biso   1.000  H
  H19      1.0000 0.92840  0.12060  0.56500  Biso   1.000  H
  H20      1.0000 0.07160  0.62060  0.93500  Biso   1.000  H
  C45      1.0000 0.18280  0.87010  0.61770  Biso   1.000  C
  C46      1.0000 0.81720  0.37010  0.88230  Biso   1.000  C
  C47      1.0000 0.81720  0.12990  0.38230  Biso   1.000  C
  C48      1.0000 0.18280  0.62990  0.11770  Biso   1.000  C
  H21      1.0000 0.23260  0.82380  0.65550  Biso   1.000  H
  H22      1.0000 0.76740  0.32380  0.84450  Biso   1.000  H
  H23      1.0000 0.76740  0.17620  0.34450  Biso   1.000  H
  H24      1.0000 0.23260  0.67620  0.15550  Biso   1.000  H
  H25      1.0000 0.15590  0.90840  0.65030  Biso   1.000  H
  H26      1.0000 0.84410  0.40840  0.84970  Biso   1.000  H
  H27      1.0000 0.84410  0.09160  0.34970  Biso   1.000  H
  H28      1.0000 0.15590  0.59160  0.15030  Biso   1.000  H
  C49      1.0000 0.28610  0.91020  0.59010  Biso   1.000  C
  C50      1.0000 0.71390  0.41020  0.90990  Biso   1.000  C
  C51      1.0000 0.71390  0.08980  0.40990  Biso   1.000  C
  C52      1.0000 0.28610  0.58980  0.09010  Biso   1.000  C
  C53      1.0000 0.27500  0.99070  0.57040  Biso   1.000  C
  C54      1.0000 0.72500  0.49070  0.92960  Biso   1.000  C
  C55      1.0000 0.72500  0.00930  0.42960  Biso   1.000  C
  C56      1.0000 0.27500  0.50930  0.07040  Biso   1.000  C
  H29      1.0000 0.21010  0.02300  0.58070  Biso   1.000  H
  H30      1.0000 0.78990  0.52300  0.91930  Biso   1.000  H
  H31      1.0000 0.78990  0.97700  0.41930  Biso   1.000  H
  H32      1.0000 0.21010  0.47700  0.08070  Biso   1.000  H
  C57      1.0000 0.35690  0.02600  0.53550  Biso   1.000  C
  C58      1.0000 0.64310  0.52600  0.96450  Biso   1.000  C
  C59      1.0000 0.64310  0.97400  0.46450  Biso   1.000  C
  C60      1.0000 0.35690  0.47400  0.03550  Biso   1.000  C
  H33      1.0000 0.34570  0.08140  0.52260  Biso   1.000  H
  H34      1.0000 0.65430  0.58140  0.97740  Biso   1.000  H
  H35      1.0000 0.65430  0.91860  0.47740  Biso   1.000  H
  H36      1.0000 0.34570  0.41860  0.02260  Biso   1.000  H
  C61      1.0000 0.45600  0.98100  0.51890  Biso   1.000  C
  C62      1.0000 0.54400  0.48100  0.98110  Biso   1.000  C
  C63      1.0000 0.54400  0.01900  0.48110  Biso   1.000  C
  C64      1.0000 0.45600  0.51900  0.01890  Biso   1.000  C
  C65      1.0000 0.46990  0.89960  0.54190  Biso   1.000  C
  C66      1.0000 0.53010  0.39960  0.95810  Biso   1.000  C
  C67      1.0000 0.53010  0.10040  0.45810  Biso   1.000  C
  C68      1.0000 0.46990  0.60040  0.04190  Biso   1.000  C
  H37      1.0000 0.53690  0.86730  0.53360  Biso   1.000  H
  H38      1.0000 0.46310  0.36730  0.96640  Biso   1.000  H
  H39      1.0000 0.46310  0.13270  0.46640  Biso   1.000  H
  H40      1.0000 0.53690  0.63270  0.03360  Biso   1.000  H
  C69      1.0000 0.38720  0.86520  0.57690  Biso   1.000  C
  C70      1.0000 0.61280  0.36520  0.92310  Biso   1.000  C
  C71      1.0000 0.61280  0.13480  0.42310  Biso   1.000  C
  C72      1.0000 0.38720  0.63480  0.07690  Biso   1.000  C
  H41      1.0000 0.40010  0.81020  0.59200  Biso   1.000  H
  H42      1.0000 0.59990  0.31020  0.90800  Biso   1.000  H
  H43      1.0000 0.59990  0.18980  0.40800  Biso   1.000  H
  H44      1.0000 0.40010  0.68980  0.09200  Biso   1.000  H
  C73      1.0000 0.05140  0.97990  0.98760  Biso   1.000  C
  C74      1.0000 0.94860  0.47990  0.51240  Biso   1.000  C
  C75      1.0000 0.94860  0.02010  0.01240  Biso   1.000  C
  C76      1.0000 0.05140  0.52010  0.48760  Biso   1.000  C
  C77      1.0000 0.15390  0.02190  0.97370  Biso   1.000  C
  C78      1.0000 0.84610  0.52190  0.52630  Biso   1.000  C
  C79      1.0000 0.84610  0.97810  0.02630  Biso   1.000  C
  C80      1.0000 0.15390  0.47810  0.47370  Biso   1.000  C
  H45      1.0000 0.15990  0.07810  0.98120  Biso   1.000  H
  H46      1.0000 0.84010  0.57810  0.51880  Biso   1.000  H
  H47      1.0000 0.84010  0.92190  0.01880  Biso   1.000  H
  H48      1.0000 0.15990  0.42190  0.48120  Biso   1.000  H
  C81      1.0000 0.24850  0.98440  0.94920  Biso   1.000  C
  C82      1.0000 0.75150  0.48440  0.55080  Biso   1.000  C
  C83      1.0000 0.75150  0.01560  0.05080  Biso   1.000  C
  C84      1.0000 0.24850  0.51560  0.44920  Biso   1.000  C
  H49      1.0000 0.31550  0.01590  0.94000  Biso   1.000  H
  H50      1.0000 0.68450  0.51590  0.56000  Biso   1.000  H
  H51      1.0000 0.68450  0.98410  0.06000  Biso   1.000  H
  H52      1.0000 0.31550  0.48410  0.44000  Biso   1.000  H
  C85      1.0000 0.24640  0.90240  0.93810  Biso   1.000  C
  C86      1.0000 0.75360  0.40240  0.56190  Biso   1.000  C
  C87      1.0000 0.75360  0.09760  0.06190  Biso   1.000  C
  C88      1.0000 0.24640  0.59760  0.43810  Biso   1.000  C
  C89      1.0000 0.14390  0.85990  0.94940  Biso   1.000  C
  C90      1.0000 0.85610  0.35990  0.55060  Biso   1.000  C
  C91      1.0000 0.85610  0.14010  0.05060  Biso   1.000  C
  C92      1.0000 0.14390  0.64010  0.44940  Biso   1.000  C
  H53      1.0000 0.13730  0.80380  0.94050  Biso   1.000  H
  H54      1.0000 0.86270  0.30380  0.55950  Biso   1.000  H
  H55      1.0000 0.86270  0.19620  0.05950  Biso   1.000  H
  H56      1.0000 0.13730  0.69620  0.44050  Biso   1.000  H
  C93      1.0000 0.04880  0.89720  0.97360  Biso   1.000  C
  C94      1.0000 0.95120  0.39720  0.52640  Biso   1.000  C
  C95      1.0000 0.95120  0.10280  0.02640  Biso   1.000  C
  C96      1.0000 0.04880  0.60280  0.47360  Biso   1.000  C
  H57      1.0000 0.98000  0.86530  0.98090  Biso   1.000  H
  H58      1.0000 0.02000  0.36530  0.51910  Biso   1.000  H
  H59      1.0000 0.02000  0.13470  0.01910  Biso   1.000  H
  H60      1.0000 0.98000  0.63470  0.48090  Biso   1.000  H
  C97      1.0000 0.35810  0.86100  0.91810  Biso   1.000  C
  C98      1.0000 0.64190  0.36100  0.58190  Biso   1.000  C
  C99      1.0000 0.64190  0.13900  0.08190  Biso   1.000  C
  C100     1.0000 0.35810  0.63900  0.41810  Biso   1.000  C
  H61      1.0000 0.31320  0.81250  0.88290  Biso   1.000  H
  H62      1.0000 0.68680  0.31250  0.61710  Biso   1.000  H
  H63      1.0000 0.68680  0.18750  0.11710  Biso   1.000  H
  H64      1.0000 0.31320  0.68750  0.38290  Biso   1.000  H
  H65      1.0000 0.38620  0.89740  0.88450  Biso   1.000  H
  H66      1.0000 0.61380  0.39740  0.61550  Biso   1.000  H
  H67      1.0000 0.61380  0.10260  0.11550  Biso   1.000  H
  H68      1.0000 0.38620  0.60260  0.38450  Biso   1.000  H
  C101     1.0000 0.52490  0.85340  0.08410  Biso   1.000  C
  C102     1.0000 0.47510  0.35340  0.41590  Biso   1.000  C
  C103     1.0000 0.47510  0.14660  0.91590  Biso   1.000  C
  C104     1.0000 0.52490  0.64660  0.58410  Biso   1.000  C
  H69      1.0000 0.46220  0.88080  0.10050  Biso   1.000  H
  H70      1.0000 0.53780  0.38080  0.39950  Biso   1.000  H
  H71      1.0000 0.53780  0.11920  0.89950  Biso   1.000  H
  H72      1.0000 0.46220  0.61920  0.60050  Biso   1.000  H
  C105     1.0000 0.70700  0.78940  0.08710  Biso   1.000  C
  C106     1.0000 0.29300  0.28940  0.41290  Biso   1.000  C
  C107     1.0000 0.29300  0.21060  0.91290  Biso   1.000  C
  C108     1.0000 0.70700  0.71060  0.58710  Biso   1.000  C
  H73      1.0000 0.79930  0.76320  0.10820  Biso   1.000  H
  H74      1.0000 0.20070  0.26320  0.39180  Biso   1.000  H
  H75      1.0000 0.20070  0.23680  0.89180  Biso   1.000  H
  H76      1.0000 0.79930  0.73680  0.60820  Biso   1.000  H
  O25      1.0000 0.05800  0.81590  0.74210  Biso   1.000  O
  O26      1.0000 0.94200  0.31590  0.75790  Biso   1.000  O
  O27      1.0000 0.94200  0.18410  0.25790  Biso   1.000  O
  O28      1.0000 0.05800  0.68410  0.24210  Biso   1.000  O
