data_image0
_cell_length_a       6.988
_cell_length_b       7.5495
_cell_length_c       11.253
_cell_angle_alpha    85.42
_cell_angle_beta     72.523
_cell_angle_gamma    65.814

_symmetry_space_group_name_H-M    "P 1"
_symmetry_int_tables_number       1

loop_
  _symmetry_equiv_pos_as_xyz
  'x, y, z'

loop_
  _atom_site_label
  _atom_site_occupancy
  _atom_site_fract_x
  _atom_site_fract_y
  _atom_site_fract_z
  _atom_site_thermal_displace_type
  _atom_site_B_iso_or_equiv
  _atom_site_type_symbol
  Cu1      1.0000 0.50000  0.00000  0.00000  Biso   1.000  Cu
  Cu2      1.0000 0.50410  0.02510  0.01810  Biso   1.000  Cu
  Cu3      1.0000 0.49590  0.97490  0.98190  Biso   1.000  Cu
  Mn1      1.0000 0.00000  0.50000  0.50000  Biso   1.000  Mn
  O1       1.0000 0.68220  0.07540  0.85330  Biso   1.000  O
  O2       1.0000 0.31780  0.92460  0.14670  Biso   1.000  O
  O3       1.0000 0.03070  0.00920  0.74740  Biso   1.000  O
  O4       1.0000 0.96930  0.99080  0.25260  Biso   1.000  O
  O5       1.0000 0.41170  0.58370  0.72680  Biso   1.000  O
  O6       1.0000 0.58830  0.41630  0.27320  Biso   1.000  O
  O7       1.0000 0.49590  0.76220  0.83550  Biso   1.000  O
  O8       1.0000 0.50410  0.23780  0.16450  Biso   1.000  O
  O9       1.0000 0.83360  0.33500  0.62480  Biso   1.000  O
  O10      1.0000 0.16640  0.66500  0.37520  Biso   1.000  O
  O11      1.0000 0.81030  0.75700  0.62290  Biso   1.000  O
  O12      1.0000 0.18970  0.24300  0.37710  Biso   1.000  O
  O13      1.0000 0.73230  0.58970  0.41570  Biso   1.000  O
  O14      1.0000 0.26770  0.41030  0.58430  Biso   1.000  O
  O15      1.0000 0.69670  0.11380  0.50230  Biso   1.000  O
  O16      1.0000 0.30330  0.88620  0.49770  Biso   1.000  O
  N1       1.0000 0.78200  0.83690  0.02530  Biso   1.000  N
  N2       1.0000 0.21800  0.16310  0.97470  Biso   1.000  N
  C1       1.0000 0.95550  0.83530  0.92980  Biso   1.000  C
  C2       1.0000 0.04450  0.16470  0.07020  Biso   1.000  C
  C3       1.0000 0.16760  0.71440  0.92660  Biso   1.000  C
  C4       1.0000 0.83240  0.28560  0.07340  Biso   1.000  C
  C5       1.0000 0.19700  0.59640  0.02800  Biso   1.000  C
  C6       1.0000 0.80300  0.40360  0.97200  Biso   1.000  C
  C7       1.0000 0.02080  0.60480  0.12710  Biso   1.000  C
  C8       1.0000 0.97920  0.39520  0.87290  Biso   1.000  C
  C9       1.0000 0.81160  0.72740  0.12320  Biso   1.000  C
  C10      1.0000 0.18840  0.27260  0.87680  Biso   1.000  C
  C11      1.0000 0.88730  0.98210  0.83410  Biso   1.000  C
  C12      1.0000 0.11270  0.01790  0.16590  Biso   1.000  C
  C13      1.0000 0.37250  0.69020  0.81940  Biso   1.000  C
  C14      1.0000 0.62750  0.30980  0.18060  Biso   1.000  C
  H1       1.0000 0.34560  0.50660  0.02840  Biso   1.000  H
  H2       1.0000 0.65440  0.49340  0.97160  Biso   1.000  H
  H3       1.0000 0.04220  0.52580  0.19920  Biso   1.000  H
  H4       1.0000 0.95780  0.47420  0.80080  Biso   1.000  H
  H5       1.0000 0.68420  0.73400  0.19290  Biso   1.000  H
  H6       1.0000 0.31580  0.26600  0.80710  Biso   1.000  H
  H7       1.0000 0.87600  0.27900  0.66100  Biso   1.000  H
  H8       1.0000 0.12400  0.72100  0.33900  Biso   1.000  H
  H9       1.0000 0.71100  0.40700  0.66800  Biso   1.000  H
  H10      1.0000 0.28900  0.59300  0.33200  Biso   1.000  H
  H11      1.0000 0.70300  0.75500  0.69500  Biso   1.000  H
  H12      1.0000 0.29700  0.24500  0.30500  Biso   1.000  H
  H13      1.0000 0.77900  0.85000  0.59200  Biso   1.000  H
  H14      1.0000 0.22100  0.15000  0.40800  Biso   1.000  H
  H15      1.0000 0.60600  0.68100  0.44900  Biso   1.000  H
  H16      1.0000 0.39400  0.31900  0.55100  Biso   1.000  H
  H17      1.0000 0.70500  0.52500  0.37400  Biso   1.000  H
  H18      1.0000 0.29500  0.47500  0.62600  Biso   1.000  H
  H19      1.0000 0.72700  0.20400  0.54200  Biso   1.000  H
  H20      1.0000 0.27300  0.79600  0.45800  Biso   1.000  H
  H21      1.0000 0.74500  0.10200  0.42800  Biso   1.000  H
  H22      1.0000 0.25500  0.89800  0.57200  Biso   1.000  H
