data_image0
_cell_length_a       20.866
_cell_length_b       17.281
_cell_length_c       11.1077
_cell_angle_alpha    90
_cell_angle_beta     110.479
_cell_angle_gamma    90

_symmetry_space_group_name_H-M    "P 1"
_symmetry_int_tables_number       1

loop_
  _symmetry_equiv_pos_as_xyz
  'x, y, z'

loop_
  _atom_site_label
  _atom_site_occupancy
  _atom_site_fract_x
  _atom_site_fract_y
  _atom_site_fract_z
  _atom_site_thermal_displace_type
  _atom_site_B_iso_or_equiv
  _atom_site_type_symbol
  Cu1      1.0000 0.25000  0.25000  0.50000  Biso   1.000  Cu
  Cu2      1.0000 0.75000  0.25000  0.00000  Biso   1.000  Cu
  Cu3      1.0000 0.75000  0.75000  0.50000  Biso   1.000  Cu
  Cu4      1.0000 0.25000  0.75000  0.00000  Biso   1.000  Cu
  C1       1.0000 0.15250  0.05410  0.98110  Biso   1.000  C
  C2       1.0000 0.84750  0.05410  0.51890  Biso   1.000  C
  C3       1.0000 0.65250  0.55410  0.98110  Biso   1.000  C
  C4       1.0000 0.34750  0.55410  0.51890  Biso   1.000  C
  C5       1.0000 0.84750  0.94590  0.01890  Biso   1.000  C
  C6       1.0000 0.15250  0.94590  0.48110  Biso   1.000  C
  C7       1.0000 0.34750  0.44590  0.01890  Biso   1.000  C
  C8       1.0000 0.65250  0.44590  0.48110  Biso   1.000  C
  H1       1.0000 0.11740  0.02260  0.92990  Biso   1.000  H
  H2       1.0000 0.88260  0.02260  0.57010  Biso   1.000  H
  H3       1.0000 0.61740  0.52260  0.92990  Biso   1.000  H
  H4       1.0000 0.38260  0.52260  0.57010  Biso   1.000  H
  H5       1.0000 0.88260  0.97740  0.07010  Biso   1.000  H
  H6       1.0000 0.11740  0.97740  0.42990  Biso   1.000  H
  H7       1.0000 0.38260  0.47740  0.07010  Biso   1.000  H
  H8       1.0000 0.61740  0.47740  0.42990  Biso   1.000  H
  C9       1.0000 0.20390  0.08680  0.94490  Biso   1.000  C
  C10      1.0000 0.79610  0.08680  0.55510  Biso   1.000  C
  C11      1.0000 0.70390  0.58680  0.94490  Biso   1.000  C
  C12      1.0000 0.29610  0.58680  0.55510  Biso   1.000  C
  C13      1.0000 0.79610  0.91320  0.05510  Biso   1.000  C
  C14      1.0000 0.20390  0.91320  0.44490  Biso   1.000  C
  C15      1.0000 0.29610  0.41320  0.05510  Biso   1.000  C
  C16      1.0000 0.70390  0.41320  0.44490  Biso   1.000  C
  H9       1.0000 0.20590  0.07650  0.86410  Biso   1.000  H
  H10      1.0000 0.79410  0.07650  0.63590  Biso   1.000  H
  H11      1.0000 0.70590  0.57650  0.86410  Biso   1.000  H
  H12      1.0000 0.29410  0.57650  0.63590  Biso   1.000  H
  H13      1.0000 0.79410  0.92350  0.13590  Biso   1.000  H
  H14      1.0000 0.20590  0.92350  0.36410  Biso   1.000  H
  H15      1.0000 0.29410  0.42350  0.13590  Biso   1.000  H
  H16      1.0000 0.70590  0.42350  0.36410  Biso   1.000  H
  C17      1.0000 0.25130  0.13380  0.02790  Biso   1.000  C
  C18      1.0000 0.74870  0.13380  0.47210  Biso   1.000  C
  C19      1.0000 0.75130  0.63380  0.02790  Biso   1.000  C
  C20      1.0000 0.24870  0.63380  0.47210  Biso   1.000  C
  C21      1.0000 0.74870  0.86620  0.97210  Biso   1.000  C
  C22      1.0000 0.25130  0.86620  0.52790  Biso   1.000  C
  C23      1.0000 0.24870  0.36620  0.97210  Biso   1.000  C
  C24      1.0000 0.75130  0.36620  0.52790  Biso   1.000  C
  H17      1.0000 0.28710  0.15980  0.01390  Biso   1.000  H
  H18      1.0000 0.71290  0.15980  0.48610  Biso   1.000  H
  H19      1.0000 0.78710  0.65980  0.01390  Biso   1.000  H
  H20      1.0000 0.21290  0.65980  0.48610  Biso   1.000  H
  H21      1.0000 0.71290  0.84020  0.98610  Biso   1.000  H
  H22      1.0000 0.28710  0.84020  0.51390  Biso   1.000  H
  H23      1.0000 0.21290  0.34020  0.98610  Biso   1.000  H
  H24      1.0000 0.78710  0.34020  0.51390  Biso   1.000  H
  C25      1.0000 0.23290  0.13420  0.14680  Biso   1.000  C
  C26      1.0000 0.76710  0.13420  0.35320  Biso   1.000  C
  C27      1.0000 0.73290  0.63420  0.14680  Biso   1.000  C
  C28      1.0000 0.26710  0.63420  0.35320  Biso   1.000  C
  C29      1.0000 0.76710  0.86580  0.85320  Biso   1.000  C
  C30      1.0000 0.23290  0.86580  0.64680  Biso   1.000  C
  C31      1.0000 0.26710  0.36580  0.85320  Biso   1.000  C
  C32      1.0000 0.73290  0.36580  0.64680  Biso   1.000  C
  C33      1.0000 0.26740  0.17220  0.27000  Biso   1.000  C
  C34      1.0000 0.73260  0.17220  0.23000  Biso   1.000  C
  C35      1.0000 0.76740  0.67220  0.27000  Biso   1.000  C
  C36      1.0000 0.23260  0.67220  0.23000  Biso   1.000  C
  C37      1.0000 0.73260  0.82780  0.73000  Biso   1.000  C
  C38      1.0000 0.26740  0.82780  0.77000  Biso   1.000  C
  C39      1.0000 0.23260  0.32780  0.73000  Biso   1.000  C
  C40      1.0000 0.76740  0.32780  0.77000  Biso   1.000  C
  C41      1.0000 0.32400  0.21850  0.28330  Biso   1.000  C
  C42      1.0000 0.67600  0.21850  0.21670  Biso   1.000  C
  C43      1.0000 0.82400  0.71850  0.28330  Biso   1.000  C
  C44      1.0000 0.17600  0.71850  0.21670  Biso   1.000  C
  C45      1.0000 0.67600  0.78150  0.71670  Biso   1.000  C
  C46      1.0000 0.32400  0.78150  0.78330  Biso   1.000  C
  C47      1.0000 0.17600  0.28150  0.71670  Biso   1.000  C
  C48      1.0000 0.82400  0.28150  0.78330  Biso   1.000  C
  H25      1.0000 0.34020  0.21820  0.21520  Biso   1.000  H
  H26      1.0000 0.65980  0.21820  0.28480  Biso   1.000  H
  H27      1.0000 0.84020  0.71820  0.21520  Biso   1.000  H
  H28      1.0000 0.15980  0.71820  0.28480  Biso   1.000  H
  H29      1.0000 0.65980  0.78180  0.78480  Biso   1.000  H
  H30      1.0000 0.34020  0.78180  0.71520  Biso   1.000  H
  H31      1.0000 0.15980  0.28180  0.78480  Biso   1.000  H
  H32      1.0000 0.84020  0.28180  0.71520  Biso   1.000  H
  C49      1.0000 0.35850  0.26470  0.38660  Biso   1.000  C
  C50      1.0000 0.64150  0.26470  0.11340  Biso   1.000  C
  C51      1.0000 0.85850  0.76470  0.38660  Biso   1.000  C
  C52      1.0000 0.14150  0.76470  0.11340  Biso   1.000  C
  C53      1.0000 0.64150  0.73530  0.61340  Biso   1.000  C
  C54      1.0000 0.35850  0.73530  0.88660  Biso   1.000  C
  C55      1.0000 0.14150  0.23530  0.61340  Biso   1.000  C
  C56      1.0000 0.85850  0.23530  0.88660  Biso   1.000  C
  C57      1.0000 0.42240  0.30760  0.39360  Biso   1.000  C
  C58      1.0000 0.57760  0.30760  0.10640  Biso   1.000  C
  C59      1.0000 0.92240  0.80760  0.39360  Biso   1.000  C
  C60      1.0000 0.07760  0.80760  0.10640  Biso   1.000  C
  C61      1.0000 0.57760  0.69240  0.60640  Biso   1.000  C
  C62      1.0000 0.42240  0.69240  0.89360  Biso   1.000  C
  C63      1.0000 0.07760  0.19240  0.60640  Biso   1.000  C
  C64      1.0000 0.92240  0.19240  0.89360  Biso   1.000  C
  C65      1.0000 0.35020  0.20500  0.74750  Biso   1.000  C
  C66      1.0000 0.64980  0.20500  0.75250  Biso   1.000  C
  C67      1.0000 0.85020  0.70500  0.74750  Biso   1.000  C
  C68      1.0000 0.14980  0.70500  0.75250  Biso   1.000  C
  C69      1.0000 0.64980  0.79500  0.25250  Biso   1.000  C
  C70      1.0000 0.35020  0.79500  0.24750  Biso   1.000  C
  C71      1.0000 0.14980  0.29500  0.25250  Biso   1.000  C
  C72      1.0000 0.85020  0.29500  0.24750  Biso   1.000  C
  H33      1.0000 0.36410  0.25610  0.74760  Biso   1.000  H
  H34      1.0000 0.63590  0.25610  0.75240  Biso   1.000  H
  H35      1.0000 0.86410  0.75610  0.74760  Biso   1.000  H
  H36      1.0000 0.13590  0.75610  0.75240  Biso   1.000  H
  H37      1.0000 0.63590  0.74390  0.25240  Biso   1.000  H
  H38      1.0000 0.36410  0.74390  0.24760  Biso   1.000  H
  H39      1.0000 0.13590  0.24390  0.25240  Biso   1.000  H
  H40      1.0000 0.86410  0.24390  0.24760  Biso   1.000  H
  C73      1.0000 0.38330  0.16040  0.85240  Biso   1.000  C
  C74      1.0000 0.61670  0.16040  0.64760  Biso   1.000  C
  C75      1.0000 0.88330  0.66040  0.85240  Biso   1.000  C
  C76      1.0000 0.11670  0.66040  0.64760  Biso   1.000  C
  C77      1.0000 0.61670  0.83960  0.14760  Biso   1.000  C
  C78      1.0000 0.38330  0.83960  0.35240  Biso   1.000  C
  C79      1.0000 0.11670  0.33960  0.14760  Biso   1.000  C
  C80      1.0000 0.88330  0.33960  0.35240  Biso   1.000  C
  H41      1.0000 0.41760  0.18160  0.92270  Biso   1.000  H
  H42      1.0000 0.58240  0.18160  0.57730  Biso   1.000  H
  H43      1.0000 0.91760  0.68160  0.92270  Biso   1.000  H
  H44      1.0000 0.08240  0.68160  0.57730  Biso   1.000  H
  H45      1.0000 0.58240  0.81840  0.07730  Biso   1.000  H
  H46      1.0000 0.41760  0.81840  0.42270  Biso   1.000  H
  H47      1.0000 0.08240  0.31840  0.07730  Biso   1.000  H
  H48      1.0000 0.91760  0.31840  0.42270  Biso   1.000  H
  C81      1.0000 0.28240  0.10520  0.64600  Biso   1.000  C
  C82      1.0000 0.71760  0.10520  0.85400  Biso   1.000  C
  C83      1.0000 0.78240  0.60520  0.64600  Biso   1.000  C
  C84      1.0000 0.21760  0.60520  0.85400  Biso   1.000  C
  C85      1.0000 0.71760  0.89480  0.35400  Biso   1.000  C
  C86      1.0000 0.28240  0.89480  0.14600  Biso   1.000  C
  C87      1.0000 0.21760  0.39480  0.35400  Biso   1.000  C
  C88      1.0000 0.78240  0.39480  0.14600  Biso   1.000  C
  H49      1.0000 0.24700  0.08580  0.57550  Biso   1.000  H
  H50      1.0000 0.75300  0.08580  0.92450  Biso   1.000  H
  H51      1.0000 0.74700  0.58580  0.57550  Biso   1.000  H
  H52      1.0000 0.25300  0.58580  0.92450  Biso   1.000  H
  H53      1.0000 0.75300  0.91420  0.42450  Biso   1.000  H
  H54      1.0000 0.24700  0.91420  0.07550  Biso   1.000  H
  H55      1.0000 0.25300  0.41420  0.42450  Biso   1.000  H
  H56      1.0000 0.74700  0.41420  0.07550  Biso   1.000  H
  C89      1.0000 0.31420  0.05600  0.74470  Biso   1.000  C
  C90      1.0000 0.68580  0.05600  0.75530  Biso   1.000  C
  C91      1.0000 0.81420  0.55600  0.74470  Biso   1.000  C
  C92      1.0000 0.18580  0.55600  0.75530  Biso   1.000  C
  C93      1.0000 0.68580  0.94400  0.25530  Biso   1.000  C
  C94      1.0000 0.31420  0.94400  0.24470  Biso   1.000  C
  C95      1.0000 0.18580  0.44400  0.25530  Biso   1.000  C
  C96      1.0000 0.81420  0.44400  0.24470  Biso   1.000  C
  H57      1.0000 0.30150  0.00420  0.73880  Biso   1.000  H
  H58      1.0000 0.69850  0.00420  0.76120  Biso   1.000  H
  H59      1.0000 0.80150  0.50420  0.73880  Biso   1.000  H
  H60      1.0000 0.19850  0.50420  0.76120  Biso   1.000  H
  H61      1.0000 0.69850  0.99580  0.26120  Biso   1.000  H
  H62      1.0000 0.30150  0.99580  0.23880  Biso   1.000  H
  H63      1.0000 0.19850  0.49580  0.26120  Biso   1.000  H
  H64      1.0000 0.80150  0.49580  0.23880  Biso   1.000  H
  C97      1.0000 0.36510  0.08260  0.85310  Biso   1.000  C
  C98      1.0000 0.63490  0.08260  0.64690  Biso   1.000  C
  C99      1.0000 0.86510  0.58260  0.85310  Biso   1.000  C
  C100     1.0000 0.13490  0.58260  0.64690  Biso   1.000  C
  C101     1.0000 0.63490  0.91740  0.14690  Biso   1.000  C
  C102     1.0000 0.36510  0.91740  0.35310  Biso   1.000  C
  C103     1.0000 0.13490  0.41740  0.14690  Biso   1.000  C
  C104     1.0000 0.86510  0.41740  0.35310  Biso   1.000  C
  C105     1.0000 0.39870  0.03280  0.96250  Biso   1.000  C
  C106     1.0000 0.60130  0.03280  0.53750  Biso   1.000  C
  C107     1.0000 0.89870  0.53280  0.96250  Biso   1.000  C
  C108     1.0000 0.10130  0.53280  0.53750  Biso   1.000  C
  C109     1.0000 0.60130  0.96720  0.03750  Biso   1.000  C
  C110     1.0000 0.39870  0.96720  0.46250  Biso   1.000  C
  C111     1.0000 0.10130  0.46720  0.03750  Biso   1.000  C
  C112     1.0000 0.89870  0.46720  0.46250  Biso   1.000  C
  C113     1.0000 0.39940  0.95530  0.96220  Biso   1.000  C
  C114     1.0000 0.60060  0.95530  0.53780  Biso   1.000  C
  C115     1.0000 0.89940  0.45530  0.96220  Biso   1.000  C
  C116     1.0000 0.10060  0.45530  0.53780  Biso   1.000  C
  C117     1.0000 0.60060  0.04470  0.03780  Biso   1.000  C
  C118     1.0000 0.39940  0.04470  0.46220  Biso   1.000  C
  C119     1.0000 0.10060  0.54470  0.03780  Biso   1.000  C
  C120     1.0000 0.89940  0.54470  0.46220  Biso   1.000  C
  H65      1.0000 0.37560  0.92820  0.88760  Biso   1.000  H
  H66      1.0000 0.62440  0.92820  0.61240  Biso   1.000  H
  H67      1.0000 0.87560  0.42820  0.88760  Biso   1.000  H
  H68      1.0000 0.12440  0.42820  0.61240  Biso   1.000  H
  H69      1.0000 0.62440  0.07180  0.11240  Biso   1.000  H
  H70      1.0000 0.37560  0.07180  0.38760  Biso   1.000  H
  H71      1.0000 0.12440  0.57180  0.11240  Biso   1.000  H
  H72      1.0000 0.87560  0.57180  0.38760  Biso   1.000  H
  C121     1.0000 0.47720  0.98900  0.19060  Biso   1.000  C
  C122     1.0000 0.52280  0.98900  0.30940  Biso   1.000  C
  C123     1.0000 0.97720  0.48900  0.19060  Biso   1.000  C
  C124     1.0000 0.02280  0.48900  0.30940  Biso   1.000  C
  C125     1.0000 0.52280  0.01100  0.80940  Biso   1.000  C
  C126     1.0000 0.47720  0.01100  0.69060  Biso   1.000  C
  C127     1.0000 0.02280  0.51100  0.80940  Biso   1.000  C
  C128     1.0000 0.97720  0.51100  0.69060  Biso   1.000  C
  F1       1.0000 0.47540  0.28500  0.47850  Biso   1.000  F
  F2       1.0000 0.52460  0.28500  0.02150  Biso   1.000  F
  F3       1.0000 0.97540  0.78500  0.47850  Biso   1.000  F
  F4       1.0000 0.02460  0.78500  0.02150  Biso   1.000  F
  F5       1.0000 0.52460  0.71500  0.52150  Biso   1.000  F
  F6       1.0000 0.47540  0.71500  0.97850  Biso   1.000  F
  F7       1.0000 0.02460  0.21500  0.52150  Biso   1.000  F
  F8       1.0000 0.97540  0.21500  0.97850  Biso   1.000  F
  F9       1.0000 0.41570  0.38060  0.39010  Biso   1.000  F
  F10      1.0000 0.58430  0.38060  0.10990  Biso   1.000  F
  F11      1.0000 0.91570  0.88060  0.39010  Biso   1.000  F
  F12      1.0000 0.08430  0.88060  0.10990  Biso   1.000  F
  F13      1.0000 0.58430  0.61940  0.60990  Biso   1.000  F
  F14      1.0000 0.41570  0.61940  0.89010  Biso   1.000  F
  F15      1.0000 0.08430  0.11940  0.60990  Biso   1.000  F
  F16      1.0000 0.91570  0.11940  0.89010  Biso   1.000  F
  F17      1.0000 0.43900  0.29670  0.28820  Biso   1.000  F
  F18      1.0000 0.56100  0.29670  0.21180  Biso   1.000  F
  F19      1.0000 0.93900  0.79670  0.28820  Biso   1.000  F
  F20      1.0000 0.06100  0.79670  0.21180  Biso   1.000  F
  F21      1.0000 0.56100  0.70330  0.71180  Biso   1.000  F
  F22      1.0000 0.43900  0.70330  0.78820  Biso   1.000  F
  F23      1.0000 0.06100  0.20330  0.71180  Biso   1.000  F
  F24      1.0000 0.93900  0.20330  0.78820  Biso   1.000  F
  N1       1.0000 0.29926  0.17930  0.64500  Biso   1.000  N
  N2       1.0000 0.70074  0.17930  0.85500  Biso   1.000  N
  N3       1.0000 0.79926  0.67930  0.64500  Biso   1.000  N
  N4       1.0000 0.20074  0.67930  0.85500  Biso   1.000  N
  N5       1.0000 0.70074  0.82070  0.35500  Biso   1.000  N
  N6       1.0000 0.29926  0.82070  0.14500  Biso   1.000  N
  N7       1.0000 0.20074  0.32070  0.35500  Biso   1.000  N
  N8       1.0000 0.79926  0.32070  0.14500  Biso   1.000  N
  O1       1.0000 0.24454  0.16130  0.35740  Biso   1.000  O
  O2       1.0000 0.75546  0.16130  0.14260  Biso   1.000  O
  O3       1.0000 0.74454  0.66130  0.35740  Biso   1.000  O
  O4       1.0000 0.25546  0.66130  0.14260  Biso   1.000  O
  O5       1.0000 0.75546  0.83870  0.64260  Biso   1.000  O
  O6       1.0000 0.24454  0.83870  0.85740  Biso   1.000  O
  O7       1.0000 0.25546  0.33870  0.64260  Biso   1.000  O
  O8       1.0000 0.74454  0.33870  0.85740  Biso   1.000  O
  O9       1.0000 0.34360  0.27900  0.48490  Biso   1.000  O
  O10      1.0000 0.65640  0.27900  0.01510  Biso   1.000  O
  O11      1.0000 0.84360  0.77900  0.48490  Biso   1.000  O
  O12      1.0000 0.15640  0.77900  0.01510  Biso   1.000  O
  O13      1.0000 0.65640  0.72100  0.51510  Biso   1.000  O
  O14      1.0000 0.34360  0.72100  0.98490  Biso   1.000  O
  O15      1.0000 0.15640  0.22100  0.51510  Biso   1.000  O
  O16      1.0000 0.84360  0.22100  0.98490  Biso   1.000  O
  S1       1.0000 0.16417  0.08085  0.13240  Biso   1.000  S
  S2       1.0000 0.83583  0.08085  0.36760  Biso   1.000  S
  S3       1.0000 0.66417  0.58085  0.13240  Biso   1.000  S
  S4       1.0000 0.33583  0.58085  0.36760  Biso   1.000  S
  S5       1.0000 0.83583  0.91915  0.86760  Biso   1.000  S
  S6       1.0000 0.16417  0.91915  0.63240  Biso   1.000  S
  S7       1.0000 0.33583  0.41915  0.86760  Biso   1.000  S
  S8       1.0000 0.66417  0.41915  0.63240  Biso   1.000  S
  S9       1.0000 0.44505  0.07644  0.11059  Biso   1.000  S
  S10      1.0000 0.55495  0.07644  0.38941  Biso   1.000  S
  S11      1.0000 0.94505  0.57644  0.11059  Biso   1.000  S
  S12      1.0000 0.05495  0.57644  0.38941  Biso   1.000  S
  S13      1.0000 0.55495  0.92356  0.88941  Biso   1.000  S
  S14      1.0000 0.44505  0.92356  0.61059  Biso   1.000  S
  S15      1.0000 0.05495  0.42356  0.88941  Biso   1.000  S
  S16      1.0000 0.94505  0.42356  0.61059  Biso   1.000  S
  S17      1.0000 0.44462  0.90606  0.10068  Biso   1.000  S
  S18      1.0000 0.55538  0.90606  0.39932  Biso   1.000  S
  S19      1.0000 0.94462  0.40606  0.10068  Biso   1.000  S
  S20      1.0000 0.05538  0.40606  0.39932  Biso   1.000  S
  S21      1.0000 0.55538  0.09394  0.89932  Biso   1.000  S
  S22      1.0000 0.44462  0.09394  0.60068  Biso   1.000  S
  S23      1.0000 0.05538  0.59394  0.89932  Biso   1.000  S
  S24      1.0000 0.94462  0.59394  0.60068  Biso   1.000  S
