data_image0
_cell_length_a       11.06
_cell_length_b       22.22
_cell_length_c       12.208
_cell_angle_alpha    90
_cell_angle_beta     95.87
_cell_angle_gamma    90

_symmetry_space_group_name_H-M    "P 1"
_symmetry_int_tables_number       1

loop_
  _symmetry_equiv_pos_as_xyz
  'x, y, z'

loop_
  _atom_site_label
  _atom_site_occupancy
  _atom_site_fract_x
  _atom_site_fract_y
  _atom_site_fract_z
  _atom_site_thermal_displace_type
  _atom_site_B_iso_or_equiv
  _atom_site_type_symbol
  Cu1      1.0000 0.00000  0.62644  0.75000  Biso   1.000  Cu
  Cu2      1.0000 0.50000  0.12644  0.75000  Biso   1.000  Cu
  Cu3      1.0000 0.00000  0.37356  0.25000  Biso   1.000  Cu
  Cu4      1.0000 0.50000  0.87356  0.25000  Biso   1.000  Cu
  Cu5      1.0000 0.00000  0.12720  0.75000  Biso   1.000  Cu
  Cu6      1.0000 0.50000  0.62720  0.75000  Biso   1.000  Cu
  Cu7      1.0000 0.00000  0.87280  0.25000  Biso   1.000  Cu
  Cu8      1.0000 0.50000  0.37280  0.25000  Biso   1.000  Cu
  S1       1.0000 0.26518  0.60462  0.88780  Biso   1.000  S
  S2       1.0000 0.73482  0.60462  0.61220  Biso   1.000  S
  S3       1.0000 0.76518  0.10462  0.88780  Biso   1.000  S
  S4       1.0000 0.23482  0.10462  0.61220  Biso   1.000  S
  S5       1.0000 0.73482  0.39538  0.11220  Biso   1.000  S
  S6       1.0000 0.26518  0.39538  0.38780  Biso   1.000  S
  S7       1.0000 0.23482  0.89538  0.11220  Biso   1.000  S
  S8       1.0000 0.76518  0.89538  0.38780  Biso   1.000  S
  N1       1.0000 0.00000  0.03688  0.75000  Biso   1.000  N
  N2       1.0000 0.50000  0.53688  0.75000  Biso   1.000  N
  N3       1.0000 0.00000  0.96312  0.25000  Biso   1.000  N
  N4       1.0000 0.50000  0.46312  0.25000  Biso   1.000  N
  N5       1.0000 0.00000  0.21808  0.75000  Biso   1.000  N
  N6       1.0000 0.50000  0.71808  0.75000  Biso   1.000  N
  N7       1.0000 0.00000  0.78192  0.25000  Biso   1.000  N
  N8       1.0000 0.50000  0.28192  0.25000  Biso   1.000  N
  N9       1.0000 0.00000  0.71719  0.75000  Biso   1.000  N
  N10      1.0000 0.50000  0.21719  0.75000  Biso   1.000  N
  N11      1.0000 0.00000  0.28281  0.25000  Biso   1.000  N
  N12      1.0000 0.50000  0.78281  0.25000  Biso   1.000  N
  N13      1.0000 0.00000  0.53708  0.75000  Biso   1.000  N
  N14      1.0000 0.50000  0.03708  0.75000  Biso   1.000  N
  N15      1.0000 0.00000  0.46292  0.25000  Biso   1.000  N
  N16      1.0000 0.50000  0.96292  0.25000  Biso   1.000  N
  C1       1.0000 0.06230  0.81057  0.83530  Biso   1.000  C
  C2       1.0000 0.93770  0.81057  0.66470  Biso   1.000  C
  C3       1.0000 0.56230  0.31057  0.83530  Biso   1.000  C
  C4       1.0000 0.43770  0.31057  0.66470  Biso   1.000  C
  C5       1.0000 0.93770  0.18943  0.16470  Biso   1.000  C
  C6       1.0000 0.06230  0.18943  0.33530  Biso   1.000  C
  C7       1.0000 0.43770  0.68943  0.16470  Biso   1.000  C
  C8       1.0000 0.56230  0.68943  0.33530  Biso   1.000  C
  H1       1.0000 0.10470  0.83050  0.89430  Biso   1.000  H
  H2       1.0000 0.89530  0.83050  0.60570  Biso   1.000  H
  H3       1.0000 0.60470  0.33050  0.89430  Biso   1.000  H
  H4       1.0000 0.39530  0.33050  0.60570  Biso   1.000  H
  H5       1.0000 0.89530  0.16950  0.10570  Biso   1.000  H
  H6       1.0000 0.10470  0.16950  0.39430  Biso   1.000  H
  H7       1.0000 0.39530  0.66950  0.10570  Biso   1.000  H
  H8       1.0000 0.60470  0.66950  0.39430  Biso   1.000  H
  C9       1.0000 0.92880  0.00574  0.67520  Biso   1.000  C
  C10      1.0000 0.07120  0.00574  0.82480  Biso   1.000  C
  C11      1.0000 0.42880  0.50574  0.67520  Biso   1.000  C
  C12      1.0000 0.57120  0.50574  0.82480  Biso   1.000  C
  C13      1.0000 0.07120  0.99426  0.32480  Biso   1.000  C
  C14      1.0000 0.92880  0.99426  0.17520  Biso   1.000  C
  C15      1.0000 0.57120  0.49426  0.32480  Biso   1.000  C
  C16      1.0000 0.42880  0.49426  0.17520  Biso   1.000  C
  H9       1.0000 0.87890  0.02680  0.62250  Biso   1.000  H
  H10      1.0000 0.12110  0.02680  0.87750  Biso   1.000  H
  H11      1.0000 0.37890  0.52680  0.62250  Biso   1.000  H
  H12      1.0000 0.62110  0.52680  0.87750  Biso   1.000  H
  H13      1.0000 0.12110  0.97320  0.37750  Biso   1.000  H
  H14      1.0000 0.87890  0.97320  0.12250  Biso   1.000  H
  H15      1.0000 0.62110  0.47320  0.37750  Biso   1.000  H
  H16      1.0000 0.37890  0.47320  0.12250  Biso   1.000  H
  C17      1.0000 0.00000  0.34460  0.75000  Biso   1.000  C
  C18      1.0000 0.50000  0.84460  0.75000  Biso   1.000  C
  C19      1.0000 0.00000  0.65540  0.25000  Biso   1.000  C
  C20      1.0000 0.50000  0.15540  0.25000  Biso   1.000  C
  C21      1.0000 0.06080  0.74843  0.83220  Biso   1.000  C
  C22      1.0000 0.93920  0.74843  0.66780  Biso   1.000  C
  C23      1.0000 0.56080  0.24843  0.83220  Biso   1.000  C
  C24      1.0000 0.43920  0.24843  0.66780  Biso   1.000  C
  C25      1.0000 0.93920  0.25157  0.16780  Biso   1.000  C
  C26      1.0000 0.06080  0.25157  0.33220  Biso   1.000  C
  C27      1.0000 0.43920  0.75157  0.16780  Biso   1.000  C
  C28      1.0000 0.56080  0.75157  0.33220  Biso   1.000  C
  H17      1.0000 0.10380  0.72730  0.88930  Biso   1.000  H
  H18      1.0000 0.89620  0.72730  0.61070  Biso   1.000  H
  H19      1.0000 0.60380  0.22730  0.88930  Biso   1.000  H
  H20      1.0000 0.39620  0.22730  0.61070  Biso   1.000  H
  H21      1.0000 0.89620  0.27270  0.11070  Biso   1.000  H
  H22      1.0000 0.10380  0.27270  0.38930  Biso   1.000  H
  H23      1.0000 0.39620  0.77270  0.11070  Biso   1.000  H
  H24      1.0000 0.60380  0.77270  0.38930  Biso   1.000  H
  C29      1.0000 0.07640  0.50599  0.69310  Biso   1.000  C
  C30      1.0000 0.92360  0.50599  0.80690  Biso   1.000  C
  C31      1.0000 0.57640  0.00599  0.69310  Biso   1.000  C
  C32      1.0000 0.42360  0.00599  0.80690  Biso   1.000  C
  C33      1.0000 0.92360  0.49401  0.30690  Biso   1.000  C
  C34      1.0000 0.07640  0.49401  0.19310  Biso   1.000  C
  C35      1.0000 0.42360  0.99401  0.30690  Biso   1.000  C
  C36      1.0000 0.57640  0.99401  0.19310  Biso   1.000  C
  H25      1.0000 0.13040  0.52710  0.65380  Biso   1.000  H
  H26      1.0000 0.86960  0.52710  0.84620  Biso   1.000  H
  H27      1.0000 0.63040  0.02710  0.65380  Biso   1.000  H
  H28      1.0000 0.36960  0.02710  0.84620  Biso   1.000  H
  H29      1.0000 0.86960  0.47290  0.34620  Biso   1.000  H
  H30      1.0000 0.13040  0.47290  0.15380  Biso   1.000  H
  H31      1.0000 0.36960  0.97290  0.34620  Biso   1.000  H
  H32      1.0000 0.63040  0.97290  0.15380  Biso   1.000  H
  C37      1.0000 0.90510  0.31159  0.78640  Biso   1.000  C
  C38      1.0000 0.09490  0.31159  0.71360  Biso   1.000  C
  C39      1.0000 0.40510  0.81159  0.78640  Biso   1.000  C
  C40      1.0000 0.59490  0.81159  0.71360  Biso   1.000  C
  C41      1.0000 0.09490  0.68841  0.21360  Biso   1.000  C
  C42      1.0000 0.90510  0.68841  0.28640  Biso   1.000  C
  C43      1.0000 0.59490  0.18841  0.21360  Biso   1.000  C
  C44      1.0000 0.40510  0.18841  0.28640  Biso   1.000  C
  H33      1.0000 0.83950  0.33140  0.81200  Biso   1.000  H
  H34      1.0000 0.16050  0.33140  0.68800  Biso   1.000  H
  H35      1.0000 0.33950  0.83140  0.81200  Biso   1.000  H
  H36      1.0000 0.66050  0.83140  0.68800  Biso   1.000  H
  H37      1.0000 0.16050  0.66860  0.18800  Biso   1.000  H
  H38      1.0000 0.83950  0.66860  0.31200  Biso   1.000  H
  H39      1.0000 0.66050  0.16860  0.18800  Biso   1.000  H
  H40      1.0000 0.33950  0.16860  0.31200  Biso   1.000  H
  C45      1.0000 0.00000  0.91052  0.75000  Biso   1.000  C
  C46      1.0000 0.50000  0.41052  0.75000  Biso   1.000  C
  C47      1.0000 0.00000  0.08948  0.25000  Biso   1.000  C
  C48      1.0000 0.50000  0.58948  0.25000  Biso   1.000  C
  C49      1.0000 0.92620  0.94350  0.67300  Biso   1.000  C
  C50      1.0000 0.07380  0.94350  0.82700  Biso   1.000  C
  C51      1.0000 0.42620  0.44350  0.67300  Biso   1.000  C
  C52      1.0000 0.57380  0.44350  0.82700  Biso   1.000  C
  C53      1.0000 0.07380  0.05650  0.32700  Biso   1.000  C
  C54      1.0000 0.92620  0.05650  0.17300  Biso   1.000  C
  C55      1.0000 0.57380  0.55650  0.32700  Biso   1.000  C
  C56      1.0000 0.42620  0.55650  0.17300  Biso   1.000  C
  H41      1.0000 0.87490  0.92370  0.61960  Biso   1.000  H
  H42      1.0000 0.12510  0.92370  0.88040  Biso   1.000  H
  H43      1.0000 0.37490  0.42370  0.61960  Biso   1.000  H
  H44      1.0000 0.62510  0.42370  0.88040  Biso   1.000  H
  H45      1.0000 0.12510  0.07630  0.38040  Biso   1.000  H
  H46      1.0000 0.87490  0.07630  0.11960  Biso   1.000  H
  H47      1.0000 0.62510  0.57630  0.38040  Biso   1.000  H
  H48      1.0000 0.37490  0.57630  0.11960  Biso   1.000  H
  C57      1.0000 0.90810  0.24948  0.78470  Biso   1.000  C
  C58      1.0000 0.09190  0.24948  0.71530  Biso   1.000  C
  C59      1.0000 0.40810  0.74948  0.78470  Biso   1.000  C
  C60      1.0000 0.59190  0.74948  0.71530  Biso   1.000  C
  C61      1.0000 0.09190  0.75052  0.21530  Biso   1.000  C
  C62      1.0000 0.90810  0.75052  0.28470  Biso   1.000  C
  C63      1.0000 0.59190  0.25052  0.21530  Biso   1.000  C
  C64      1.0000 0.40810  0.25052  0.28470  Biso   1.000  C
  H49      1.0000 0.84300  0.22850  0.80880  Biso   1.000  H
  H50      1.0000 0.15700  0.22850  0.69120  Biso   1.000  H
  H51      1.0000 0.34300  0.72850  0.80880  Biso   1.000  H
  H52      1.0000 0.65700  0.72850  0.69120  Biso   1.000  H
  H53      1.0000 0.15700  0.77150  0.19120  Biso   1.000  H
  H54      1.0000 0.84300  0.77150  0.30880  Biso   1.000  H
  H55      1.0000 0.65700  0.27150  0.19120  Biso   1.000  H
  H56      1.0000 0.34300  0.27150  0.30880  Biso   1.000  H
  C65      1.0000 0.07840  0.44386  0.69040  Biso   1.000  C
  C66      1.0000 0.92160  0.44386  0.80960  Biso   1.000  C
  C67      1.0000 0.57840  0.94386  0.69040  Biso   1.000  C
  C68      1.0000 0.42160  0.94386  0.80960  Biso   1.000  C
  C69      1.0000 0.92160  0.55614  0.30960  Biso   1.000  C
  C70      1.0000 0.07840  0.55614  0.19040  Biso   1.000  C
  C71      1.0000 0.42160  0.05614  0.30960  Biso   1.000  C
  C72      1.0000 0.57840  0.05614  0.19040  Biso   1.000  C
  H57      1.0000 0.13200  0.42390  0.64890  Biso   1.000  H
  H58      1.0000 0.86800  0.42390  0.85110  Biso   1.000  H
  H59      1.0000 0.63200  0.92390  0.64890  Biso   1.000  H
  H60      1.0000 0.36800  0.92390  0.85110  Biso   1.000  H
  H61      1.0000 0.86800  0.57610  0.35110  Biso   1.000  H
  H62      1.0000 0.13200  0.57610  0.14890  Biso   1.000  H
  H63      1.0000 0.36800  0.07610  0.35110  Biso   1.000  H
  H64      1.0000 0.63200  0.07610  0.14890  Biso   1.000  H
  C73      1.0000 0.00000  0.84347  0.75000  Biso   1.000  C
  C74      1.0000 0.50000  0.34347  0.75000  Biso   1.000  C
  C75      1.0000 0.00000  0.15653  0.25000  Biso   1.000  C
  C76      1.0000 0.50000  0.65653  0.25000  Biso   1.000  C
  C77      1.0000 0.00000  0.41118  0.75000  Biso   1.000  C
  C78      1.0000 0.50000  0.91118  0.75000  Biso   1.000  C
  C79      1.0000 0.00000  0.58882  0.25000  Biso   1.000  C
  C80      1.0000 0.50000  0.08882  0.25000  Biso   1.000  C
  C81      1.0000 0.79690  0.10414  0.44270  Biso   1.000  C
  C82      1.0000 0.20310  0.10414  0.05730  Biso   1.000  C
  C83      1.0000 0.29690  0.60414  0.44270  Biso   1.000  C
  C84      1.0000 0.70310  0.60414  0.05730  Biso   1.000  C
  C85      1.0000 0.20310  0.89586  0.55730  Biso   1.000  C
  C86      1.0000 0.79690  0.89586  0.94270  Biso   1.000  C
  C87      1.0000 0.70310  0.39586  0.55730  Biso   1.000  C
  C88      1.0000 0.29690  0.39586  0.94270  Biso   1.000  C
  H65      1.0000 0.78170  0.11800  0.36720  Biso   1.000  H
  H66      1.0000 0.21830  0.11800  0.13280  Biso   1.000  H
  H67      1.0000 0.28170  0.61800  0.36720  Biso   1.000  H
  H68      1.0000 0.71830  0.61800  0.13280  Biso   1.000  H
  H69      1.0000 0.21830  0.88200  0.63280  Biso   1.000  H
  H70      1.0000 0.78170  0.88200  0.86720  Biso   1.000  H
  H71      1.0000 0.71830  0.38200  0.63280  Biso   1.000  H
  H72      1.0000 0.28170  0.38200  0.86720  Biso   1.000  H
  H73      1.0000 0.87190  0.08120  0.44970  Biso   1.000  H
  H74      1.0000 0.12810  0.08120  0.05030  Biso   1.000  H
  H75      1.0000 0.37190  0.58120  0.44970  Biso   1.000  H
  H76      1.0000 0.62810  0.58120  0.05030  Biso   1.000  H
  H77      1.0000 0.12810  0.91880  0.55030  Biso   1.000  H
  H78      1.0000 0.87190  0.91880  0.94970  Biso   1.000  H
  H79      1.0000 0.62810  0.41880  0.55030  Biso   1.000  H
  H80      1.0000 0.37190  0.41880  0.94970  Biso   1.000  H
  C89      1.0000 0.80810  0.15679  0.51930  Biso   1.000  C
  C90      1.0000 0.19190  0.15679  0.98070  Biso   1.000  C
  C91      1.0000 0.30810  0.65679  0.51930  Biso   1.000  C
  C92      1.0000 0.69190  0.65679  0.98070  Biso   1.000  C
  C93      1.0000 0.19190  0.84321  0.48070  Biso   1.000  C
  C94      1.0000 0.80810  0.84321  0.01930  Biso   1.000  C
  C95      1.0000 0.69190  0.34321  0.48070  Biso   1.000  C
  C96      1.0000 0.30810  0.34321  0.01930  Biso   1.000  C
  H81      1.0000 0.87280  0.18300  0.50020  Biso   1.000  H
  H82      1.0000 0.12720  0.18300  0.99980  Biso   1.000  H
  H83      1.0000 0.37280  0.68300  0.50020  Biso   1.000  H
  H84      1.0000 0.62720  0.68300  0.99980  Biso   1.000  H
  H85      1.0000 0.12720  0.81700  0.49980  Biso   1.000  H
  H86      1.0000 0.87280  0.81700  0.00020  Biso   1.000  H
  H87      1.0000 0.62720  0.31700  0.49980  Biso   1.000  H
  H88      1.0000 0.37280  0.31700  0.00020  Biso   1.000  H
  H89      1.0000 0.73290  0.17960  0.51210  Biso   1.000  H
  H90      1.0000 0.26710  0.17960  0.98790  Biso   1.000  H
  H91      1.0000 0.23290  0.67960  0.51210  Biso   1.000  H
  H92      1.0000 0.76710  0.67960  0.98790  Biso   1.000  H
  H93      1.0000 0.26710  0.82040  0.48790  Biso   1.000  H
  H94      1.0000 0.73290  0.82040  0.01210  Biso   1.000  H
  H95      1.0000 0.76710  0.32040  0.48790  Biso   1.000  H
  H96      1.0000 0.23290  0.32040  0.01210  Biso   1.000  H
  O1       1.0000 0.18604  0.62764  0.78866  Biso   1.000  O
  O2       1.0000 0.81396  0.62764  0.71134  Biso   1.000  O
  O3       1.0000 0.68604  0.12764  0.78866  Biso   1.000  O
  O4       1.0000 0.31396  0.12764  0.71134  Biso   1.000  O
  O5       1.0000 0.81396  0.37236  0.21134  Biso   1.000  O
  O6       1.0000 0.18604  0.37236  0.28866  Biso   1.000  O
  O7       1.0000 0.31396  0.87236  0.21134  Biso   1.000  O
  O8       1.0000 0.68604  0.87236  0.28866  Biso   1.000  O
  O9       1.0000 0.38961  0.62756  0.87965  Biso   1.000  O
  O10      1.0000 0.61039  0.62756  0.62035  Biso   1.000  O
  O11      1.0000 0.88961  0.12756  0.87965  Biso   1.000  O
  O12      1.0000 0.11039  0.12756  0.62035  Biso   1.000  O
  O13      1.0000 0.61039  0.37244  0.12035  Biso   1.000  O
  O14      1.0000 0.38961  0.37244  0.37965  Biso   1.000  O
  O15      1.0000 0.11039  0.87244  0.12035  Biso   1.000  O
  O16      1.0000 0.88961  0.87244  0.37965  Biso   1.000  O
  O17      1.0000 0.26430  0.53917  0.88790  Biso   1.000  O
  O18      1.0000 0.73570  0.53917  0.61210  Biso   1.000  O
  O19      1.0000 0.76430  0.03917  0.88790  Biso   1.000  O
  O20      1.0000 0.23570  0.03917  0.61210  Biso   1.000  O
  O21      1.0000 0.73570  0.46083  0.11210  Biso   1.000  O
  O22      1.0000 0.26430  0.46083  0.38790  Biso   1.000  O
  O23      1.0000 0.23570  0.96083  0.11210  Biso   1.000  O
  O24      1.0000 0.76430  0.96083  0.38790  Biso   1.000  O
  O25      1.0000 0.02690  0.63123  0.56389  Biso   1.000  O
  O26      1.0000 0.97310  0.63123  0.93611  Biso   1.000  O
  O27      1.0000 0.52690  0.13123  0.56389  Biso   1.000  O
  O28      1.0000 0.47310  0.13123  0.93611  Biso   1.000  O
  O29      1.0000 0.97310  0.36877  0.43611  Biso   1.000  O
  O30      1.0000 0.02690  0.36877  0.06389  Biso   1.000  O
  O31      1.0000 0.47310  0.86877  0.43611  Biso   1.000  O
  O32      1.0000 0.52690  0.86877  0.06389  Biso   1.000  O
  H97      1.0000 0.07200  0.60980  0.53100  Biso   1.000  H
  H98      1.0000 0.92800  0.60980  0.96900  Biso   1.000  H
  H99      1.0000 0.57200  0.10980  0.53100  Biso   1.000  H
  H100     1.0000 0.42800  0.10980  0.96900  Biso   1.000  H
  H101     1.0000 0.92800  0.39020  0.46900  Biso   1.000  H
  H102     1.0000 0.07200  0.39020  0.03100  Biso   1.000  H
  H103     1.0000 0.42800  0.89020  0.46900  Biso   1.000  H
  H104     1.0000 0.57200  0.89020  0.03100  Biso   1.000  H
  H105     1.0000 0.95600  0.62780  0.53200  Biso   1.000  H
  H106     1.0000 0.04400  0.62780  0.96800  Biso   1.000  H
  H107     1.0000 0.45600  0.12780  0.53200  Biso   1.000  H
  H108     1.0000 0.54400  0.12780  0.96800  Biso   1.000  H
  H109     1.0000 0.04400  0.37220  0.46800  Biso   1.000  H
  H110     1.0000 0.95600  0.37220  0.03200  Biso   1.000  H
  H111     1.0000 0.54400  0.87220  0.46800  Biso   1.000  H
  H112     1.0000 0.45600  0.87220  0.03200  Biso   1.000  H
  O33      1.0000 0.22028  0.62951  0.98674  Biso   1.000  O
  O34      1.0000 0.77972  0.62951  0.51326  Biso   1.000  O
  O35      1.0000 0.72028  0.12951  0.98674  Biso   1.000  O
  O36      1.0000 0.27972  0.12951  0.51326  Biso   1.000  O
  O37      1.0000 0.77972  0.37049  0.01326  Biso   1.000  O
  O38      1.0000 0.22028  0.37049  0.48674  Biso   1.000  O
  O39      1.0000 0.27972  0.87049  0.01326  Biso   1.000  O
  O40      1.0000 0.72028  0.87049  0.48674  Biso   1.000  O
  O41      1.0000 0.69940  0.06732  0.46951  Biso   1.000  O
  O42      1.0000 0.30060  0.06732  0.03049  Biso   1.000  O
  O43      1.0000 0.19940  0.56732  0.46951  Biso   1.000  O
  O44      1.0000 0.80060  0.56732  0.03049  Biso   1.000  O
  O45      1.0000 0.30060  0.93268  0.53049  Biso   1.000  O
  O46      1.0000 0.69940  0.93268  0.96951  Biso   1.000  O
  O47      1.0000 0.80060  0.43268  0.53049  Biso   1.000  O
  O48      1.0000 0.19940  0.43268  0.96951  Biso   1.000  O
  H113     1.0000 0.70500  0.03460  0.44300  Biso   1.000  H
  H114     1.0000 0.29500  0.03460  0.05700  Biso   1.000  H
  H115     1.0000 0.20500  0.53460  0.44300  Biso   1.000  H
  H116     1.0000 0.79500  0.53460  0.05700  Biso   1.000  H
  H117     1.0000 0.29500  0.96540  0.55700  Biso   1.000  H
  H118     1.0000 0.70500  0.96540  0.94300  Biso   1.000  H
  H119     1.0000 0.79500  0.46540  0.55700  Biso   1.000  H
  H120     1.0000 0.20500  0.46540  0.94300  Biso   1.000  H
  O49      1.0000 0.83370  0.13657  0.62979  Biso   1.000  O
  O50      1.0000 0.16630  0.13657  0.87021  Biso   1.000  O
  O51      1.0000 0.33370  0.63657  0.62979  Biso   1.000  O
  O52      1.0000 0.66630  0.63657  0.87021  Biso   1.000  O
  O53      1.0000 0.16630  0.86343  0.37021  Biso   1.000  O
  O54      1.0000 0.83370  0.86343  0.12979  Biso   1.000  O
  O55      1.0000 0.66630  0.36343  0.37021  Biso   1.000  O
  O56      1.0000 0.33370  0.36343  0.12979  Biso   1.000  O
  H121     1.0000 0.77100  0.13730  0.65400  Biso   1.000  H
  H122     1.0000 0.22900  0.13730  0.84600  Biso   1.000  H
  H123     1.0000 0.27100  0.63730  0.65400  Biso   1.000  H
  H124     1.0000 0.72900  0.63730  0.84600  Biso   1.000  H
  H125     1.0000 0.22900  0.86270  0.34600  Biso   1.000  H
  H126     1.0000 0.77100  0.86270  0.15400  Biso   1.000  H
  H127     1.0000 0.72900  0.36270  0.34600  Biso   1.000  H
  H128     1.0000 0.27100  0.36270  0.15400  Biso   1.000  H
