data_image0
_cell_length_a       8.501
_cell_length_b       12.9761
_cell_length_c       16.8519
_cell_angle_alpha    90
_cell_angle_beta     97.538
_cell_angle_gamma    90

_symmetry_space_group_name_H-M    "P 1"
_symmetry_int_tables_number       1

loop_
  _symmetry_equiv_pos_as_xyz
  'x, y, z'

loop_
  _atom_site_label
  _atom_site_occupancy
  _atom_site_fract_x
  _atom_site_fract_y
  _atom_site_fract_z
  _atom_site_thermal_displace_type
  _atom_site_B_iso_or_equiv
  _atom_site_type_symbol
  Cu1      1.0000 0.77211  0.52500  0.09128  Biso   1.000  Cu
  Cu2      1.0000 0.22789  0.02500  0.40872  Biso   1.000  Cu
  Cu3      1.0000 0.22789  0.47500  0.90872  Biso   1.000  Cu
  Cu4      1.0000 0.77211  0.97500  0.59128  Biso   1.000  Cu
  Cu5      1.0000 0.15671  0.51368  0.08213  Biso   1.000  Cu
  Cu6      1.0000 0.84329  0.01368  0.41787  Biso   1.000  Cu
  Cu7      1.0000 0.84329  0.48632  0.91787  Biso   1.000  Cu
  Cu8      1.0000 0.15671  0.98632  0.58213  Biso   1.000  Cu
  Cu9      1.0000 0.02608  0.60968  0.24382  Biso   1.000  Cu
  Cu10     1.0000 0.97392  0.10968  0.25618  Biso   1.000  Cu
  Cu11     1.0000 0.97392  0.39032  0.75618  Biso   1.000  Cu
  Cu12     1.0000 0.02608  0.89032  0.74382  Biso   1.000  Cu
  N1       1.0000 0.21320  0.58275  0.33440  Biso   1.000  N
  N2       1.0000 0.78680  0.08275  0.16560  Biso   1.000  N
  N3       1.0000 0.78680  0.41725  0.66560  Biso   1.000  N
  N4       1.0000 0.21320  0.91725  0.83440  Biso   1.000  N
  N5       1.0000 0.88912  0.54972  0.31975  Biso   1.000  N
  N6       1.0000 0.11088  0.04972  0.18025  Biso   1.000  N
  N7       1.0000 0.11088  0.45028  0.68025  Biso   1.000  N
  N8       1.0000 0.88912  0.95028  0.81975  Biso   1.000  N
  H1       1.0000 0.82630  0.59920  0.33600  Biso   1.000  H
  H2       1.0000 0.17370  0.09920  0.16400  Biso   1.000  H
  H3       1.0000 0.17370  0.40080  0.66400  Biso   1.000  H
  H4       1.0000 0.82630  0.90080  0.83600  Biso   1.000  H
  H5       1.0000 0.82670  0.50040  0.29480  Biso   1.000  H
  H6       1.0000 0.17330  0.00040  0.20520  Biso   1.000  H
  H7       1.0000 0.17330  0.49960  0.70520  Biso   1.000  H
  H8       1.0000 0.82670  0.99960  0.79480  Biso   1.000  H
  N9       1.0000 0.01504  0.45131  0.15425  Biso   1.000  N
  N10      1.0000 0.98496  0.95131  0.34575  Biso   1.000  N
  N11      1.0000 0.98496  0.54869  0.84575  Biso   1.000  N
  N12      1.0000 0.01504  0.04869  0.65425  Biso   1.000  N
  N13      1.0000 0.01228  0.36568  0.17899  Biso   1.000  N
  N14      1.0000 0.98772  0.86568  0.32101  Biso   1.000  N
  N15      1.0000 0.98772  0.63432  0.82101  Biso   1.000  N
  N16      1.0000 0.01228  0.13432  0.67899  Biso   1.000  N
  N17      1.0000 0.00550  0.28514  0.20518  Biso   1.000  N
  N18      1.0000 0.99450  0.78514  0.29482  Biso   1.000  N
  N19      1.0000 0.99450  0.71486  0.79482  Biso   1.000  N
  N20      1.0000 0.00550  0.21486  0.70518  Biso   1.000  N
  N21      1.0000 0.17073  0.63319  0.15945  Biso   1.000  N
  N22      1.0000 0.82927  0.13319  0.34055  Biso   1.000  N
  N23      1.0000 0.82927  0.36681  0.84055  Biso   1.000  N
  N24      1.0000 0.17073  0.86681  0.65945  Biso   1.000  N
  N25      1.0000 0.20026  0.71969  0.13790  Biso   1.000  N
  N26      1.0000 0.79974  0.21969  0.36210  Biso   1.000  N
  N27      1.0000 0.79974  0.28031  0.86210  Biso   1.000  N
  N28      1.0000 0.20026  0.78031  0.63790  Biso   1.000  N
  N29      1.0000 0.23070  0.80010  0.11862  Biso   1.000  N
  N30      1.0000 0.76930  0.30010  0.38138  Biso   1.000  N
  N31      1.0000 0.76930  0.19990  0.88138  Biso   1.000  N
  N32      1.0000 0.23070  0.69990  0.61862  Biso   1.000  N
  N33      1.0000 0.88724  0.59062  0.00643  Biso   1.000  N
  N34      1.0000 0.11276  0.09062  0.49357  Biso   1.000  N
  N35      1.0000 0.11276  0.40938  0.99357  Biso   1.000  N
  N36      1.0000 0.88724  0.90938  0.50643  Biso   1.000  N
  N37      1.0000 0.87615  0.68338  0.99509  Biso   1.000  N
  N38      1.0000 0.12385  0.18338  0.50491  Biso   1.000  N
  N39      1.0000 0.12385  0.31662  0.00491  Biso   1.000  N
  N40      1.0000 0.87615  0.81662  0.49509  Biso   1.000  N
  N41      1.0000 0.86740  0.77043  0.98577  Biso   1.000  N
  N42      1.0000 0.13260  0.27043  0.51423  Biso   1.000  N
  N43      1.0000 0.13260  0.22957  0.01423  Biso   1.000  N
  N44      1.0000 0.86740  0.72957  0.48577  Biso   1.000  N
  N45      1.0000 0.72926  0.41956  0.00208  Biso   1.000  N
  N46      1.0000 0.27074  0.91956  0.49792  Biso   1.000  N
  N47      1.0000 0.27074  0.58044  0.99792  Biso   1.000  N
  N48      1.0000 0.72926  0.08044  0.50208  Biso   1.000  N
  N49      1.0000 0.60092  0.38046  0.98306  Biso   1.000  N
  N50      1.0000 0.39908  0.88046  0.51694  Biso   1.000  N
  N51      1.0000 0.39908  0.61954  0.01694  Biso   1.000  N
  N52      1.0000 0.60092  0.11954  0.48306  Biso   1.000  N
  N53      1.0000 0.48180  0.34241  0.96522  Biso   1.000  N
  N54      1.0000 0.51820  0.84241  0.53478  Biso   1.000  N
  N55      1.0000 0.51820  0.65759  0.03478  Biso   1.000  N
  N56      1.0000 0.48180  0.15759  0.46522  Biso   1.000  N
  N57      1.0000 0.83044  0.64457  0.16498  Biso   1.000  N
  N58      1.0000 0.16956  0.14457  0.33502  Biso   1.000  N
  N59      1.0000 0.16956  0.35543  0.83502  Biso   1.000  N
  N60      1.0000 0.83044  0.85543  0.66498  Biso   1.000  N
  N61      1.0000 0.72125  0.68828  0.19162  Biso   1.000  N
  N62      1.0000 0.27875  0.18828  0.30838  Biso   1.000  N
  N63      1.0000 0.27875  0.31172  0.80838  Biso   1.000  N
  N64      1.0000 0.72125  0.81172  0.69162  Biso   1.000  N
  N65      1.0000 0.62060  0.72995  0.21623  Biso   1.000  N
  N66      1.0000 0.37940  0.22995  0.28377  Biso   1.000  N
  N67      1.0000 0.37940  0.27005  0.78377  Biso   1.000  N
  N68      1.0000 0.62060  0.77005  0.71623  Biso   1.000  N
  N69      1.0000 0.65074  0.45636  0.16827  Biso   1.000  N
  N70      1.0000 0.34926  0.95636  0.33173  Biso   1.000  N
  N71      1.0000 0.34926  0.54364  0.83173  Biso   1.000  N
  N72      1.0000 0.65074  0.04364  0.66827  Biso   1.000  N
  N73      1.0000 0.51450  0.43526  0.15091  Biso   1.000  N
  N74      1.0000 0.48550  0.93526  0.34909  Biso   1.000  N
  N75      1.0000 0.48550  0.56474  0.84909  Biso   1.000  N
  N76      1.0000 0.51450  0.06474  0.65091  Biso   1.000  N
  N77      1.0000 0.38259  0.41215  0.13715  Biso   1.000  N
  N78      1.0000 0.61741  0.91215  0.36285  Biso   1.000  N
  N79      1.0000 0.61741  0.58785  0.86285  Biso   1.000  N
  N80      1.0000 0.38259  0.08785  0.63715  Biso   1.000  N
  O1       1.0000 0.55416  0.55576  0.37938  Biso   1.000  O
  O2       1.0000 0.44584  0.05576  0.12062  Biso   1.000  O
  O3       1.0000 0.44584  0.44424  0.62062  Biso   1.000  O
  O4       1.0000 0.55416  0.94424  0.87938  Biso   1.000  O
  C1       1.0000 0.13510  0.57060  0.40732  Biso   1.000  C
  C2       1.0000 0.86490  0.07060  0.09268  Biso   1.000  C
  C3       1.0000 0.86490  0.42940  0.59268  Biso   1.000  C
  C4       1.0000 0.13510  0.92940  0.90732  Biso   1.000  C
  H9       1.0000 0.10720  0.63780  0.42650  Biso   1.000  H
  H10      1.0000 0.89280  0.13780  0.07350  Biso   1.000  H
  H11      1.0000 0.89280  0.36220  0.57350  Biso   1.000  H
  H12      1.0000 0.10720  0.86220  0.92650  Biso   1.000  H
  H13      1.0000 0.20760  0.53790  0.44900  Biso   1.000  H
  H14      1.0000 0.79240  0.03790  0.05100  Biso   1.000  H
  H15      1.0000 0.79240  0.46210  0.55100  Biso   1.000  H
  H16      1.0000 0.20760  0.96210  0.94900  Biso   1.000  H
  C5       1.0000 0.98760  0.50580  0.38905  Biso   1.000  C
  C6       1.0000 0.01240  0.00580  0.11095  Biso   1.000  C
  C7       1.0000 0.01240  0.49420  0.61095  Biso   1.000  C
  C8       1.0000 0.98760  0.99420  0.88905  Biso   1.000  C
  H17      1.0000 0.01630  0.43550  0.37760  Biso   1.000  H
  H18      1.0000 0.98370  0.93550  0.12240  Biso   1.000  H
  H19      1.0000 0.98370  0.56450  0.62240  Biso   1.000  H
  H20      1.0000 0.01630  0.06450  0.87760  Biso   1.000  H
  H21      1.0000 0.92940  0.50490  0.43480  Biso   1.000  H
  H22      1.0000 0.07060  0.00490  0.06520  Biso   1.000  H
  H23      1.0000 0.07060  0.49510  0.56520  Biso   1.000  H
  H24      1.0000 0.92940  0.99510  0.93480  Biso   1.000  H
  C9       1.0000 0.30160  0.48890  0.31539  Biso   1.000  C
  C10      1.0000 0.69840  0.98890  0.18461  Biso   1.000  C
  C11      1.0000 0.69840  0.51110  0.68461  Biso   1.000  C
  C12      1.0000 0.30160  0.01110  0.81539  Biso   1.000  C
  H25      1.0000 0.33140  0.49580  0.26200  Biso   1.000  H
  H26      1.0000 0.66860  0.99580  0.23800  Biso   1.000  H
  H27      1.0000 0.66860  0.50420  0.73800  Biso   1.000  H
  H28      1.0000 0.33140  0.00420  0.76200  Biso   1.000  H
  H29      1.0000 0.23220  0.42960  0.31530  Biso   1.000  H
  H30      1.0000 0.76780  0.92960  0.18470  Biso   1.000  H
  H31      1.0000 0.76780  0.57040  0.68470  Biso   1.000  H
  H32      1.0000 0.23220  0.07040  0.81530  Biso   1.000  H
  C13      1.0000 0.45020  0.46994  0.37433  Biso   1.000  C
  C14      1.0000 0.54980  0.96994  0.12567  Biso   1.000  C
  C15      1.0000 0.54980  0.53006  0.62567  Biso   1.000  C
  C16      1.0000 0.45020  0.03006  0.87433  Biso   1.000  C
  H33      1.0000 0.42000  0.45590  0.42680  Biso   1.000  H
  H34      1.0000 0.58000  0.95590  0.07320  Biso   1.000  H
  H35      1.0000 0.58000  0.54410  0.57320  Biso   1.000  H
  H36      1.0000 0.42000  0.04410  0.92680  Biso   1.000  H
  H37      1.0000 0.50500  0.40980  0.35760  Biso   1.000  H
  H38      1.0000 0.49500  0.90980  0.14240  Biso   1.000  H
  H39      1.0000 0.49500  0.59020  0.64240  Biso   1.000  H
  H40      1.0000 0.50500  0.09020  0.85760  Biso   1.000  H
  C17      1.0000 0.47640  0.64482  0.40184  Biso   1.000  C
  C18      1.0000 0.52360  0.14482  0.09816  Biso   1.000  C
  C19      1.0000 0.52360  0.35518  0.59816  Biso   1.000  C
  C20      1.0000 0.47640  0.85518  0.90184  Biso   1.000  C
  H41      1.0000 0.54890  0.70280  0.40440  Biso   1.000  H
  H42      1.0000 0.45110  0.20280  0.09560  Biso   1.000  H
  H43      1.0000 0.45110  0.29720  0.59560  Biso   1.000  H
  H44      1.0000 0.54890  0.79720  0.90440  Biso   1.000  H
  H45      1.0000 0.44570  0.63490  0.45470  Biso   1.000  H
  H46      1.0000 0.55430  0.13490  0.04530  Biso   1.000  H
  H47      1.0000 0.55430  0.36510  0.54530  Biso   1.000  H
  H48      1.0000 0.44570  0.86510  0.95470  Biso   1.000  H
  C21      1.0000 0.33020  0.66904  0.34317  Biso   1.000  C
  C22      1.0000 0.66980  0.16904  0.15683  Biso   1.000  C
  C23      1.0000 0.66980  0.33096  0.65683  Biso   1.000  C
  C24      1.0000 0.33020  0.83096  0.84317  Biso   1.000  C
  H49      1.0000 0.27940  0.73010  0.36120  Biso   1.000  H
  H50      1.0000 0.72060  0.23010  0.13880  Biso   1.000  H
  H51      1.0000 0.72060  0.26990  0.63880  Biso   1.000  H
  H52      1.0000 0.27940  0.76990  0.86120  Biso   1.000  H
  H53      1.0000 0.36240  0.68420  0.29130  Biso   1.000  H
  H54      1.0000 0.63760  0.18420  0.20870  Biso   1.000  H
  H55      1.0000 0.63760  0.31580  0.70870  Biso   1.000  H
  H56      1.0000 0.36240  0.81580  0.79130  Biso   1.000  H
