data_image0
_cell_length_a       12.526
_cell_length_b       20.654
_cell_length_c       6.9239
_cell_angle_alpha    90
_cell_angle_beta     102.71
_cell_angle_gamma    90

_symmetry_space_group_name_H-M    "P 1"
_symmetry_int_tables_number       1

loop_
  _symmetry_equiv_pos_as_xyz
  'x, y, z'

loop_
  _atom_site_label
  _atom_site_occupancy
  _atom_site_fract_x
  _atom_site_fract_y
  _atom_site_fract_z
  _atom_site_thermal_displace_type
  _atom_site_B_iso_or_equiv
  _atom_site_type_symbol
  Cu1      1.0000 0.75352  0.14822  0.68691  Biso   1.000  Cu
  Cu2      1.0000 0.24648  0.64822  0.81309  Biso   1.000  Cu
  Cu3      1.0000 0.24648  0.85178  0.31309  Biso   1.000  Cu
  Cu4      1.0000 0.75352  0.35178  0.18691  Biso   1.000  Cu
  Cu5      1.0000 0.77017  0.29704  0.71594  Biso   1.000  Cu
  Cu6      1.0000 0.22983  0.79704  0.78406  Biso   1.000  Cu
  Cu7      1.0000 0.22983  0.70296  0.28406  Biso   1.000  Cu
  Cu8      1.0000 0.77017  0.20296  0.21594  Biso   1.000  Cu
  Cu9      1.0000 0.76498  0.00273  0.78244  Biso   1.000  Cu
  Cu10     1.0000 0.23502  0.50272  0.71756  Biso   1.000  Cu
  Cu11     1.0000 0.23502  0.99728  0.21756  Biso   1.000  Cu
  Cu12     1.0000 0.76498  0.49728  0.28244  Biso   1.000  Cu
  C1       1.0000 0.60920  0.90019  0.72560  Biso   1.000  C
  C2       1.0000 0.39080  0.40019  0.77440  Biso   1.000  C
  C3       1.0000 0.39080  0.09981  0.27440  Biso   1.000  C
  C4       1.0000 0.60920  0.59981  0.22560  Biso   1.000  C
  H1       1.0000 0.56950  0.93060  0.62940  Biso   1.000  H
  H2       1.0000 0.43050  0.43060  0.87060  Biso   1.000  H
  H3       1.0000 0.43050  0.06940  0.37060  Biso   1.000  H
  H4       1.0000 0.56950  0.56940  0.12940  Biso   1.000  H
  H5       1.0000 0.55610  0.87470  0.77570  Biso   1.000  H
  H6       1.0000 0.44390  0.37470  0.72430  Biso   1.000  H
  H7       1.0000 0.44390  0.12530  0.22430  Biso   1.000  H
  H8       1.0000 0.55610  0.62530  0.27570  Biso   1.000  H
  C5       1.0000 0.67690  0.85565  0.62520  Biso   1.000  C
  C6       1.0000 0.32310  0.35565  0.87480  Biso   1.000  C
  C7       1.0000 0.32310  0.14435  0.37480  Biso   1.000  C
  C8       1.0000 0.67690  0.64435  0.12520  Biso   1.000  C
  H9       1.0000 0.70140  0.81930  0.71250  Biso   1.000  H
  H10      1.0000 0.29860  0.31930  0.78750  Biso   1.000  H
  H11      1.0000 0.29860  0.18070  0.28750  Biso   1.000  H
  H12      1.0000 0.70140  0.68070  0.21250  Biso   1.000  H
  H13      1.0000 0.63000  0.83860  0.50560  Biso   1.000  H
  H14      1.0000 0.37000  0.33860  0.99440  Biso   1.000  H
  H15      1.0000 0.37000  0.16140  0.49440  Biso   1.000  H
  H16      1.0000 0.63000  0.66140  0.00560  Biso   1.000  H
  C9       1.0000 0.77510  0.88622  0.57130  Biso   1.000  C
  C10      1.0000 0.22490  0.38622  0.92870  Biso   1.000  C
  C11      1.0000 0.22490  0.11378  0.42870  Biso   1.000  C
  C12      1.0000 0.77510  0.61378  0.07130  Biso   1.000  C
  H17      1.0000 0.81920  0.85280  0.52870  Biso   1.000  H
  H18      1.0000 0.18080  0.35280  0.97130  Biso   1.000  H
  H19      1.0000 0.18080  0.14720  0.47130  Biso   1.000  H
  H20      1.0000 0.81920  0.64720  0.02870  Biso   1.000  H
  H21      1.0000 0.75100  0.91560  0.46110  Biso   1.000  H
  H22      1.0000 0.24900  0.41560  0.03890  Biso   1.000  H
  H23      1.0000 0.24900  0.08440  0.53890  Biso   1.000  H
  H24      1.0000 0.75100  0.58440  0.96110  Biso   1.000  H
  C13      1.0000 0.86110  0.88612  0.92840  Biso   1.000  C
  C14      1.0000 0.13890  0.38612  0.57160  Biso   1.000  C
  C15      1.0000 0.13890  0.11388  0.07160  Biso   1.000  C
  C16      1.0000 0.86110  0.61388  0.42840  Biso   1.000  C
  H25      1.0000 0.92620  0.90210  0.01870  Biso   1.000  H
  H26      1.0000 0.07380  0.40210  0.48130  Biso   1.000  H
  H27      1.0000 0.07380  0.09790  0.98130  Biso   1.000  H
  H28      1.0000 0.92620  0.59790  0.51870  Biso   1.000  H
  H29      1.0000 0.87160  0.84050  0.90470  Biso   1.000  H
  H30      1.0000 0.12840  0.34050  0.59530  Biso   1.000  H
  H31      1.0000 0.12840  0.15950  0.09530  Biso   1.000  H
  H32      1.0000 0.87160  0.65950  0.40470  Biso   1.000  H
  C17      1.0000 0.76120  0.89497  0.02030  Biso   1.000  C
  C18      1.0000 0.23880  0.39497  0.47970  Biso   1.000  C
  C19      1.0000 0.23880  0.10503  0.97970  Biso   1.000  C
  C20      1.0000 0.76120  0.60503  0.52030  Biso   1.000  C
  H33      1.0000 0.72930  0.85310  0.03670  Biso   1.000  H
  H34      1.0000 0.27070  0.35310  0.46330  Biso   1.000  H
  H35      1.0000 0.27070  0.14690  0.96330  Biso   1.000  H
  H36      1.0000 0.72930  0.64690  0.53670  Biso   1.000  H
  H37      1.0000 0.78360  0.91490  0.14980  Biso   1.000  H
  H38      1.0000 0.21640  0.41490  0.35020  Biso   1.000  H
  H39      1.0000 0.21640  0.08510  0.85020  Biso   1.000  H
  H40      1.0000 0.78360  0.58510  0.64980  Biso   1.000  H
  N1       1.0000 0.67910  0.93627  0.89110  Biso   1.000  N
  N2       1.0000 0.32090  0.43627  0.60890  Biso   1.000  N
  N3       1.0000 0.32090  0.06373  0.10890  Biso   1.000  N
  N4       1.0000 0.67910  0.56373  0.39110  Biso   1.000  N
  H41      1.0000 0.63640  0.95590  0.96440  Biso   1.000  H
  H42      1.0000 0.36360  0.45590  0.53560  Biso   1.000  H
  H43      1.0000 0.36360  0.04410  0.03560  Biso   1.000  H
  H44      1.0000 0.63640  0.54410  0.46440  Biso   1.000  H
  N5       1.0000 0.84340  0.92227  0.73930  Biso   1.000  N
  N6       1.0000 0.15660  0.42227  0.76070  Biso   1.000  N
  N7       1.0000 0.15660  0.07773  0.26070  Biso   1.000  N
  N8       1.0000 0.84340  0.57773  0.23930  Biso   1.000  N
  H45      1.0000 0.90900  0.93240  0.71110  Biso   1.000  H
  H46      1.0000 0.09100  0.43240  0.78890  Biso   1.000  H
  H47      1.0000 0.09100  0.06760  0.28890  Biso   1.000  H
  H48      1.0000 0.90900  0.56760  0.21110  Biso   1.000  H
  N9       1.0000 0.66210  0.07754  0.76010  Biso   1.000  N
  N10      1.0000 0.33790  0.57754  0.73990  Biso   1.000  N
  N11      1.0000 0.33790  0.92246  0.23990  Biso   1.000  N
  N12      1.0000 0.66210  0.42246  0.26010  Biso   1.000  N
  N13      1.0000 0.57490  0.08310  0.80690  Biso   1.000  N
  N14      1.0000 0.42510  0.58310  0.69310  Biso   1.000  N
  N15      1.0000 0.42510  0.91690  0.19310  Biso   1.000  N
  N16      1.0000 0.57490  0.41690  0.30690  Biso   1.000  N
  N17      1.0000 0.49390  0.08820  0.85040  Biso   1.000  N
  N18      1.0000 0.50610  0.58820  0.64960  Biso   1.000  N
  N19      1.0000 0.50610  0.91180  0.14960  Biso   1.000  N
  N20      1.0000 0.49390  0.41180  0.35040  Biso   1.000  N
  N21      1.0000 0.84700  0.07092  0.67010  Biso   1.000  N
  N22      1.0000 0.15300  0.57092  0.82990  Biso   1.000  N
  N23      1.0000 0.15300  0.92908  0.32990  Biso   1.000  N
  N24      1.0000 0.84700  0.42908  0.17010  Biso   1.000  N
  N25      1.0000 0.93120  0.07046  0.61420  Biso   1.000  N
  N26      1.0000 0.06880  0.57046  0.88580  Biso   1.000  N
  N27      1.0000 0.06880  0.92954  0.38580  Biso   1.000  N
  N28      1.0000 0.93120  0.42954  0.11420  Biso   1.000  N
  N29      1.0000 0.01150  0.07101  0.56350  Biso   1.000  N
  N30      1.0000 0.98850  0.57101  0.93650  Biso   1.000  N
  N31      1.0000 0.98850  0.92899  0.43650  Biso   1.000  N
  N32      1.0000 0.01150  0.42899  0.06350  Biso   1.000  N
  N33      1.0000 0.67170  0.22409  0.74690  Biso   1.000  N
  N34      1.0000 0.32830  0.72409  0.75310  Biso   1.000  N
  N35      1.0000 0.32830  0.77591  0.25310  Biso   1.000  N
  N36      1.0000 0.67170  0.27591  0.24690  Biso   1.000  N
  N37      1.0000 0.57710  0.23128  0.76370  Biso   1.000  N
  N38      1.0000 0.42290  0.73128  0.73630  Biso   1.000  N
  N39      1.0000 0.42290  0.76872  0.23630  Biso   1.000  N
  N40      1.0000 0.57710  0.26872  0.26370  Biso   1.000  N
  N41      1.0000 0.49110  0.23882  0.78340  Biso   1.000  N
  N42      1.0000 0.50890  0.73882  0.71660  Biso   1.000  N
  N43      1.0000 0.50890  0.76118  0.21660  Biso   1.000  N
  N44      1.0000 0.49110  0.26118  0.28340  Biso   1.000  N
  N45      1.0000 0.85400  0.21936  0.64530  Biso   1.000  N
  N46      1.0000 0.14600  0.71936  0.85470  Biso   1.000  N
  N47      1.0000 0.14600  0.78064  0.35470  Biso   1.000  N
  N48      1.0000 0.85400  0.28064  0.14530  Biso   1.000  N
  N49      1.0000 0.95270  0.22012  0.66990  Biso   1.000  N
  N50      1.0000 0.04730  0.72012  0.83010  Biso   1.000  N
  N51      1.0000 0.04730  0.77988  0.33010  Biso   1.000  N
  N52      1.0000 0.95270  0.27988  0.16990  Biso   1.000  N
  N53      1.0000 0.04450  0.22201  0.68820  Biso   1.000  N
  N54      1.0000 0.95550  0.72201  0.81180  Biso   1.000  N
  N55      1.0000 0.95550  0.77799  0.31180  Biso   1.000  N
  N56      1.0000 0.04450  0.27799  0.18820  Biso   1.000  N
  N57      1.0000 0.87320  0.35437  0.63230  Biso   1.000  N
  N58      1.0000 0.12680  0.85437  0.86770  Biso   1.000  N
  N59      1.0000 0.12680  0.64563  0.36770  Biso   1.000  N
  N60      1.0000 0.87320  0.14563  0.13230  Biso   1.000  N
  N61      1.0000 0.87420  0.41145  0.62360  Biso   1.000  N
  N62      1.0000 0.12580  0.91145  0.87640  Biso   1.000  N
  N63      1.0000 0.12580  0.58855  0.37640  Biso   1.000  N
  N64      1.0000 0.87420  0.08855  0.12360  Biso   1.000  N
  N65      1.0000 0.88070  0.46678  0.60720  Biso   1.000  N
  N66      1.0000 0.11930  0.96678  0.89280  Biso   1.000  N
  N67      1.0000 0.11930  0.53322  0.39280  Biso   1.000  N
  N68      1.0000 0.88070  0.03322  0.10720  Biso   1.000  N
  N69      1.0000 0.68050  0.14125  0.32300  Biso   1.000  N
  N70      1.0000 0.31950  0.64125  0.17700  Biso   1.000  N
  N71      1.0000 0.31950  0.85875  0.67700  Biso   1.000  N
  N72      1.0000 0.68050  0.35875  0.82300  Biso   1.000  N
  N73      1.0000 0.66840  0.08445  0.28360  Biso   1.000  N
  N74      1.0000 0.33160  0.58445  0.21640  Biso   1.000  N
  N75      1.0000 0.33160  0.91555  0.71640  Biso   1.000  N
  N76      1.0000 0.66840  0.41555  0.78360  Biso   1.000  N
  N77      1.0000 0.65320  0.03057  0.25690  Biso   1.000  N
  N78      1.0000 0.34680  0.53057  0.24310  Biso   1.000  N
  N79      1.0000 0.34680  0.96943  0.74310  Biso   1.000  N
  N80      1.0000 0.65320  0.46943  0.75690  Biso   1.000  N
