data_image0
_cell_length_a       7.5322
_cell_length_b       12.251
_cell_length_c       17.096
_cell_angle_alpha    90
_cell_angle_beta     90
_cell_angle_gamma    90

_symmetry_space_group_name_H-M    "P 1"
_symmetry_int_tables_number       1

loop_
  _symmetry_equiv_pos_as_xyz
  'x, y, z'

loop_
  _atom_site_label
  _atom_site_occupancy
  _atom_site_fract_x
  _atom_site_fract_y
  _atom_site_fract_z
  _atom_site_thermal_displace_type
  _atom_site_B_iso_or_equiv
  _atom_site_type_symbol
  Cu1      1.0000 0.24274  0.37347  0.43957  Biso   1.000  Cu
  Cu2      1.0000 0.25726  0.62653  0.93957  Biso   1.000  Cu
  Cu3      1.0000 0.75726  0.87347  0.06043  Biso   1.000  Cu
  Cu4      1.0000 0.74274  0.12653  0.56043  Biso   1.000  Cu
  Cu5      1.0000 0.75726  0.62653  0.56043  Biso   1.000  Cu
  Cu6      1.0000 0.74274  0.37347  0.06043  Biso   1.000  Cu
  Cu7      1.0000 0.24274  0.12653  0.93957  Biso   1.000  Cu
  Cu8      1.0000 0.25726  0.87347  0.43957  Biso   1.000  Cu
  P1       1.0000 0.14872  0.61832  0.44451  Biso   1.000  P
  P2       1.0000 0.35128  0.38168  0.94451  Biso   1.000  P
  P3       1.0000 0.85128  0.11832  0.05549  Biso   1.000  P
  P4       1.0000 0.64872  0.88168  0.55549  Biso   1.000  P
  P5       1.0000 0.85128  0.38168  0.55549  Biso   1.000  P
  P6       1.0000 0.64872  0.61832  0.05549  Biso   1.000  P
  P7       1.0000 0.14872  0.88168  0.94451  Biso   1.000  P
  P8       1.0000 0.35128  0.11832  0.44451  Biso   1.000  P
  O1       1.0000 0.28580  0.52810  0.45912  Biso   1.000  O
  O2       1.0000 0.21420  0.47190  0.95912  Biso   1.000  O
  O3       1.0000 0.71420  0.02810  0.04088  Biso   1.000  O
  O4       1.0000 0.78580  0.97190  0.54088  Biso   1.000  O
  O5       1.0000 0.71420  0.47190  0.54088  Biso   1.000  O
  O6       1.0000 0.78580  0.52810  0.04088  Biso   1.000  O
  O7       1.0000 0.28580  0.97190  0.95912  Biso   1.000  O
  O8       1.0000 0.21420  0.02810  0.45912  Biso   1.000  O
  O9       1.0000 0.03470  0.64290  0.51534  Biso   1.000  O
  O10      1.0000 0.46530  0.35710  0.01534  Biso   1.000  O
  O11      1.0000 0.96530  0.14290  0.98466  Biso   1.000  O
  O12      1.0000 0.53470  0.85710  0.48466  Biso   1.000  O
  O13      1.0000 0.96530  0.35710  0.48466  Biso   1.000  O
  O14      1.0000 0.53470  0.64290  0.98466  Biso   1.000  O
  O15      1.0000 0.03470  0.85710  0.01534  Biso   1.000  O
  O16      1.0000 0.46530  0.14290  0.51534  Biso   1.000  O
  O17      1.0000 0.24380  0.71900  0.41415  Biso   1.000  O
  O18      1.0000 0.25620  0.28100  0.91415  Biso   1.000  O
  O19      1.0000 0.75620  0.21900  0.08585  Biso   1.000  O
  O20      1.0000 0.74380  0.78100  0.58585  Biso   1.000  O
  O21      1.0000 0.75620  0.28100  0.58585  Biso   1.000  O
  O22      1.0000 0.74380  0.71900  0.08585  Biso   1.000  O
  O23      1.0000 0.24380  0.78100  0.91415  Biso   1.000  O
  O24      1.0000 0.25620  0.21900  0.41415  Biso   1.000  O
  O25      1.0000 0.38920  0.34940  0.53479  Biso   1.000  O
  O26      1.0000 0.11080  0.65060  0.03479  Biso   1.000  O
  O27      1.0000 0.61080  0.84940  0.96521  Biso   1.000  O
  O28      1.0000 0.88920  0.15060  0.46521  Biso   1.000  O
  O29      1.0000 0.61080  0.65060  0.46521  Biso   1.000  O
  O30      1.0000 0.88920  0.34940  0.96521  Biso   1.000  O
  O31      1.0000 0.38920  0.15060  0.03479  Biso   1.000  O
  O32      1.0000 0.11080  0.84940  0.53479  Biso   1.000  O
  H1       1.0000 0.40940  0.27740  0.54040  Biso   1.000  H
  H2       1.0000 0.09060  0.72260  0.04040  Biso   1.000  H
  H3       1.0000 0.59060  0.77740  0.95960  Biso   1.000  H
  H4       1.0000 0.90940  0.22260  0.45960  Biso   1.000  H
  H5       1.0000 0.59060  0.72260  0.45960  Biso   1.000  H
  H6       1.0000 0.90940  0.27740  0.95960  Biso   1.000  H
  H7       1.0000 0.40940  0.22260  0.04040  Biso   1.000  H
  H8       1.0000 0.09060  0.77740  0.54040  Biso   1.000  H
  H9       1.0000 0.48280  0.39470  0.53890  Biso   1.000  H
  H10      1.0000 0.01720  0.60530  0.03890  Biso   1.000  H
  H11      1.0000 0.51720  0.89470  0.96110  Biso   1.000  H
  H12      1.0000 0.98280  0.10530  0.46110  Biso   1.000  H
  H13      1.0000 0.51720  0.60530  0.46110  Biso   1.000  H
  H14      1.0000 0.98280  0.39470  0.96110  Biso   1.000  H
  H15      1.0000 0.48280  0.10530  0.03890  Biso   1.000  H
  H16      1.0000 0.01720  0.89470  0.53890  Biso   1.000  H
  N1       1.0000 0.16640  0.40490  0.32723  Biso   1.000  N
  N2       1.0000 0.33360  0.59510  0.82723  Biso   1.000  N
  N3       1.0000 0.83360  0.90490  0.17277  Biso   1.000  N
  N4       1.0000 0.66640  0.09510  0.67277  Biso   1.000  N
  N5       1.0000 0.83360  0.59510  0.67277  Biso   1.000  N
  N6       1.0000 0.66640  0.40490  0.17277  Biso   1.000  N
  N7       1.0000 0.16640  0.09510  0.82723  Biso   1.000  N
  N8       1.0000 0.33360  0.90490  0.32723  Biso   1.000  N
  C1       1.0000 0.22370  0.33790  0.27080  Biso   1.000  C
  C2       1.0000 0.27630  0.66210  0.77080  Biso   1.000  C
  C3       1.0000 0.77630  0.83790  0.22920  Biso   1.000  C
  C4       1.0000 0.72370  0.16210  0.72920  Biso   1.000  C
  C5       1.0000 0.77630  0.66210  0.72920  Biso   1.000  C
  C6       1.0000 0.72370  0.33790  0.22920  Biso   1.000  C
  C7       1.0000 0.22370  0.16210  0.77080  Biso   1.000  C
  C8       1.0000 0.27630  0.83790  0.27080  Biso   1.000  C
  H17      1.0000 0.28120  0.27390  0.28540  Biso   1.000  H
  H18      1.0000 0.21880  0.72610  0.78540  Biso   1.000  H
  H19      1.0000 0.71880  0.77390  0.21460  Biso   1.000  H
  H20      1.0000 0.78120  0.22610  0.71460  Biso   1.000  H
  H21      1.0000 0.71880  0.72610  0.71460  Biso   1.000  H
  H22      1.0000 0.78120  0.27390  0.21460  Biso   1.000  H
  H23      1.0000 0.28120  0.22610  0.78540  Biso   1.000  H
  H24      1.0000 0.21880  0.77390  0.28540  Biso   1.000  H
  C9       1.0000 0.20180  0.35890  0.19180  Biso   1.000  C
  C10      1.0000 0.29820  0.64110  0.69180  Biso   1.000  C
  C11      1.0000 0.79820  0.85890  0.30820  Biso   1.000  C
  C12      1.0000 0.70180  0.14110  0.80820  Biso   1.000  C
  C13      1.0000 0.79820  0.64110  0.80820  Biso   1.000  C
  C14      1.0000 0.70180  0.35890  0.30820  Biso   1.000  C
  C15      1.0000 0.20180  0.14110  0.69180  Biso   1.000  C
  C16      1.0000 0.29820  0.85890  0.19180  Biso   1.000  C
  H25      1.0000 0.24310  0.31010  0.15430  Biso   1.000  H
  H26      1.0000 0.25690  0.68990  0.65430  Biso   1.000  H
  H27      1.0000 0.75690  0.81010  0.34570  Biso   1.000  H
  H28      1.0000 0.74310  0.18990  0.84570  Biso   1.000  H
  H29      1.0000 0.75690  0.68990  0.84570  Biso   1.000  H
  H30      1.0000 0.74310  0.31010  0.34570  Biso   1.000  H
  H31      1.0000 0.24310  0.18990  0.65430  Biso   1.000  H
  H32      1.0000 0.25690  0.81010  0.15430  Biso   1.000  H
  C17      1.0000 0.11780  0.45310  0.17040  Biso   1.000  C
  C18      1.0000 0.38220  0.54690  0.67040  Biso   1.000  C
  C19      1.0000 0.88220  0.95310  0.32960  Biso   1.000  C
  C20      1.0000 0.61780  0.04690  0.82960  Biso   1.000  C
  C21      1.0000 0.88220  0.54690  0.82960  Biso   1.000  C
  C22      1.0000 0.61780  0.45310  0.32960  Biso   1.000  C
  C23      1.0000 0.11780  0.04690  0.67040  Biso   1.000  C
  C24      1.0000 0.38220  0.95310  0.17040  Biso   1.000  C
  H33      1.0000 0.10210  0.46970  0.11780  Biso   1.000  H
  H34      1.0000 0.39790  0.53030  0.61780  Biso   1.000  H
  H35      1.0000 0.89790  0.96970  0.38220  Biso   1.000  H
  H36      1.0000 0.60210  0.03030  0.88220  Biso   1.000  H
  H37      1.0000 0.89790  0.53030  0.88220  Biso   1.000  H
  H38      1.0000 0.60210  0.46970  0.38220  Biso   1.000  H
  H39      1.0000 0.10210  0.03030  0.61780  Biso   1.000  H
  H40      1.0000 0.39790  0.96970  0.11780  Biso   1.000  H
  C25      1.0000 0.05620  0.52380  0.22750  Biso   1.000  C
  C26      1.0000 0.44380  0.47620  0.72750  Biso   1.000  C
  C27      1.0000 0.94380  0.02380  0.27250  Biso   1.000  C
  C28      1.0000 0.55620  0.97620  0.77250  Biso   1.000  C
  C29      1.0000 0.94380  0.47620  0.77250  Biso   1.000  C
  C30      1.0000 0.55620  0.52380  0.27250  Biso   1.000  C
  C31      1.0000 0.05620  0.97620  0.72750  Biso   1.000  C
  C32      1.0000 0.44380  0.02380  0.22750  Biso   1.000  C
  H41      1.0000 0.99940  0.58830  0.21350  Biso   1.000  H
  H42      1.0000 0.50060  0.41170  0.71350  Biso   1.000  H
  H43      1.0000 0.00060  0.08830  0.28650  Biso   1.000  H
  H44      1.0000 0.49940  0.91170  0.78650  Biso   1.000  H
  H45      1.0000 0.00060  0.41170  0.78650  Biso   1.000  H
  H46      1.0000 0.49940  0.58830  0.28650  Biso   1.000  H
  H47      1.0000 0.99940  0.91170  0.71350  Biso   1.000  H
  H48      1.0000 0.50060  0.08830  0.21350  Biso   1.000  H
  C33      1.0000 0.08010  0.49740  0.30640  Biso   1.000  C
  C34      1.0000 0.41990  0.50260  0.80640  Biso   1.000  C
  C35      1.0000 0.91990  0.99740  0.19360  Biso   1.000  C
  C36      1.0000 0.58010  0.00260  0.69360  Biso   1.000  C
  C37      1.0000 0.91990  0.50260  0.69360  Biso   1.000  C
  C38      1.0000 0.58010  0.49740  0.19360  Biso   1.000  C
  C39      1.0000 0.08010  0.00260  0.80640  Biso   1.000  C
  C40      1.0000 0.41990  0.99740  0.30640  Biso   1.000  C
  C41      1.0000 0.00220  0.56580  0.37030  Biso   1.000  C
  C42      1.0000 0.49780  0.43420  0.87030  Biso   1.000  C
  C43      1.0000 0.99780  0.06580  0.12970  Biso   1.000  C
  C44      1.0000 0.50220  0.93420  0.62970  Biso   1.000  C
  C45      1.0000 0.99780  0.43420  0.62970  Biso   1.000  C
  C46      1.0000 0.50220  0.56580  0.12970  Biso   1.000  C
  C47      1.0000 0.00220  0.93420  0.87030  Biso   1.000  C
  C48      1.0000 0.49780  0.06580  0.37030  Biso   1.000  C
  H49      1.0000 0.91140  0.52280  0.39610  Biso   1.000  H
  H50      1.0000 0.58860  0.47720  0.89610  Biso   1.000  H
  H51      1.0000 0.08860  0.02280  0.10390  Biso   1.000  H
  H52      1.0000 0.41140  0.97720  0.60390  Biso   1.000  H
  H53      1.0000 0.08860  0.47720  0.60390  Biso   1.000  H
  H54      1.0000 0.41140  0.52280  0.10390  Biso   1.000  H
  H55      1.0000 0.91140  0.97720  0.89610  Biso   1.000  H
  H56      1.0000 0.58860  0.02280  0.39610  Biso   1.000  H
  H57      1.0000 0.94310  0.62750  0.34600  Biso   1.000  H
  H58      1.0000 0.55690  0.37250  0.84600  Biso   1.000  H
  H59      1.0000 0.05690  0.12750  0.15400  Biso   1.000  H
  H60      1.0000 0.44310  0.87250  0.65400  Biso   1.000  H
  H61      1.0000 0.05690  0.37250  0.65400  Biso   1.000  H
  H62      1.0000 0.44310  0.62750  0.15400  Biso   1.000  H
  H63      1.0000 0.94310  0.87250  0.84600  Biso   1.000  H
  H64      1.0000 0.55690  0.12750  0.34600  Biso   1.000  H
