data_image0
_cell_length_a       17.412
_cell_length_b       15.772
_cell_length_c       5.077
_cell_angle_alpha    90
_cell_angle_beta     90
_cell_angle_gamma    90

_symmetry_space_group_name_H-M    "P 1"
_symmetry_int_tables_number       1

loop_
  _symmetry_equiv_pos_as_xyz
  'x, y, z'

loop_
  _atom_site_label
  _atom_site_occupancy
  _atom_site_fract_x
  _atom_site_fract_y
  _atom_site_fract_z
  _atom_site_thermal_displace_type
  _atom_site_B_iso_or_equiv
  _atom_site_type_symbol
  Cu1      1.0000 0.19120  0.42890  0.66000  Biso   1.000  Cu
  Cu2      1.0000 0.69120  0.07110  0.34000  Biso   1.000  Cu
  Cu3      1.0000 0.80880  0.92890  0.84000  Biso   1.000  Cu
  Cu4      1.0000 0.30880  0.57110  0.16000  Biso   1.000  Cu
  P1       1.0000 0.13530  0.51540  0.10900  Biso   1.000  P
  P2       1.0000 0.63530  0.98460  0.89100  Biso   1.000  P
  P3       1.0000 0.86470  0.01540  0.39100  Biso   1.000  P
  P4       1.0000 0.36470  0.48460  0.60900  Biso   1.000  P
  O1       1.0000 0.10870  0.44620  0.92300  Biso   1.000  O
  O2       1.0000 0.60870  0.05380  0.07700  Biso   1.000  O
  O3       1.0000 0.89130  0.94620  0.57700  Biso   1.000  O
  O4       1.0000 0.39130  0.55380  0.42300  Biso   1.000  O
  O5       1.0000 0.13700  0.49500  0.39500  Biso   1.000  O
  O6       1.0000 0.63700  0.00500  0.60500  Biso   1.000  O
  O7       1.0000 0.86300  0.99500  0.10500  Biso   1.000  O
  O8       1.0000 0.36300  0.50500  0.89500  Biso   1.000  O
  O9       1.0000 0.20990  0.54850  0.99100  Biso   1.000  O
  O10      1.0000 0.70990  0.95150  0.00900  Biso   1.000  O
  O11      1.0000 0.79010  0.04850  0.50900  Biso   1.000  O
  O12      1.0000 0.29010  0.45150  0.49100  Biso   1.000  O
  O13      1.0000 0.07180  0.59140  0.10000  Biso   1.000  O
  O14      1.0000 0.57180  0.90860  0.90000  Biso   1.000  O
  O15      1.0000 0.92820  0.09140  0.40000  Biso   1.000  O
  O16      1.0000 0.42820  0.40860  0.60000  Biso   1.000  O
  O17      1.0000 0.12910  0.75050  0.91400  Biso   1.000  O
  O18      1.0000 0.62910  0.74950  0.08600  Biso   1.000  O
  O19      1.0000 0.87090  0.25050  0.58600  Biso   1.000  O
  O20      1.0000 0.37090  0.24950  0.41400  Biso   1.000  O
  O21      1.0000 0.04000  0.90300  0.74500  Biso   1.000  O
  O22      1.0000 0.54000  0.59700  0.25500  Biso   1.000  O
  O23      1.0000 0.96000  0.40300  0.75500  Biso   1.000  O
  O24      1.0000 0.46000  0.09700  0.24500  Biso   1.000  O
  O25      1.0000 0.94740  0.76680  0.59700  Biso   1.000  O
  O26      1.0000 0.44740  0.73320  0.40300  Biso   1.000  O
  O27      1.0000 0.05260  0.26680  0.90300  Biso   1.000  O
  O28      1.0000 0.55260  0.23320  0.09700  Biso   1.000  O
  O29      1.0000 0.37060  0.73150  0.86500  Biso   1.000  O
  O30      1.0000 0.87060  0.76850  0.13500  Biso   1.000  O
  O31      1.0000 0.62940  0.23150  0.63500  Biso   1.000  O
  O32      1.0000 0.12940  0.26850  0.36500  Biso   1.000  O
  N1       1.0000 0.27100  0.67900  0.32000  Biso   1.000  N
  N2       1.0000 0.77100  0.82100  0.68000  Biso   1.000  N
  N3       1.0000 0.72900  0.17900  0.18000  Biso   1.000  N
  N4       1.0000 0.22900  0.32100  0.82000  Biso   1.000  N
  N5       1.0000 0.20500  0.77200  0.54500  Biso   1.000  N
  N6       1.0000 0.70500  0.72800  0.45500  Biso   1.000  N
  N7       1.0000 0.79500  0.27200  0.95500  Biso   1.000  N
  N8       1.0000 0.29500  0.22800  0.04500  Biso   1.000  N
  N9       1.0000 0.33730  0.87000  0.96400  Biso   1.000  N
  N10      1.0000 0.83730  0.63000  0.03600  Biso   1.000  N
  N11      1.0000 0.66270  0.37000  0.53600  Biso   1.000  N
  N12      1.0000 0.16270  0.13000  0.46400  Biso   1.000  N
  N13      1.0000 0.25120  0.90170  0.31800  Biso   1.000  N
  N14      1.0000 0.75120  0.59830  0.68200  Biso   1.000  N
  N15      1.0000 0.74880  0.40170  0.18200  Biso   1.000  N
  N16      1.0000 0.24880  0.09830  0.81800  Biso   1.000  N
  C1       1.0000 0.14900  0.81200  0.73300  Biso   1.000  C
  C2       1.0000 0.64900  0.68800  0.26700  Biso   1.000  C
  C3       1.0000 0.85100  0.31200  0.76700  Biso   1.000  C
  C4       1.0000 0.35100  0.18800  0.23300  Biso   1.000  C
  C5       1.0000 0.07700  0.84000  0.57900  Biso   1.000  C
  C6       1.0000 0.57700  0.66000  0.42100  Biso   1.000  C
  C7       1.0000 0.92300  0.34000  0.92100  Biso   1.000  C
  C8       1.0000 0.42300  0.16000  0.07900  Biso   1.000  C
  C9       1.0000 0.05000  0.71800  0.87300  Biso   1.000  C
  C10      1.0000 0.55000  0.78200  0.12700  Biso   1.000  C
  C11      1.0000 0.95000  0.21800  0.62700  Biso   1.000  C
  C12      1.0000 0.45000  0.28200  0.37300  Biso   1.000  C
  C13      1.0000 0.02600  0.75500  0.59200  Biso   1.000  C
  C14      1.0000 0.52600  0.74500  0.40800  Biso   1.000  C
  C15      1.0000 0.97400  0.25500  0.90800  Biso   1.000  C
  C16      1.0000 0.47400  0.24500  0.09200  Biso   1.000  C
  C17      1.0000 0.04800  0.62600  0.84400  Biso   1.000  C
  C18      1.0000 0.54800  0.87400  0.15600  Biso   1.000  C
  C19      1.0000 0.95200  0.12600  0.65600  Biso   1.000  C
  C20      1.0000 0.45200  0.37400  0.34400  Biso   1.000  C
  C21      1.0000 0.29800  0.92300  0.12300  Biso   1.000  C
  C22      1.0000 0.79800  0.57700  0.87700  Biso   1.000  C
  C23      1.0000 0.70200  0.42300  0.37700  Biso   1.000  C
  C24      1.0000 0.20200  0.07700  0.62300  Biso   1.000  C
  C25      1.0000 0.24600  0.81500  0.36000  Biso   1.000  C
  C26      1.0000 0.74600  0.68500  0.64000  Biso   1.000  C
  C27      1.0000 0.75400  0.31500  0.14000  Biso   1.000  C
  C28      1.0000 0.25400  0.18500  0.86000  Biso   1.000  C
  C29      1.0000 0.28700  0.75600  0.21800  Biso   1.000  C
  C30      1.0000 0.78700  0.74400  0.78200  Biso   1.000  C
  C31      1.0000 0.71300  0.25600  0.28200  Biso   1.000  C
  C32      1.0000 0.21300  0.24400  0.71800  Biso   1.000  C
  C33      1.0000 0.33500  0.77900  0.00900  Biso   1.000  C
  C34      1.0000 0.83500  0.72100  0.99100  Biso   1.000  C
  C35      1.0000 0.66500  0.27900  0.49100  Biso   1.000  C
  C36      1.0000 0.16500  0.22100  0.50900  Biso   1.000  C
  C37      1.0000 0.22100  0.68600  0.51300  Biso   1.000  C
  C38      1.0000 0.72100  0.81400  0.48700  Biso   1.000  C
  C39      1.0000 0.77900  0.18600  0.98700  Biso   1.000  C
  C40      1.0000 0.27900  0.31400  0.01300  Biso   1.000  C
  O33      1.0000 0.06770  0.03350  0.12900  Biso   1.000  O
  O34      1.0000 0.56770  0.46650  0.87100  Biso   1.000  O
  O35      1.0000 0.93230  0.53350  0.37100  Biso   1.000  O
  O36      1.0000 0.43230  0.96650  0.62900  Biso   1.000  O
