data_image0
_cell_length_a       13.638
_cell_length_b       23.6172
_cell_length_c       7.2459
_cell_angle_alpha    90
_cell_angle_beta     96.1919
_cell_angle_gamma    90

_symmetry_space_group_name_H-M    "P 1"
_symmetry_int_tables_number       1

loop_
  _symmetry_equiv_pos_as_xyz
  'x, y, z'

loop_
  _atom_site_label
  _atom_site_occupancy
  _atom_site_fract_x
  _atom_site_fract_y
  _atom_site_fract_z
  _atom_site_thermal_displace_type
  _atom_site_B_iso_or_equiv
  _atom_site_type_symbol
  Cu1      1.0000 0.95258  0.10910  0.67780  Biso   1.000  Cu
  Cu2      1.0000 0.04742  0.60910  0.82220  Biso   1.000  Cu
  Cu3      1.0000 0.04742  0.89090  0.32220  Biso   1.000  Cu
  Cu4      1.0000 0.95258  0.39090  0.17780  Biso   1.000  Cu
  O1       1.0000 0.06324  0.06880  0.82320  Biso   1.000  O
  O2       1.0000 0.93676  0.56880  0.67680  Biso   1.000  O
  O3       1.0000 0.93676  0.93120  0.17680  Biso   1.000  O
  O4       1.0000 0.06324  0.43120  0.32320  Biso   1.000  O
  O5       1.0000 0.83604  0.13840  0.54820  Biso   1.000  O
  O6       1.0000 0.16396  0.63840  0.95180  Biso   1.000  O
  O7       1.0000 0.16396  0.86160  0.45180  Biso   1.000  O
  O8       1.0000 0.83604  0.36160  0.04820  Biso   1.000  O
  O9       1.0000 0.69364  0.19958  0.39250  Biso   1.000  O
  O10      1.0000 0.30636  0.69958  0.10750  Biso   1.000  O
  O11      1.0000 0.30636  0.80042  0.60750  Biso   1.000  O
  O12      1.0000 0.69364  0.30042  0.89250  Biso   1.000  O
  O13      1.0000 0.19604  0.36427  0.85460  Biso   1.000  O
  O14      1.0000 0.80396  0.86427  0.64540  Biso   1.000  O
  O15      1.0000 0.80396  0.63573  0.14540  Biso   1.000  O
  O16      1.0000 0.19604  0.13573  0.35460  Biso   1.000  O
  O17      1.0000 0.04755  0.39007  0.92520  Biso   1.000  O
  O18      1.0000 0.95245  0.89007  0.57480  Biso   1.000  O
  O19      1.0000 0.95245  0.60993  0.07480  Biso   1.000  O
  O20      1.0000 0.04755  0.10993  0.42520  Biso   1.000  O
  O21      1.0000 0.37570  0.20094  0.86170  Biso   1.000  O
  O22      1.0000 0.62430  0.70094  0.63830  Biso   1.000  O
  O23      1.0000 0.62430  0.79906  0.13830  Biso   1.000  O
  O24      1.0000 0.37570  0.29906  0.36170  Biso   1.000  O
  H1       1.0000 0.37300  0.23030  0.83500  Biso   1.000  H
  H2       1.0000 0.62700  0.73030  0.66500  Biso   1.000  H
  H3       1.0000 0.62700  0.76970  0.16500  Biso   1.000  H
  H4       1.0000 0.37300  0.26970  0.33500  Biso   1.000  H
  O25      1.0000 0.35686  0.30828  0.73170  Biso   1.000  O
  O26      1.0000 0.64314  0.80828  0.76830  Biso   1.000  O
  O27      1.0000 0.64314  0.69172  0.26830  Biso   1.000  O
  O28      1.0000 0.35686  0.19172  0.23170  Biso   1.000  O
  H5       1.0000 0.36100  0.30480  0.63300  Biso   1.000  H
  H6       1.0000 0.63900  0.80480  0.86700  Biso   1.000  H
  H7       1.0000 0.63900  0.69520  0.36700  Biso   1.000  H
  H8       1.0000 0.36100  0.19520  0.13300  Biso   1.000  H
  H9       1.0000 0.30500  0.32760  0.75700  Biso   1.000  H
  H10      1.0000 0.69500  0.82760  0.74300  Biso   1.000  H
  H11      1.0000 0.69500  0.67240  0.24300  Biso   1.000  H
  H12      1.0000 0.30500  0.17240  0.25700  Biso   1.000  H
  N1       1.0000 0.97316  0.99287  0.72050  Biso   1.000  N
  N2       1.0000 0.02684  0.49287  0.77950  Biso   1.000  N
  N3       1.0000 0.02684  0.00713  0.27950  Biso   1.000  N
  N4       1.0000 0.97316  0.50713  0.22050  Biso   1.000  N
  H13      1.0000 0.96530  0.95710  0.68200  Biso   1.000  H
  H14      1.0000 0.03470  0.45710  0.81800  Biso   1.000  H
  H15      1.0000 0.03470  0.04290  0.31800  Biso   1.000  H
  H16      1.0000 0.96530  0.54290  0.18200  Biso   1.000  H
  N5       1.0000 0.90469  0.03230  0.64720  Biso   1.000  N
  N6       1.0000 0.09531  0.53230  0.85280  Biso   1.000  N
  N7       1.0000 0.09531  0.96770  0.35280  Biso   1.000  N
  N8       1.0000 0.90469  0.46770  0.14720  Biso   1.000  N
  N9       1.0000 0.00043  0.18510  0.76770  Biso   1.000  N
  N10      1.0000 0.99957  0.68510  0.73230  Biso   1.000  N
  N11      1.0000 0.99957  0.81490  0.23230  Biso   1.000  N
  N12      1.0000 0.00043  0.31490  0.26770  Biso   1.000  N
  C1       1.0000 0.05511  0.01569  0.80990  Biso   1.000  C
  C2       1.0000 0.94489  0.51569  0.69010  Biso   1.000  C
  C3       1.0000 0.94489  0.98431  0.19010  Biso   1.000  C
  C4       1.0000 0.05511  0.48431  0.30990  Biso   1.000  C
  C5       1.0000 0.13435  0.97838  0.89240  Biso   1.000  C
  C6       1.0000 0.86565  0.47838  0.60760  Biso   1.000  C
  C7       1.0000 0.86565  0.02162  0.10760  Biso   1.000  C
  C8       1.0000 0.13435  0.52162  0.39240  Biso   1.000  C
  C9       1.0000 0.22446  0.00288  0.95260  Biso   1.000  C
  C10      1.0000 0.77554  0.50288  0.54740  Biso   1.000  C
  C11      1.0000 0.77554  0.99712  0.04740  Biso   1.000  C
  C12      1.0000 0.22446  0.49712  0.45260  Biso   1.000  C
  H17      1.0000 0.23320  0.04260  0.94190  Biso   1.000  H
  H18      1.0000 0.76680  0.54260  0.55810  Biso   1.000  H
  H19      1.0000 0.76680  0.95740  0.05810  Biso   1.000  H
  H20      1.0000 0.23320  0.45740  0.44190  Biso   1.000  H
  C13      1.0000 0.30190  0.96927  0.02850  Biso   1.000  C
  C14      1.0000 0.69810  0.46927  0.47150  Biso   1.000  C
  C15      1.0000 0.69810  0.03073  0.97150  Biso   1.000  C
  C16      1.0000 0.30190  0.53073  0.52850  Biso   1.000  C
  H21      1.0000 0.36380  0.98610  0.06860  Biso   1.000  H
  H22      1.0000 0.63620  0.48610  0.43140  Biso   1.000  H
  H23      1.0000 0.63620  0.01390  0.93140  Biso   1.000  H
  H24      1.0000 0.36380  0.51390  0.56860  Biso   1.000  H
  C17      1.0000 0.28970  0.91198  0.04610  Biso   1.000  C
  C18      1.0000 0.71030  0.41198  0.45390  Biso   1.000  C
  C19      1.0000 0.71030  0.08802  0.95390  Biso   1.000  C
  C20      1.0000 0.28970  0.58802  0.54610  Biso   1.000  C
  H25      1.0000 0.34310  0.88930  0.09880  Biso   1.000  H
  H26      1.0000 0.65690  0.38930  0.40120  Biso   1.000  H
  H27      1.0000 0.65690  0.11070  0.90120  Biso   1.000  H
  H28      1.0000 0.34310  0.61070  0.59880  Biso   1.000  H
  C21      1.0000 0.19990  0.88726  0.98720  Biso   1.000  C
  C22      1.0000 0.80010  0.38726  0.51280  Biso   1.000  C
  C23      1.0000 0.80010  0.11274  0.01280  Biso   1.000  C
  C24      1.0000 0.19990  0.61274  0.48720  Biso   1.000  C
  H29      1.0000 0.19180  0.84750  0.99930  Biso   1.000  H
  H30      1.0000 0.80820  0.34750  0.50070  Biso   1.000  H
  H31      1.0000 0.80820  0.15250  0.00070  Biso   1.000  H
  H32      1.0000 0.19180  0.65250  0.49930  Biso   1.000  H
  C25      1.0000 0.12214  0.91990  0.91110  Biso   1.000  C
  C26      1.0000 0.87786  0.41990  0.58890  Biso   1.000  C
  C27      1.0000 0.87786  0.08010  0.08890  Biso   1.000  C
  C28      1.0000 0.12214  0.58010  0.41110  Biso   1.000  C
  H33      1.0000 0.06040  0.90280  0.87140  Biso   1.000  H
  H34      1.0000 0.93960  0.40280  0.62860  Biso   1.000  H
  H35      1.0000 0.93960  0.09720  0.12860  Biso   1.000  H
  H36      1.0000 0.06040  0.59720  0.37140  Biso   1.000  H
  C29      1.0000 0.81739  0.01493  0.58430  Biso   1.000  C
  C30      1.0000 0.18261  0.51493  0.91570  Biso   1.000  C
  C31      1.0000 0.18261  0.98507  0.41570  Biso   1.000  C
  C32      1.0000 0.81739  0.48507  0.08430  Biso   1.000  C
  H37      1.0000 0.80390  0.97550  0.58810  Biso   1.000  H
  H38      1.0000 0.19610  0.47550  0.91190  Biso   1.000  H
  H39      1.0000 0.19610  0.02450  0.41190  Biso   1.000  H
  H40      1.0000 0.80390  0.52450  0.08810  Biso   1.000  H
  C33      1.0000 0.74035  0.05193  0.50960  Biso   1.000  C
  C34      1.0000 0.25965  0.55193  0.99040  Biso   1.000  C
  C35      1.0000 0.25965  0.94807  0.49040  Biso   1.000  C
  C36      1.0000 0.74035  0.44807  0.00960  Biso   1.000  C
  C37      1.0000 0.75432  0.11090  0.49470  Biso   1.000  C
  C38      1.0000 0.24568  0.61090  0.00530  Biso   1.000  C
  C39      1.0000 0.24568  0.88910  0.50530  Biso   1.000  C
  C40      1.0000 0.75432  0.38910  0.99470  Biso   1.000  C
  C41      1.0000 0.67217  0.14350  0.41330  Biso   1.000  C
  C42      1.0000 0.32783  0.64350  0.08670  Biso   1.000  C
  C43      1.0000 0.32783  0.85650  0.58670  Biso   1.000  C
  C44      1.0000 0.67217  0.35650  0.91330  Biso   1.000  C
  C45      1.0000 0.58185  0.11865  0.36210  Biso   1.000  C
  C46      1.0000 0.41815  0.61865  0.13790  Biso   1.000  C
  C47      1.0000 0.41815  0.88135  0.63790  Biso   1.000  C
  C48      1.0000 0.58185  0.38135  0.86210  Biso   1.000  C
  H41      1.0000 0.52780  0.14130  0.31200  Biso   1.000  H
  H42      1.0000 0.47220  0.64130  0.18800  Biso   1.000  H
  H43      1.0000 0.47220  0.85870  0.68800  Biso   1.000  H
  H44      1.0000 0.52780  0.35870  0.81200  Biso   1.000  H
  C49      1.0000 0.56942  0.06052  0.38350  Biso   1.000  C
  C50      1.0000 0.43058  0.56052  0.11650  Biso   1.000  C
  C51      1.0000 0.43058  0.93948  0.61650  Biso   1.000  C
  C52      1.0000 0.56942  0.43948  0.88350  Biso   1.000  C
  H45      1.0000 0.50680  0.04370  0.34950  Biso   1.000  H
  H46      1.0000 0.49320  0.54370  0.15050  Biso   1.000  H
  H47      1.0000 0.49320  0.95630  0.65050  Biso   1.000  H
  H48      1.0000 0.50680  0.45630  0.84950  Biso   1.000  H
  C53      1.0000 0.64703  0.02781  0.45300  Biso   1.000  C
  C54      1.0000 0.35297  0.52781  0.04700  Biso   1.000  C
  C55      1.0000 0.35297  0.97219  0.54700  Biso   1.000  C
  C56      1.0000 0.64703  0.47219  0.95300  Biso   1.000  C
  H49      1.0000 0.63830  0.98810  0.46360  Biso   1.000  H
  H50      1.0000 0.36170  0.48810  0.03640  Biso   1.000  H
  H51      1.0000 0.36170  0.01190  0.53640  Biso   1.000  H
  H52      1.0000 0.63830  0.51190  0.96360  Biso   1.000  H
  C57      1.0000 0.61990  0.23329  0.28980  Biso   1.000  C
  C58      1.0000 0.38010  0.73329  0.21020  Biso   1.000  C
  C59      1.0000 0.38010  0.76671  0.71020  Biso   1.000  C
  C60      1.0000 0.61990  0.26671  0.78980  Biso   1.000  C
  H53      1.0000 0.60060  0.21550  0.16910  Biso   1.000  H
  H54      1.0000 0.39940  0.71550  0.33090  Biso   1.000  H
  H55      1.0000 0.39940  0.78450  0.83090  Biso   1.000  H
  H56      1.0000 0.60060  0.28450  0.66910  Biso   1.000  H
  H57      1.0000 0.64630  0.27120  0.27090  Biso   1.000  H
  H58      1.0000 0.35370  0.77120  0.22910  Biso   1.000  H
  H59      1.0000 0.35370  0.72880  0.72910  Biso   1.000  H
  H60      1.0000 0.64630  0.22880  0.77090  Biso   1.000  H
  H61      1.0000 0.56220  0.23630  0.35890  Biso   1.000  H
  H62      1.0000 0.43780  0.73630  0.14110  Biso   1.000  H
  H63      1.0000 0.43780  0.76370  0.64110  Biso   1.000  H
  H64      1.0000 0.56220  0.26370  0.85890  Biso   1.000  H
  C61      1.0000 0.09590  0.19410  0.82410  Biso   1.000  C
  C62      1.0000 0.90410  0.69410  0.67590  Biso   1.000  C
  C63      1.0000 0.90410  0.80590  0.17590  Biso   1.000  C
  C64      1.0000 0.09590  0.30590  0.32410  Biso   1.000  C
  H65      1.0000 0.13920  0.16250  0.83800  Biso   1.000  H
  H66      1.0000 0.86080  0.66250  0.66200  Biso   1.000  H
  H67      1.0000 0.86080  0.83750  0.16200  Biso   1.000  H
  H68      1.0000 0.13920  0.33750  0.33800  Biso   1.000  H
  C65      1.0000 0.13400  0.24756  0.86310  Biso   1.000  C
  C66      1.0000 0.86600  0.74756  0.63690  Biso   1.000  C
  C67      1.0000 0.86600  0.75244  0.13690  Biso   1.000  C
  C68      1.0000 0.13400  0.25244  0.36310  Biso   1.000  C
  H69      1.0000 0.20250  0.25250  0.89930  Biso   1.000  H
  H70      1.0000 0.79750  0.75250  0.60070  Biso   1.000  H
  H71      1.0000 0.79750  0.74750  0.10070  Biso   1.000  H
  H72      1.0000 0.20250  0.24750  0.39930  Biso   1.000  H
  C69      1.0000 0.07117  0.29402  0.84900  Biso   1.000  C
  C70      1.0000 0.92883  0.79402  0.65100  Biso   1.000  C
  C71      1.0000 0.92883  0.70598  0.15100  Biso   1.000  C
  C72      1.0000 0.07117  0.20598  0.34900  Biso   1.000  C
  C73      1.0000 0.97148  0.28398  0.79980  Biso   1.000  C
  C74      1.0000 0.02852  0.78398  0.70020  Biso   1.000  C
  C75      1.0000 0.02852  0.71602  0.20020  Biso   1.000  C
  C76      1.0000 0.97148  0.21602  0.29980  Biso   1.000  C
  H73      1.0000 0.92570  0.31440  0.79600  Biso   1.000  H
  H74      1.0000 0.07430  0.81440  0.70400  Biso   1.000  H
  H75      1.0000 0.07430  0.68560  0.20400  Biso   1.000  H
  H76      1.0000 0.92570  0.18560  0.29600  Biso   1.000  H
  C77      1.0000 0.93917  0.22992  0.75670  Biso   1.000  C
  C78      1.0000 0.06083  0.72992  0.74330  Biso   1.000  C
  C79      1.0000 0.06083  0.77008  0.24330  Biso   1.000  C
  C80      1.0000 0.93917  0.27008  0.25670  Biso   1.000  C
  H77      1.0000 0.87120  0.22400  0.71780  Biso   1.000  H
  H78      1.0000 0.12880  0.72400  0.78220  Biso   1.000  H
  H79      1.0000 0.12880  0.77600  0.28220  Biso   1.000  H
  H80      1.0000 0.87120  0.27600  0.21780  Biso   1.000  H
  C81      1.0000 0.10975  0.35381  0.87940  Biso   1.000  C
  C82      1.0000 0.89025  0.85381  0.62060  Biso   1.000  C
  C83      1.0000 0.89025  0.64619  0.12060  Biso   1.000  C
  C84      1.0000 0.10975  0.14619  0.37940  Biso   1.000  C
  C85      1.0000 0.40950  0.16270  0.73540  Biso   1.000  C
  C86      1.0000 0.59050  0.66270  0.76460  Biso   1.000  C
  C87      1.0000 0.59050  0.83730  0.26460  Biso   1.000  C
  C88      1.0000 0.40950  0.33730  0.23540  Biso   1.000  C
  H81      1.0000 0.47040  0.17770  0.69020  Biso   1.000  H
  H82      1.0000 0.52960  0.67770  0.80980  Biso   1.000  H
  H83      1.0000 0.52960  0.82230  0.30980  Biso   1.000  H
  H84      1.0000 0.47040  0.32230  0.19020  Biso   1.000  H
  H85      1.0000 0.35910  0.15840  0.62730  Biso   1.000  H
  H86      1.0000 0.64090  0.65840  0.87270  Biso   1.000  H
  H87      1.0000 0.64090  0.84160  0.37270  Biso   1.000  H
  H88      1.0000 0.35910  0.34160  0.12730  Biso   1.000  H
  C89      1.0000 0.42960  0.10831  0.82190  Biso   1.000  C
  C90      1.0000 0.57040  0.60831  0.67810  Biso   1.000  C
  C91      1.0000 0.57040  0.89169  0.17810  Biso   1.000  C
  C92      1.0000 0.42960  0.39169  0.32190  Biso   1.000  C
  H89      1.0000 0.48570  0.11170  0.91790  Biso   1.000  H
  H90      1.0000 0.51430  0.61170  0.58210  Biso   1.000  H
  H91      1.0000 0.51430  0.88830  0.08210  Biso   1.000  H
  H92      1.0000 0.48570  0.38830  0.41790  Biso   1.000  H
  H93      1.0000 0.44540  0.08090  0.72800  Biso   1.000  H
  H94      1.0000 0.55460  0.58090  0.77200  Biso   1.000  H
  H95      1.0000 0.55460  0.91910  0.27200  Biso   1.000  H
  H96      1.0000 0.44540  0.41910  0.22800  Biso   1.000  H
  H97      1.0000 0.37140  0.09550  0.87840  Biso   1.000  H
  H98      1.0000 0.62860  0.59550  0.62160  Biso   1.000  H
  H99      1.0000 0.62860  0.90450  0.12160  Biso   1.000  H
  H100     1.0000 0.37140  0.40450  0.37840  Biso   1.000  H
