data_image0
_cell_length_a       14.5417
_cell_length_b       11.6651
_cell_length_c       25.028
_cell_angle_alpha    90
_cell_angle_beta     103.888
_cell_angle_gamma    90

_symmetry_space_group_name_H-M    "P 1"
_symmetry_int_tables_number       1

loop_
  _symmetry_equiv_pos_as_xyz
  'x, y, z'

loop_
  _atom_site_label
  _atom_site_occupancy
  _atom_site_fract_x
  _atom_site_fract_y
  _atom_site_fract_z
  _atom_site_thermal_displace_type
  _atom_site_B_iso_or_equiv
  _atom_site_type_symbol
  Cu1      1.0000 0.34066  0.25676  0.23281  Biso   1.000  Cu
  Cu2      1.0000 0.65934  0.75676  0.26719  Biso   1.000  Cu
  Cu3      1.0000 0.65934  0.74324  0.76719  Biso   1.000  Cu
  Cu4      1.0000 0.34066  0.24324  0.73281  Biso   1.000  Cu
  S1       1.0000 0.43949  0.26827  0.14144  Biso   1.000  S
  S2       1.0000 0.56051  0.76827  0.35856  Biso   1.000  S
  S3       1.0000 0.56051  0.73173  0.85856  Biso   1.000  S
  S4       1.0000 0.43949  0.23173  0.64144  Biso   1.000  S
  Cu5      1.0000 0.15814  0.33525  0.27418  Biso   1.000  Cu
  Cu6      1.0000 0.84186  0.83525  0.22582  Biso   1.000  Cu
  Cu7      1.0000 0.84186  0.66475  0.72582  Biso   1.000  Cu
  Cu8      1.0000 0.15814  0.16475  0.77418  Biso   1.000  Cu
  S5       1.0000 0.05172  0.31830  0.36178  Biso   1.000  S
  S6       1.0000 0.94828  0.81830  0.13822  Biso   1.000  S
  S7       1.0000 0.94828  0.68170  0.63822  Biso   1.000  S
  S8       1.0000 0.05172  0.18170  0.86178  Biso   1.000  S
  O1       1.0000 0.31363  0.19950  0.40054  Biso   1.000  O
  O2       1.0000 0.68637  0.69950  0.09946  Biso   1.000  O
  O3       1.0000 0.68637  0.80050  0.59946  Biso   1.000  O
  O4       1.0000 0.31363  0.30050  0.90054  Biso   1.000  O
  O5       1.0000 0.31446  0.28018  0.30319  Biso   1.000  O
  O6       1.0000 0.68554  0.78018  0.19681  Biso   1.000  O
  O7       1.0000 0.68554  0.71982  0.69681  Biso   1.000  O
  O8       1.0000 0.31446  0.21982  0.80319  Biso   1.000  O
  O9       1.0000 0.52431  0.23560  0.18049  Biso   1.000  O
  O10      1.0000 0.47569  0.73560  0.31951  Biso   1.000  O
  O11      1.0000 0.47569  0.76440  0.81951  Biso   1.000  O
  O12      1.0000 0.52431  0.26440  0.68049  Biso   1.000  O
  O13      1.0000 0.35464  0.22652  0.15825  Biso   1.000  O
  O14      1.0000 0.64536  0.72652  0.34175  Biso   1.000  O
  O15      1.0000 0.64536  0.77348  0.84175  Biso   1.000  O
  O16      1.0000 0.35464  0.27348  0.65825  Biso   1.000  O
  O17      1.0000 0.43420  0.23930  0.08516  Biso   1.000  O
  O18      1.0000 0.56580  0.73930  0.41484  Biso   1.000  O
  O19      1.0000 0.56580  0.76070  0.91484  Biso   1.000  O
  O20      1.0000 0.43420  0.26070  0.58516  Biso   1.000  O
  C1       1.0000 0.31190  0.92190  0.29727  Biso   1.000  C
  C2       1.0000 0.68810  0.42190  0.20273  Biso   1.000  C
  C3       1.0000 0.68810  0.07810  0.70273  Biso   1.000  C
  C4       1.0000 0.31190  0.57810  0.79727  Biso   1.000  C
  H1       1.0000 0.32700  0.89010  0.33230  Biso   1.000  H
  H2       1.0000 0.67300  0.39010  0.16770  Biso   1.000  H
  H3       1.0000 0.67300  0.10990  0.66770  Biso   1.000  H
  H4       1.0000 0.32700  0.60990  0.83230  Biso   1.000  H
  C5       1.0000 0.24780  0.90980  0.20153  Biso   1.000  C
  C6       1.0000 0.75220  0.40980  0.29847  Biso   1.000  C
  C7       1.0000 0.75220  0.09020  0.79847  Biso   1.000  C
  C8       1.0000 0.24780  0.59020  0.70153  Biso   1.000  C
  H5       1.0000 0.21690  0.86970  0.17020  Biso   1.000  H
  H6       1.0000 0.78310  0.36970  0.32980  Biso   1.000  H
  H7       1.0000 0.78310  0.13030  0.82980  Biso   1.000  H
  H8       1.0000 0.21690  0.63030  0.67020  Biso   1.000  H
  O21      1.0000 0.05140  0.34500  0.41730  Biso   1.000  O
  O22      1.0000 0.94860  0.84500  0.08270  Biso   1.000  O
  O23      1.0000 0.94860  0.65500  0.58270  Biso   1.000  O
  O24      1.0000 0.05140  0.15500  0.91730  Biso   1.000  O
  O25      1.0000 0.96890  0.34960  0.32072  Biso   1.000  O
  O26      1.0000 0.03110  0.84960  0.17928  Biso   1.000  O
  O27      1.0000 0.03110  0.65040  0.67928  Biso   1.000  O
  O28      1.0000 0.96890  0.15040  0.82072  Biso   1.000  O
  C9       1.0000 0.07830  0.25650  0.06146  Biso   1.000  C
  C10      1.0000 0.92170  0.75650  0.43854  Biso   1.000  C
  C11      1.0000 0.92170  0.74350  0.93854  Biso   1.000  C
  C12      1.0000 0.07830  0.24350  0.56146  Biso   1.000  C
  H9       1.0000 0.08370  0.27960  0.02680  Biso   1.000  H
  H10      1.0000 0.91630  0.77960  0.47320  Biso   1.000  H
  H11      1.0000 0.91630  0.72040  0.97320  Biso   1.000  H
  H12      1.0000 0.08370  0.22040  0.52680  Biso   1.000  H
  O29      1.0000 0.18879  0.40110  0.10747  Biso   1.000  O
  O30      1.0000 0.81121  0.90110  0.39253  Biso   1.000  O
  O31      1.0000 0.81121  0.59890  0.89253  Biso   1.000  O
  O32      1.0000 0.18879  0.09890  0.60747  Biso   1.000  O
  N1       1.0000 0.31462  0.08651  0.24061  Biso   1.000  N
  N2       1.0000 0.68538  0.58651  0.25939  Biso   1.000  N
  N3       1.0000 0.68538  0.91349  0.75939  Biso   1.000  N
  N4       1.0000 0.31462  0.41349  0.74061  Biso   1.000  N
  O33      1.0000 0.18555  0.31687  0.20407  Biso   1.000  O
  O34      1.0000 0.81445  0.81687  0.29593  Biso   1.000  O
  O35      1.0000 0.81445  0.68313  0.79593  Biso   1.000  O
  O36      1.0000 0.18555  0.18313  0.70407  Biso   1.000  O
  N5       1.0000 0.09146  0.18220  0.26500  Biso   1.000  N
  N6       1.0000 0.90854  0.68220  0.23500  Biso   1.000  N
  N7       1.0000 0.90854  0.81780  0.73500  Biso   1.000  N
  N8       1.0000 0.09146  0.31780  0.76500  Biso   1.000  N
  O37      1.0000 0.13795  0.36304  0.34771  Biso   1.000  O
  O38      1.0000 0.86205  0.86304  0.15229  Biso   1.000  O
  O39      1.0000 0.86205  0.63696  0.65229  Biso   1.000  O
  O40      1.0000 0.13795  0.13696  0.84771  Biso   1.000  O
  N9       1.0000 0.18699  0.50570  0.26869  Biso   1.000  N
  N10      1.0000 0.81301  0.00570  0.23131  Biso   1.000  N
  N11      1.0000 0.81301  0.49430  0.73131  Biso   1.000  N
  N12      1.0000 0.18699  0.99430  0.76869  Biso   1.000  N
  N13      1.0000 0.40914  0.40787  0.23907  Biso   1.000  N
  N14      1.0000 0.59086  0.90787  0.26093  Biso   1.000  N
  N15      1.0000 0.59086  0.59213  0.76093  Biso   1.000  N
  N16      1.0000 0.40914  0.09213  0.73907  Biso   1.000  N
  C13      1.0000 0.44900  0.45010  0.28696  Biso   1.000  C
  C14      1.0000 0.55100  0.95010  0.21304  Biso   1.000  C
  C15      1.0000 0.55100  0.54990  0.71304  Biso   1.000  C
  C16      1.0000 0.44900  0.04990  0.78696  Biso   1.000  C
  H13      1.0000 0.48620  0.51500  0.28710  Biso   1.000  H
  H14      1.0000 0.51380  0.01500  0.21290  Biso   1.000  H
  H15      1.0000 0.51380  0.48500  0.71290  Biso   1.000  H
  H16      1.0000 0.48620  0.98500  0.78710  Biso   1.000  H
  C17      1.0000 0.44220  0.40830  0.33969  Biso   1.000  C
  C18      1.0000 0.55780  0.90830  0.16031  Biso   1.000  C
  C19      1.0000 0.55780  0.59170  0.66031  Biso   1.000  C
  C20      1.0000 0.44220  0.09170  0.83969  Biso   1.000  C
  C21      1.0000 0.50470  0.45450  0.38692  Biso   1.000  C
  C22      1.0000 0.49530  0.95450  0.11308  Biso   1.000  C
  C23      1.0000 0.49530  0.54550  0.61308  Biso   1.000  C
  C24      1.0000 0.50470  0.04550  0.88692  Biso   1.000  C
  H17      1.0000 0.54790  0.51080  0.38310  Biso   1.000  H
  H18      1.0000 0.45210  0.01080  0.11690  Biso   1.000  H
  H19      1.0000 0.45210  0.48920  0.61690  Biso   1.000  H
  H20      1.0000 0.54790  0.98920  0.88310  Biso   1.000  H
  C25      1.0000 0.50180  0.41720  0.43797  Biso   1.000  C
  C26      1.0000 0.49820  0.91720  0.06203  Biso   1.000  C
  C27      1.0000 0.49820  0.58280  0.56203  Biso   1.000  C
  C28      1.0000 0.50180  0.08280  0.93797  Biso   1.000  C
  H21      1.0000 0.54340  0.44790  0.46880  Biso   1.000  H
  H22      1.0000 0.45660  0.94790  0.03120  Biso   1.000  H
  H23      1.0000 0.45660  0.55210  0.53120  Biso   1.000  H
  H24      1.0000 0.54340  0.05210  0.96880  Biso   1.000  H
  C29      1.0000 0.43690  0.33320  0.44449  Biso   1.000  C
  C30      1.0000 0.56310  0.83320  0.05551  Biso   1.000  C
  C31      1.0000 0.56310  0.66680  0.55551  Biso   1.000  C
  C32      1.0000 0.43690  0.16680  0.94449  Biso   1.000  C
  H25      1.0000 0.43510  0.30900  0.47960  Biso   1.000  H
  H26      1.0000 0.56490  0.80900  0.02040  Biso   1.000  H
  H27      1.0000 0.56490  0.69100  0.52040  Biso   1.000  H
  H28      1.0000 0.43510  0.19100  0.97960  Biso   1.000  H
  C33      1.0000 0.37580  0.28620  0.39935  Biso   1.000  C
  C34      1.0000 0.62420  0.78620  0.10065  Biso   1.000  C
  C35      1.0000 0.62420  0.71380  0.60065  Biso   1.000  C
  C36      1.0000 0.37580  0.21380  0.89935  Biso   1.000  C
  C37      1.0000 0.31670  0.14630  0.45140  Biso   1.000  C
  C38      1.0000 0.68330  0.64630  0.04860  Biso   1.000  C
  C39      1.0000 0.68330  0.85370  0.54860  Biso   1.000  C
  C40      1.0000 0.31670  0.35370  0.95140  Biso   1.000  C
  H29      1.0000 0.38020  0.12150  0.46760  Biso   1.000  H
  H30      1.0000 0.61980  0.62150  0.03240  Biso   1.000  H
  H31      1.0000 0.61980  0.87850  0.53240  Biso   1.000  H
  H32      1.0000 0.38020  0.37850  0.96760  Biso   1.000  H
  H33      1.0000 0.27510  0.08120  0.44570  Biso   1.000  H
  H34      1.0000 0.72490  0.58120  0.05430  Biso   1.000  H
  H35      1.0000 0.72490  0.91880  0.55430  Biso   1.000  H
  H36      1.0000 0.27510  0.41880  0.94570  Biso   1.000  H
  H37      1.0000 0.29690  0.19980  0.47560  Biso   1.000  H
  H38      1.0000 0.70310  0.69980  0.02440  Biso   1.000  H
  H39      1.0000 0.70310  0.80020  0.52440  Biso   1.000  H
  H40      1.0000 0.29690  0.30020  0.97560  Biso   1.000  H
  C41      1.0000 0.37580  0.32450  0.34557  Biso   1.000  C
  C42      1.0000 0.62420  0.82450  0.15443  Biso   1.000  C
  C43      1.0000 0.62420  0.67550  0.65443  Biso   1.000  C
  C44      1.0000 0.37580  0.17550  0.84557  Biso   1.000  C
  C45      1.0000 0.41770  0.47340  0.19202  Biso   1.000  C
  C46      1.0000 0.58230  0.97340  0.30798  Biso   1.000  C
  C47      1.0000 0.58230  0.52660  0.80798  Biso   1.000  C
  C48      1.0000 0.41770  0.02660  0.69202  Biso   1.000  C
  C49      1.0000 0.41070  0.59220  0.19242  Biso   1.000  C
  C50      1.0000 0.58930  0.09220  0.30758  Biso   1.000  C
  C51      1.0000 0.58930  0.40780  0.80758  Biso   1.000  C
  C52      1.0000 0.41070  0.90780  0.69242  Biso   1.000  C
  H41      1.0000 0.40150  0.62950  0.22360  Biso   1.000  H
  H42      1.0000 0.59850  0.12950  0.27640  Biso   1.000  H
  H43      1.0000 0.59850  0.37050  0.77640  Biso   1.000  H
  H44      1.0000 0.40150  0.87050  0.72360  Biso   1.000  H
  C53      1.0000 0.41750  0.65520  0.14683  Biso   1.000  C
  C54      1.0000 0.58250  0.15520  0.35317  Biso   1.000  C
  C55      1.0000 0.58250  0.34480  0.85317  Biso   1.000  C
  C56      1.0000 0.41750  0.84480  0.64683  Biso   1.000  C
  H45      1.0000 0.41240  0.73460  0.14760  Biso   1.000  H
  H46      1.0000 0.58760  0.23460  0.35240  Biso   1.000  H
  H47      1.0000 0.58760  0.26540  0.85240  Biso   1.000  H
  H48      1.0000 0.41240  0.76540  0.64760  Biso   1.000  H
  C57      1.0000 0.43180  0.60200  0.09995  Biso   1.000  C
  C58      1.0000 0.56820  0.10200  0.40005  Biso   1.000  C
  C59      1.0000 0.56820  0.39800  0.90005  Biso   1.000  C
  C60      1.0000 0.43180  0.89800  0.59995  Biso   1.000  C
  H49      1.0000 0.43680  0.64510  0.06950  Biso   1.000  H
  H50      1.0000 0.56320  0.14510  0.43050  Biso   1.000  H
  H51      1.0000 0.56320  0.35490  0.93050  Biso   1.000  H
  H52      1.0000 0.43680  0.85490  0.56950  Biso   1.000  H
  C61      1.0000 0.43850  0.48360  0.09931  Biso   1.000  C
  C62      1.0000 0.56150  0.98360  0.40069  Biso   1.000  C
  C63      1.0000 0.56150  0.51640  0.90069  Biso   1.000  C
  C64      1.0000 0.43850  0.01640  0.59931  Biso   1.000  C
  H53      1.0000 0.44800  0.44690  0.06810  Biso   1.000  H
  H54      1.0000 0.55200  0.94690  0.43190  Biso   1.000  H
  H55      1.0000 0.55200  0.55310  0.93190  Biso   1.000  H
  H56      1.0000 0.44800  0.05310  0.56810  Biso   1.000  H
  C65      1.0000 0.43110  0.41920  0.14456  Biso   1.000  C
  C66      1.0000 0.56890  0.91920  0.35544  Biso   1.000  C
  C67      1.0000 0.56890  0.58080  0.85544  Biso   1.000  C
  C68      1.0000 0.43110  0.08080  0.64456  Biso   1.000  C
  C69      1.0000 0.33330  0.03490  0.28969  Biso   1.000  C
  C70      1.0000 0.66670  0.53490  0.21031  Biso   1.000  C
  C71      1.0000 0.66670  0.96510  0.71031  Biso   1.000  C
  C72      1.0000 0.33330  0.46510  0.78969  Biso   1.000  C
  H57      1.0000 0.36240  0.07770  0.32050  Biso   1.000  H
  H58      1.0000 0.63760  0.57770  0.17950  Biso   1.000  H
  H59      1.0000 0.63760  0.92230  0.67950  Biso   1.000  H
  H60      1.0000 0.36240  0.42230  0.82050  Biso   1.000  H
  C73      1.0000 0.26760  0.85590  0.25224  Biso   1.000  C
  C74      1.0000 0.73240  0.35590  0.24776  Biso   1.000  C
  C75      1.0000 0.73240  0.14410  0.74776  Biso   1.000  C
  C76      1.0000 0.26760  0.64410  0.75224  Biso   1.000  C
  C77      1.0000 0.27350  0.02290  0.19716  Biso   1.000  C
  C78      1.0000 0.72650  0.52290  0.30284  Biso   1.000  C
  C79      1.0000 0.72650  0.97710  0.80284  Biso   1.000  C
  C80      1.0000 0.27350  0.47710  0.69716  Biso   1.000  C
  H61      1.0000 0.26170  0.05610  0.16240  Biso   1.000  H
  H62      1.0000 0.73830  0.55610  0.33760  Biso   1.000  H
  H63      1.0000 0.73830  0.94390  0.83760  Biso   1.000  H
  H64      1.0000 0.26170  0.44390  0.66240  Biso   1.000  H
  C81      1.0000 0.23800  0.73500  0.25831  Biso   1.000  C
  C82      1.0000 0.76200  0.23500  0.24169  Biso   1.000  C
  C83      1.0000 0.76200  0.26500  0.74169  Biso   1.000  C
  C84      1.0000 0.23800  0.76500  0.75831  Biso   1.000  C
  C85      1.0000 0.08060  0.11570  0.31135  Biso   1.000  C
  C86      1.0000 0.91940  0.61570  0.18865  Biso   1.000  C
  C87      1.0000 0.91940  0.88430  0.68865  Biso   1.000  C
  C88      1.0000 0.08060  0.38430  0.81135  Biso   1.000  C
  C89      1.0000 0.09170  0.99660  0.31107  Biso   1.000  C
  C90      1.0000 0.90830  0.49660  0.18893  Biso   1.000  C
  C91      1.0000 0.90830  0.00340  0.68893  Biso   1.000  C
  C92      1.0000 0.09170  0.50340  0.81107  Biso   1.000  C
  H65      1.0000 0.10430  0.96120  0.28030  Biso   1.000  H
  H66      1.0000 0.89570  0.46120  0.21970  Biso   1.000  H
  H67      1.0000 0.89570  0.03880  0.71970  Biso   1.000  H
  H68      1.0000 0.10430  0.53880  0.78030  Biso   1.000  H
  C93      1.0000 0.08440  0.93080  0.35545  Biso   1.000  C
  C94      1.0000 0.91560  0.43080  0.14455  Biso   1.000  C
  C95      1.0000 0.91560  0.06920  0.64455  Biso   1.000  C
  C96      1.0000 0.08440  0.56920  0.85545  Biso   1.000  C
  H69      1.0000 0.09190  0.85170  0.35470  Biso   1.000  H
  H70      1.0000 0.90810  0.35170  0.14530  Biso   1.000  H
  H71      1.0000 0.90810  0.14830  0.64530  Biso   1.000  H
  H72      1.0000 0.09190  0.64830  0.85470  Biso   1.000  H
  C97      1.0000 0.06570  0.98410  0.40164  Biso   1.000  C
  C98      1.0000 0.93430  0.48410  0.09836  Biso   1.000  C
  C99      1.0000 0.93430  0.01590  0.59836  Biso   1.000  C
  C100     1.0000 0.06570  0.51590  0.90164  Biso   1.000  C
  H73      1.0000 0.06100  0.94050  0.43200  Biso   1.000  H
  H74      1.0000 0.93900  0.44050  0.06800  Biso   1.000  H
  H75      1.0000 0.93900  0.05950  0.56800  Biso   1.000  H
  H76      1.0000 0.06100  0.55950  0.93200  Biso   1.000  H
  C101     1.0000 0.05430  0.10090  0.40225  Biso   1.000  C
  C102     1.0000 0.94570  0.60090  0.09775  Biso   1.000  C
  C103     1.0000 0.94570  0.89910  0.59775  Biso   1.000  C
  C104     1.0000 0.05430  0.39910  0.90225  Biso   1.000  C
  H77      1.0000 0.03980  0.13550  0.43270  Biso   1.000  H
  H78      1.0000 0.96020  0.63550  0.06730  Biso   1.000  H
  H79      1.0000 0.96020  0.86450  0.56730  Biso   1.000  H
  H80      1.0000 0.03980  0.36450  0.93270  Biso   1.000  H
  C105     1.0000 0.06390  0.16850  0.35809  Biso   1.000  C
  C106     1.0000 0.93610  0.66850  0.14191  Biso   1.000  C
  C107     1.0000 0.93610  0.83150  0.64191  Biso   1.000  C
  C108     1.0000 0.06390  0.33150  0.85809  Biso   1.000  C
  C109     1.0000 0.05460  0.13970  0.21678  Biso   1.000  C
  C110     1.0000 0.94540  0.63970  0.28322  Biso   1.000  C
  C111     1.0000 0.94540  0.86030  0.78322  Biso   1.000  C
  C112     1.0000 0.05460  0.36030  0.71678  Biso   1.000  C
  H81      1.0000 0.01800  0.07400  0.21590  Biso   1.000  H
  H82      1.0000 0.98200  0.57400  0.28410  Biso   1.000  H
  H83      1.0000 0.98200  0.92600  0.78410  Biso   1.000  H
  H84      1.0000 0.01800  0.42600  0.71590  Biso   1.000  H
  C113     1.0000 0.06380  0.18250  0.16490  Biso   1.000  C
  C114     1.0000 0.93620  0.68250  0.33510  Biso   1.000  C
  C115     1.0000 0.93620  0.81750  0.83510  Biso   1.000  C
  C116     1.0000 0.06380  0.31750  0.66490  Biso   1.000  C
  C117     1.0000 0.00840  0.13210  0.11679  Biso   1.000  C
  C118     1.0000 0.99160  0.63210  0.38321  Biso   1.000  C
  C119     1.0000 0.99160  0.86790  0.88321  Biso   1.000  C
  C120     1.0000 0.00840  0.36790  0.61679  Biso   1.000  C
  H85      1.0000 0.96610  0.07390  0.11950  Biso   1.000  H
  H86      1.0000 0.03390  0.57390  0.38050  Biso   1.000  H
  H87      1.0000 0.03390  0.92610  0.88050  Biso   1.000  H
  H88      1.0000 0.96610  0.42610  0.61950  Biso   1.000  H
  C121     1.0000 0.01610  0.16770  0.06669  Biso   1.000  C
  C122     1.0000 0.98390  0.66770  0.43331  Biso   1.000  C
  C123     1.0000 0.98390  0.83230  0.93331  Biso   1.000  C
  C124     1.0000 0.01610  0.33230  0.56669  Biso   1.000  C
  H89      1.0000 0.97970  0.13280  0.03530  Biso   1.000  H
  H90      1.0000 0.02030  0.63280  0.46470  Biso   1.000  H
  H91      1.0000 0.02030  0.86720  0.96470  Biso   1.000  H
  H92      1.0000 0.97970  0.36720  0.53530  Biso   1.000  H
  C125     1.0000 0.13100  0.30890  0.10757  Biso   1.000  C
  C126     1.0000 0.86900  0.80890  0.39243  Biso   1.000  C
  C127     1.0000 0.86900  0.69110  0.89243  Biso   1.000  C
  C128     1.0000 0.13100  0.19110  0.60757  Biso   1.000  C
  C129     1.0000 0.12820  0.26960  0.16078  Biso   1.000  C
  C130     1.0000 0.87180  0.76960  0.33922  Biso   1.000  C
  C131     1.0000 0.87180  0.73040  0.83922  Biso   1.000  C
  C132     1.0000 0.12820  0.23040  0.66078  Biso   1.000  C
  C133     1.0000 0.16960  0.55780  0.21963  Biso   1.000  C
  C134     1.0000 0.83040  0.05780  0.28037  Biso   1.000  C
  C135     1.0000 0.83040  0.44220  0.78037  Biso   1.000  C
  C136     1.0000 0.16960  0.94220  0.71963  Biso   1.000  C
  H93      1.0000 0.14000  0.51610  0.18860  Biso   1.000  H
  H94      1.0000 0.86000  0.01610  0.31140  Biso   1.000  H
  H95      1.0000 0.86000  0.48390  0.81140  Biso   1.000  H
  H96      1.0000 0.14000  0.98390  0.68860  Biso   1.000  H
  C137     1.0000 0.19350  0.66990  0.21306  Biso   1.000  C
  C138     1.0000 0.80650  0.16990  0.28694  Biso   1.000  C
  C139     1.0000 0.80650  0.33010  0.78694  Biso   1.000  C
  C140     1.0000 0.19350  0.83010  0.71306  Biso   1.000  C
  H97      1.0000 0.17980  0.70240  0.17810  Biso   1.000  H
  H98      1.0000 0.82020  0.20240  0.32190  Biso   1.000  H
  H99      1.0000 0.82020  0.29760  0.82190  Biso   1.000  H
  H100     1.0000 0.17980  0.79760  0.67810  Biso   1.000  H
  C141     1.0000 0.25570  0.68040  0.30873  Biso   1.000  C
  C142     1.0000 0.74430  0.18040  0.19127  Biso   1.000  C
  C143     1.0000 0.74430  0.31960  0.69127  Biso   1.000  C
  C144     1.0000 0.25570  0.81960  0.80873  Biso   1.000  C
  H101     1.0000 0.28590  0.71980  0.34040  Biso   1.000  H
  H102     1.0000 0.71410  0.21980  0.15960  Biso   1.000  H
  H103     1.0000 0.71410  0.28020  0.65960  Biso   1.000  H
  H104     1.0000 0.28590  0.78020  0.84040  Biso   1.000  H
  C145     1.0000 0.22900  0.56760  0.31241  Biso   1.000  C
  C146     1.0000 0.77100  0.06760  0.18759  Biso   1.000  C
  C147     1.0000 0.77100  0.43240  0.68759  Biso   1.000  C
  C148     1.0000 0.22900  0.93240  0.81241  Biso   1.000  C
  H105     1.0000 0.24080  0.53340  0.34700  Biso   1.000  H
  H106     1.0000 0.75920  0.03340  0.15300  Biso   1.000  H
  H107     1.0000 0.75920  0.46660  0.65300  Biso   1.000  H
  H108     1.0000 0.24080  0.96660  0.84700  Biso   1.000  H
  C149     1.0000 0.18730  0.45380  0.05724  Biso   1.000  C
  C150     1.0000 0.81270  0.95380  0.44276  Biso   1.000  C
  C151     1.0000 0.81270  0.54620  0.94276  Biso   1.000  C
  C152     1.0000 0.18730  0.04620  0.55724  Biso   1.000  C
  H109     1.0000 0.21000  0.40100  0.03390  Biso   1.000  H
  H110     1.0000 0.79000  0.90100  0.46610  Biso   1.000  H
  H111     1.0000 0.79000  0.59900  0.96610  Biso   1.000  H
  H112     1.0000 0.21000  0.09900  0.53390  Biso   1.000  H
  H113     1.0000 0.22740  0.52030  0.06340  Biso   1.000  H
  H114     1.0000 0.77260  0.02030  0.43660  Biso   1.000  H
  H115     1.0000 0.77260  0.47970  0.93660  Biso   1.000  H
  H116     1.0000 0.22740  0.97970  0.56340  Biso   1.000  H
  H117     1.0000 0.12370  0.47630  0.03990  Biso   1.000  H
  H118     1.0000 0.87630  0.97630  0.46010  Biso   1.000  H
  H119     1.0000 0.87630  0.52370  0.96010  Biso   1.000  H
  H120     1.0000 0.12370  0.02370  0.53990  Biso   1.000  H
