data_image0
_cell_length_a       13.733
_cell_length_b       6.102
_cell_length_c       7.252
_cell_angle_alpha    90
_cell_angle_beta     90
_cell_angle_gamma    90

_symmetry_space_group_name_H-M    "P 1"
_symmetry_int_tables_number       1

loop_
  _symmetry_equiv_pos_as_xyz
  'x, y, z'

loop_
  _atom_site_label
  _atom_site_occupancy
  _atom_site_fract_x
  _atom_site_fract_y
  _atom_site_fract_z
  _atom_site_thermal_displace_type
  _atom_site_B_iso_or_equiv
  _atom_site_type_symbol
  Cu1      1.0000 0.50000  0.32550  0.91563  Biso   1.000  Cu
  Cu2      1.0000 0.00000  0.67450  0.41563  Biso   1.000  Cu
  Cl1      1.0000 0.50000  0.31300  0.26920  Biso   1.000  Cl
  Cl2      1.0000 0.00000  0.68700  0.76920  Biso   1.000  Cl
  N1       1.0000 0.35080  0.32160  0.88080  Biso   1.000  N
  N2       1.0000 0.14920  0.67840  0.38080  Biso   1.000  N
  N3       1.0000 0.85080  0.67840  0.38080  Biso   1.000  N
  N4       1.0000 0.64920  0.32160  0.88080  Biso   1.000  N
  N5       1.0000 0.19970  0.41250  0.82050  Biso   1.000  N
  N6       1.0000 0.30030  0.58750  0.32050  Biso   1.000  N
  N7       1.0000 0.69970  0.58750  0.32050  Biso   1.000  N
  N8       1.0000 0.80030  0.41250  0.82050  Biso   1.000  N
  H1       1.0000 0.15010  0.48990  0.78910  Biso   1.000  H
  H2       1.0000 0.34990  0.51010  0.28910  Biso   1.000  H
  H3       1.0000 0.65010  0.51010  0.28910  Biso   1.000  H
  H4       1.0000 0.84990  0.48990  0.78910  Biso   1.000  H
  C1       1.0000 0.29060  0.14460  0.91200  Biso   1.000  C
  C2       1.0000 0.20940  0.85540  0.41200  Biso   1.000  C
  C3       1.0000 0.79060  0.85540  0.41200  Biso   1.000  C
  C4       1.0000 0.70940  0.14460  0.91200  Biso   1.000  C
  H5       1.0000 0.31060  0.00770  0.95350  Biso   1.000  H
  H6       1.0000 0.18940  0.99230  0.45350  Biso   1.000  H
  H7       1.0000 0.81060  0.99230  0.45350  Biso   1.000  H
  H8       1.0000 0.68940  0.00770  0.95350  Biso   1.000  H
  C5       1.0000 0.19830  0.20120  0.87210  Biso   1.000  C
  C6       1.0000 0.30170  0.79880  0.37210  Biso   1.000  C
  C7       1.0000 0.69830  0.79880  0.37210  Biso   1.000  C
  C8       1.0000 0.80170  0.20120  0.87210  Biso   1.000  C
  H9       1.0000 0.14380  0.11110  0.87910  Biso   1.000  H
  H10      1.0000 0.35620  0.88890  0.37910  Biso   1.000  H
  H11      1.0000 0.64380  0.88890  0.37910  Biso   1.000  H
  H12      1.0000 0.85620  0.11110  0.87910  Biso   1.000  H
  C9       1.0000 0.29310  0.48170  0.82680  Biso   1.000  C
  C10      1.0000 0.20690  0.51830  0.32680  Biso   1.000  C
  C11      1.0000 0.79310  0.51830  0.32680  Biso   1.000  C
  C12      1.0000 0.70690  0.48170  0.82680  Biso   1.000  C
  H13      1.0000 0.31380  0.62250  0.79720  Biso   1.000  H
  H14      1.0000 0.18620  0.37750  0.29720  Biso   1.000  H
  H15      1.0000 0.81380  0.37750  0.29720  Biso   1.000  H
  H16      1.0000 0.68620  0.62250  0.79720  Biso   1.000  H
  N9       1.0000 0.50000  0.00990  0.87190  Biso   1.000  N
  N10      1.0000 0.00000  0.99010  0.37190  Biso   1.000  N
  N11      1.0000 0.50000  0.64420  0.86210  Biso   1.000  N
  N12      1.0000 0.00000  0.35580  0.36210  Biso   1.000  N
  C13      1.0000 0.50000  0.93670  0.69270  Biso   1.000  C
  C14      1.0000 0.00000  0.06330  0.19270  Biso   1.000  C
  H17      1.0000 0.50000  0.02750  0.58970  Biso   1.000  H
  H18      1.0000 0.00000  0.97250  0.08970  Biso   1.000  H
  C15      1.0000 0.50000  0.71530  0.68590  Biso   1.000  C
  C16      1.0000 0.00000  0.28470  0.18590  Biso   1.000  C
  H19      1.0000 0.50000  0.62870  0.58040  Biso   1.000  H
  H20      1.0000 0.00000  0.37130  0.08040  Biso   1.000  H
  C17      1.0000 0.50000  0.82500  0.96710  Biso   1.000  C
  C18      1.0000 0.00000  0.17500  0.46710  Biso   1.000  C
  H21      1.0000 0.50000  0.82070  0.09530  Biso   1.000  H
  H22      1.0000 0.00000  0.17930  0.59530  Biso   1.000  H
