data_image0
_cell_length_a       13.6857
_cell_length_b       6.1016
_cell_length_c       7.1475
_cell_angle_alpha    90
_cell_angle_beta     90
_cell_angle_gamma    90

_symmetry_space_group_name_H-M    "P 1"
_symmetry_int_tables_number       1

loop_
  _symmetry_equiv_pos_as_xyz
  'x, y, z'

loop_
  _atom_site_label
  _atom_site_occupancy
  _atom_site_fract_x
  _atom_site_fract_y
  _atom_site_fract_z
  _atom_site_thermal_displace_type
  _atom_site_B_iso_or_equiv
  _atom_site_type_symbol
  Cu1      1.0000 0.50000  0.17600  0.56270  Biso   1.000  Cu
  Cu2      1.0000 0.00000  0.82400  0.06270  Biso   1.000  Cu
  Cl1      1.0000 0.50000  0.18919  0.20677  Biso   1.000  Cl
  Cl2      1.0000 0.00000  0.81081  0.70677  Biso   1.000  Cl
  N1       1.0000 0.50000  0.49210  0.60820  Biso   1.000  N
  N2       1.0000 0.00000  0.50790  0.10820  Biso   1.000  N
  C1       1.0000 0.50000  0.67720  0.50890  Biso   1.000  C
  C2       1.0000 0.00000  0.32280  0.00890  Biso   1.000  C
  H1       1.0000 0.50000  0.67957  0.37601  Biso   1.000  H
  H2       1.0000 0.00000  0.32043  0.87601  Biso   1.000  H
  N3       1.0000 0.50000  0.85860  0.61300  Biso   1.000  N
  N4       1.0000 0.00000  0.14140  0.11300  Biso   1.000  N
  C3       1.0000 0.50000  0.78510  0.79540  Biso   1.000  C
  C4       1.0000 0.00000  0.21490  0.29540  Biso   1.000  C
  H3       1.0000 0.50000  0.87524  0.90378  Biso   1.000  H
  H4       1.0000 0.00000  0.12476  0.40378  Biso   1.000  H
  C5       1.0000 0.50000  0.56480  0.79440  Biso   1.000  C
  C6       1.0000 0.00000  0.43520  0.29440  Biso   1.000  C
  H5       1.0000 0.50000  0.47346  0.90201  Biso   1.000  H
  H6       1.0000 0.00000  0.52654  0.40201  Biso   1.000  H
  N5       1.0000 0.64926  0.17790  0.59750  Biso   1.000  N
  N6       1.0000 0.85074  0.82210  0.09750  Biso   1.000  N
  N7       1.0000 0.14926  0.82210  0.09750  Biso   1.000  N
  N8       1.0000 0.35074  0.17790  0.59750  Biso   1.000  N
  C7       1.0000 0.70700  0.01820  0.65570  Biso   1.000  C
  C8       1.0000 0.79300  0.98180  0.15570  Biso   1.000  C
  C9       1.0000 0.20700  0.98180  0.15570  Biso   1.000  C
  C10      1.0000 0.29300  0.01820  0.65570  Biso   1.000  C
  H7       1.0000 0.68532  0.87511  0.68772  Biso   1.000  H
  H8       1.0000 0.81468  0.12489  0.18772  Biso   1.000  H
  H9       1.0000 0.18532  0.12489  0.18772  Biso   1.000  H
  H10      1.0000 0.31468  0.87511  0.68772  Biso   1.000  H
  N9       1.0000 0.80025  0.08490  0.66360  Biso   1.000  N
  N10      1.0000 0.69975  0.91510  0.16360  Biso   1.000  N
  N11      1.0000 0.30025  0.91510  0.16360  Biso   1.000  N
  N12      1.0000 0.19975  0.08490  0.66360  Biso   1.000  N
  H11      1.0000 0.85061  0.00532  0.69880  Biso   1.000  H
  H12      1.0000 0.64939  0.99468  0.19880  Biso   1.000  H
  H13      1.0000 0.35061  0.99468  0.19880  Biso   1.000  H
  H14      1.0000 0.14939  0.00532  0.69880  Biso   1.000  H
  C11      1.0000 0.80310  0.29850  0.60710  Biso   1.000  C
  C12      1.0000 0.69690  0.70150  0.10710  Biso   1.000  C
  C13      1.0000 0.30310  0.70150  0.10710  Biso   1.000  C
  C14      1.0000 0.19690  0.29850  0.60710  Biso   1.000  C
  H15      1.0000 0.85916  0.38967  0.59887  Biso   1.000  H
  H16      1.0000 0.64084  0.61033  0.09887  Biso   1.000  H
  H17      1.0000 0.35916  0.61033  0.09887  Biso   1.000  H
  H18      1.0000 0.14084  0.38967  0.59887  Biso   1.000  H
  C15      1.0000 0.71013  0.35440  0.56540  Biso   1.000  C
  C16      1.0000 0.78987  0.64560  0.06540  Biso   1.000  C
  C17      1.0000 0.21013  0.64560  0.06540  Biso   1.000  C
  C18      1.0000 0.28987  0.35440  0.56540  Biso   1.000  C
  H19      1.0000 0.68974  0.49372  0.52075  Biso   1.000  H
  H20      1.0000 0.81026  0.50628  0.02075  Biso   1.000  H
  H21      1.0000 0.18974  0.50628  0.02075  Biso   1.000  H
  H22      1.0000 0.31026  0.49372  0.52075  Biso   1.000  H
