data_image0
_cell_length_a       7.2427
_cell_length_b       13.7256
_cell_length_c       6.096
_cell_angle_alpha    90
_cell_angle_beta     90
_cell_angle_gamma    90

_symmetry_space_group_name_H-M    "P 1"
_symmetry_int_tables_number       1

loop_
  _symmetry_equiv_pos_as_xyz
  'x, y, z'

loop_
  _atom_site_label
  _atom_site_occupancy
  _atom_site_fract_x
  _atom_site_fract_y
  _atom_site_fract_z
  _atom_site_thermal_displace_type
  _atom_site_B_iso_or_equiv
  _atom_site_type_symbol
  Cl1      1.0000 0.35310  0.00000  0.18820  Biso   1.000  Cl
  Cl2      1.0000 0.85310  0.50000  0.81180  Biso   1.000  Cl
  Cu1      1.0000 0.00000  0.00000  0.17430  Biso   1.000  Cu
  Cu2      1.0000 0.50000  0.50000  0.82570  Biso   1.000  Cu
  C1       1.0000 0.05000  0.00000  0.67610  Biso   1.000  C
  C2       1.0000 0.55000  0.50000  0.32390  Biso   1.000  C
  C3       1.0000 0.76550  0.00000  0.78500  Biso   1.000  C
  C4       1.0000 0.26550  0.50000  0.21500  Biso   1.000  C
  C5       1.0000 0.76860  0.00000  0.56110  Biso   1.000  C
  C6       1.0000 0.26860  0.50000  0.43890  Biso   1.000  C
  C7       1.0000 0.90780  0.20590  0.01390  Biso   1.000  C
  C8       1.0000 0.90780  0.79410  0.01390  Biso   1.000  C
  C9       1.0000 0.40780  0.70590  0.98610  Biso   1.000  C
  C10      1.0000 0.40780  0.29410  0.98610  Biso   1.000  C
  C11      1.0000 0.95730  0.30390  0.29880  Biso   1.000  C
  C12      1.0000 0.95730  0.69610  0.29880  Biso   1.000  C
  C13      1.0000 0.45730  0.80390  0.70120  Biso   1.000  C
  C14      1.0000 0.45730  0.19610  0.70120  Biso   1.000  C
  C15      1.0000 0.00130  0.20900  0.35610  Biso   1.000  C
  C16      1.0000 0.00130  0.79100  0.35610  Biso   1.000  C
  C17      1.0000 0.50130  0.70900  0.64390  Biso   1.000  C
  C18      1.0000 0.50130  0.29100  0.64390  Biso   1.000  C
  N1       1.0000 0.94780  0.00000  0.49420  Biso   1.000  N
  N2       1.0000 0.44780  0.50000  0.50580  Biso   1.000  N
  N3       1.0000 0.94900  0.00000  0.85810  Biso   1.000  N
  N4       1.0000 0.44900  0.50000  0.14190  Biso   1.000  N
  N5       1.0000 0.96500  0.14880  0.17560  Biso   1.000  N
  N6       1.0000 0.96500  0.85120  0.17560  Biso   1.000  N
  N7       1.0000 0.46500  0.64880  0.82440  Biso   1.000  N
  N8       1.0000 0.46500  0.35120  0.82440  Biso   1.000  N
  N9       1.0000 0.89950  0.30070  0.08600  Biso   1.000  N
  N10      1.0000 0.89950  0.69930  0.08600  Biso   1.000  N
  N11      1.0000 0.39950  0.80070  0.91400  Biso   1.000  N
  N12      1.0000 0.39950  0.19930  0.91400  Biso   1.000  N
