data_image0
_cell_length_a       8.7523
_cell_length_b       9.9715
_cell_length_c       17.61
_cell_angle_alpha    92.857
_cell_angle_beta     104.123
_cell_angle_gamma    107.665

_symmetry_space_group_name_H-M    "P 1"
_symmetry_int_tables_number       1

loop_
  _symmetry_equiv_pos_as_xyz
  'x, y, z'

loop_
  _atom_site_label
  _atom_site_occupancy
  _atom_site_fract_x
  _atom_site_fract_y
  _atom_site_fract_z
  _atom_site_thermal_displace_type
  _atom_site_B_iso_or_equiv
  _atom_site_type_symbol
  Cu1      1.0000 0.07021  0.58700  0.33522  Biso   1.000  Cu
  Cu2      1.0000 0.92979  0.41300  0.66478  Biso   1.000  Cu
  Cu3      1.0000 0.80907  0.42901  0.16113  Biso   1.000  Cu
  Cu4      1.0000 0.19093  0.57099  0.83887  Biso   1.000  Cu
  O1       1.0000 0.84770  0.51350  0.26716  Biso   1.000  O
  O2       1.0000 0.15230  0.48650  0.73284  Biso   1.000  O
  O3       1.0000 0.54570  0.59400  0.30160  Biso   1.000  O
  O4       1.0000 0.45430  0.40600  0.69840  Biso   1.000  O
  O5       1.0000 0.66220  0.88860  0.31350  Biso   1.000  O
  O6       1.0000 0.33780  0.11140  0.68650  Biso   1.000  O
  O7       1.0000 0.13820  0.75710  0.28681  Biso   1.000  O
  O8       1.0000 0.86180  0.24290  0.71319  Biso   1.000  O
  O9       1.0000 0.97030  0.85340  0.32920  Biso   1.000  O
  O10      1.0000 0.02970  0.14660  0.67080  Biso   1.000  O
  N1       1.0000 0.28160  0.65850  0.42590  Biso   1.000  N
  N2       1.0000 0.71840  0.34150  0.57410  Biso   1.000  N
  N3       1.0000 0.02960  0.42540  0.39990  Biso   1.000  N
  N4       1.0000 0.97040  0.57460  0.60010  Biso   1.000  N
  N5       1.0000 0.74630  0.58970  0.10830  Biso   1.000  N
  N6       1.0000 0.25370  0.41030  0.89170  Biso   1.000  N
  N7       1.0000 0.79750  0.37010  0.04810  Biso   1.000  N
  N8       1.0000 0.20250  0.62990  0.95190  Biso   1.000  N
  C1       1.0000 0.40750  0.77990  0.43340  Biso   1.000  C
  C2       1.0000 0.59250  0.22010  0.56660  Biso   1.000  C
  H1       1.0000 0.40280  0.83600  0.39280  Biso   1.000  H
  H2       1.0000 0.59720  0.16400  0.60720  Biso   1.000  H
  C3       1.0000 0.54250  0.82460  0.49830  Biso   1.000  C
  C4       1.0000 0.45750  0.17540  0.50170  Biso   1.000  C
  H3       1.0000 0.62720  0.90990  0.50200  Biso   1.000  H
  H4       1.0000 0.37280  0.09010  0.49800  Biso   1.000  H
  C5       1.0000 0.55070  0.74070  0.55830  Biso   1.000  C
  C6       1.0000 0.44930  0.25930  0.44170  Biso   1.000  C
  H5       1.0000 0.64130  0.76870  0.60300  Biso   1.000  H
  H6       1.0000 0.35870  0.23130  0.39700  Biso   1.000  H
  C7       1.0000 0.42320  0.61490  0.55130  Biso   1.000  C
  C8       1.0000 0.57680  0.38510  0.44870  Biso   1.000  C
  H7       1.0000 0.42650  0.55700  0.59110  Biso   1.000  H
  H8       1.0000 0.57350  0.44300  0.40890  Biso   1.000  H
  C9       1.0000 0.28930  0.57590  0.48370  Biso   1.000  C
  C10      1.0000 0.71070  0.42410  0.51630  Biso   1.000  C
  C11      1.0000 0.14890  0.44140  0.46880  Biso   1.000  C
  C12      1.0000 0.85110  0.55860  0.53120  Biso   1.000  C
  C13      1.0000 0.13540  0.33750  0.51870  Biso   1.000  C
  C14      1.0000 0.86460  0.66250  0.48130  Biso   1.000  C
  H9       1.0000 0.21590  0.35090  0.56650  Biso   1.000  H
  H10      1.0000 0.78410  0.64910  0.43350  Biso   1.000  H
  C15      1.0000 0.00070  0.21410  0.49640  Biso   1.000  C
  C16      1.0000 0.99930  0.78590  0.50360  Biso   1.000  C
  H11      1.0000 0.99030  0.14300  0.52880  Biso   1.000  H
  H12      1.0000 0.00970  0.85700  0.47120  Biso   1.000  H
  C17      1.0000 0.88120  0.19670  0.42540  Biso   1.000  C
  C18      1.0000 0.11880  0.80330  0.57460  Biso   1.000  C
  H13      1.0000 0.79070  0.11340  0.40920  Biso   1.000  H
  H14      1.0000 0.20930  0.88660  0.59080  Biso   1.000  H
  C19      1.0000 0.89900  0.30560  0.37900  Biso   1.000  C
  C20      1.0000 0.10100  0.69440  0.62100  Biso   1.000  C
  H15      1.0000 0.81780  0.29510  0.33180  Biso   1.000  H
  H16      1.0000 0.18220  0.70490  0.66820  Biso   1.000  H
  C21      1.0000 0.82380  0.25150  0.02300  Biso   1.000  C
  C22      1.0000 0.17620  0.74850  0.97700  Biso   1.000  C
  H17      1.0000 0.84340  0.18880  0.05850  Biso   1.000  H
  H18      1.0000 0.15660  0.81120  0.94150  Biso   1.000  H
  C23      1.0000 0.82220  0.22070  0.94480  Biso   1.000  C
  C24      1.0000 0.17780  0.77930  0.05520  Biso   1.000  C
  H19      1.0000 0.84240  0.13920  0.92840  Biso   1.000  H
  H20      1.0000 0.15760  0.86080  0.07160  Biso   1.000  H
  C25      1.0000 0.79030  0.31300  0.89210  Biso   1.000  C
  C26      1.0000 0.20970  0.68700  0.10790  Biso   1.000  C
  H21      1.0000 0.79060  0.29530  0.83980  Biso   1.000  H
  H22      1.0000 0.20940  0.70470  0.16020  Biso   1.000  H
  C27      1.0000 0.75780  0.43190  0.91780  Biso   1.000  C
  C28      1.0000 0.24220  0.56810  0.08220  Biso   1.000  C
  H23      1.0000 0.73430  0.49430  0.88280  Biso   1.000  H
  H24      1.0000 0.26570  0.50570  0.11720  Biso   1.000  H
  C29      1.0000 0.76070  0.45740  0.99620  Biso   1.000  C
  C30      1.0000 0.23930  0.54260  0.00380  Biso   1.000  C
  C31      1.0000 0.72930  0.58020  0.03010  Biso   1.000  C
  C32      1.0000 0.27070  0.41980  0.96990  Biso   1.000  C
  C33      1.0000 0.68280  0.68170  0.98720  Biso   1.000  C
  C34      1.0000 0.31720  0.31830  0.01280  Biso   1.000  C
  H25      1.0000 0.66920  0.67330  0.93290  Biso   1.000  H
  H26      1.0000 0.33080  0.32670  0.06710  Biso   1.000  H
  C35      1.0000 0.65680  0.79360  0.02380  Biso   1.000  C
  C36      1.0000 0.34320  0.20640  0.97620  Biso   1.000  C
  H27      1.0000 0.62510  0.86100  0.99510  Biso   1.000  H
  H28      1.0000 0.37490  0.13900  0.00490  Biso   1.000  H
  C37      1.0000 0.67850  0.80420  0.10440  Biso   1.000  C
  C38      1.0000 0.32150  0.19580  0.89560  Biso   1.000  C
  H29      1.0000 0.66470  0.88040  0.13140  Biso   1.000  H
  H30      1.0000 0.33530  0.11960  0.86860  Biso   1.000  H
  C39      1.0000 0.72120  0.69960  0.14420  Biso   1.000  C
  C40      1.0000 0.27880  0.30040  0.85580  Biso   1.000  C
  H31      1.0000 0.73320  0.70560  0.19830  Biso   1.000  H
  H32      1.0000 0.26680  0.29440  0.80170  Biso   1.000  H
  C41      1.0000 0.16190  0.99320  0.26600  Biso   1.000  C
  C42      1.0000 0.83810  0.00680  0.73400  Biso   1.000  C
  C43      1.0000 0.09150  0.10110  0.25970  Biso   1.000  C
  C44      1.0000 0.90850  0.89890  0.74030  Biso   1.000  C
  H33      1.0000 0.98830  0.08690  0.26940  Biso   1.000  H
  H34      1.0000 0.01170  0.91310  0.73060  Biso   1.000  H
  C45      1.0000 0.17510  0.23060  0.23880  Biso   1.000  C
  C46      1.0000 0.82490  0.76940  0.76120  Biso   1.000  C
  C47      1.0000 0.32700  0.24930  0.22230  Biso   1.000  C
  C48      1.0000 0.67300  0.75070  0.77770  Biso   1.000  C
  H35      1.0000 0.38580  0.33740  0.21120  Biso   1.000  H
  H36      1.0000 0.61420  0.66260  0.78880  Biso   1.000  H
  C49      1.0000 0.39230  0.13930  0.22200  Biso   1.000  C
  C50      1.0000 0.60770  0.86070  0.77800  Biso   1.000  C
  C51      1.0000 0.31020  0.01190  0.24570  Biso   1.000  C
  C52      1.0000 0.68980  0.98810  0.75430  Biso   1.000  C
  H37      1.0000 0.35540  0.93850  0.24790  Biso   1.000  H
  H38      1.0000 0.64460  0.06150  0.75210  Biso   1.000  H
  C53      1.0000 0.08030  0.85840  0.29640  Biso   1.000  C
  C54      1.0000 0.91970  0.14160  0.70360  Biso   1.000  C
  C55      1.0000 0.10090  0.34840  0.23220  Biso   1.000  C
  C56      1.0000 0.89910  0.65160  0.76780  Biso   1.000  C
  O11      1.0000 0.19100  0.47250  0.26020  Biso   1.000  O
  O12      1.0000 0.80900  0.52750  0.73980  Biso   1.000  O
  O13      1.0000 0.94890  0.30970  0.19691  Biso   1.000  O
  O14      1.0000 0.05110  0.69030  0.80309  Biso   1.000  O
  C57      1.0000 0.54670  0.15860  0.19370  Biso   1.000  C
  C58      1.0000 0.45330  0.84140  0.80630  Biso   1.000  C
  O15      1.0000 0.58420  0.26240  0.15727  Biso   1.000  O
  O16      1.0000 0.41580  0.73760  0.84273  Biso   1.000  O
  O17      1.0000 0.62060  0.06960  0.20700  Biso   1.000  O
  O18      1.0000 0.37940  0.93040  0.79300  Biso   1.000  O
