data_image0
_cell_length_a       9.759
_cell_length_b       8.333
_cell_length_c       18.087
_cell_angle_alpha    90
_cell_angle_beta     101.174
_cell_angle_gamma    90

_symmetry_space_group_name_H-M    "P 1"
_symmetry_int_tables_number       1

loop_
  _symmetry_equiv_pos_as_xyz
  'x, y, z'

loop_
  _atom_site_label
  _atom_site_occupancy
  _atom_site_fract_x
  _atom_site_fract_y
  _atom_site_fract_z
  _atom_site_thermal_displace_type
  _atom_site_B_iso_or_equiv
  _atom_site_type_symbol
  Cu1      1.0000 0.50501  0.27848  0.56213  Biso   1.000  Cu
  Cu2      1.0000 0.99499  0.77848  0.93787  Biso   1.000  Cu
  Cu3      1.0000 0.49499  0.72152  0.43787  Biso   1.000  Cu
  Cu4      1.0000 0.00501  0.22152  0.06213  Biso   1.000  Cu
  O1       1.0000 0.30560  0.01720  0.38631  Biso   1.000  O
  O2       1.0000 0.19440  0.51720  0.11369  Biso   1.000  O
  O3       1.0000 0.69440  0.98280  0.61369  Biso   1.000  O
  O4       1.0000 0.80560  0.48280  0.88631  Biso   1.000  O
  O5       1.0000 0.44820  0.19500  0.45525  Biso   1.000  O
  O6       1.0000 0.05180  0.69500  0.04475  Biso   1.000  O
  O7       1.0000 0.55180  0.80500  0.54475  Biso   1.000  O
  O8       1.0000 0.94820  0.30500  0.95525  Biso   1.000  O
  O9       1.0000 0.51449  0.30270  0.67512  Biso   1.000  O
  O10      1.0000 0.98551  0.80270  0.82488  Biso   1.000  O
  O11      1.0000 0.48551  0.69730  0.32488  Biso   1.000  O
  O12      1.0000 0.01449  0.19730  0.17512  Biso   1.000  O
  O13      1.0000 0.40570  0.22090  0.76653  Biso   1.000  O
  O14      1.0000 0.09430  0.72090  0.73347  Biso   1.000  O
  O15      1.0000 0.59430  0.77910  0.23347  Biso   1.000  O
  O16      1.0000 0.90570  0.27910  0.26653  Biso   1.000  O
  O17      1.0000 0.68195  0.37360  0.56048  Biso   1.000  O
  O18      1.0000 0.81805  0.87360  0.93952  Biso   1.000  O
  O19      1.0000 0.31805  0.62640  0.43952  Biso   1.000  O
  O20      1.0000 0.18195  0.12640  0.06048  Biso   1.000  O
  O21      1.0000 0.61898  0.48650  0.44676  Biso   1.000  O
  O22      1.0000 0.88102  0.98650  0.05324  Biso   1.000  O
  O23      1.0000 0.38102  0.51350  0.55324  Biso   1.000  O
  O24      1.0000 0.11898  0.01350  0.94676  Biso   1.000  O
  N1       1.0000 0.35866  0.13490  0.57458  Biso   1.000  N
  N2       1.0000 0.14134  0.63490  0.92542  Biso   1.000  N
  N3       1.0000 0.64134  0.86510  0.42542  Biso   1.000  N
  N4       1.0000 0.85866  0.36510  0.07458  Biso   1.000  N
  C1       1.0000 0.35010  0.08860  0.44526  Biso   1.000  C
  C2       1.0000 0.14990  0.58860  0.05474  Biso   1.000  C
  C3       1.0000 0.64990  0.91140  0.55474  Biso   1.000  C
  C4       1.0000 0.85010  0.41140  0.94526  Biso   1.000  C
  C5       1.0000 0.29230  0.05270  0.51521  Biso   1.000  C
  C6       1.0000 0.20770  0.55270  0.98479  Biso   1.000  C
  C7       1.0000 0.70770  0.94730  0.48479  Biso   1.000  C
  C8       1.0000 0.79230  0.44730  0.01521  Biso   1.000  C
  C9       1.0000 0.18760  0.94540  0.52229  Biso   1.000  C
  C10      1.0000 0.31240  0.44540  0.97771  Biso   1.000  C
  C11      1.0000 0.81240  0.05460  0.47771  Biso   1.000  C
  C12      1.0000 0.68760  0.55460  0.02229  Biso   1.000  C
  H1       1.0000 0.14000  0.88890  0.48090  Biso   1.000  H
  H2       1.0000 0.36000  0.38890  0.01910  Biso   1.000  H
  H3       1.0000 0.86000  0.11110  0.51910  Biso   1.000  H
  H4       1.0000 0.64000  0.61110  0.98090  Biso   1.000  H
  C13      1.0000 0.15610  0.92490  0.59309  Biso   1.000  C
  C14      1.0000 0.34390  0.42490  0.90691  Biso   1.000  C
  C15      1.0000 0.84390  0.07510  0.40691  Biso   1.000  C
  C16      1.0000 0.65610  0.57510  0.09309  Biso   1.000  C
  H5       1.0000 0.08610  0.85370  0.59960  Biso   1.000  H
  H6       1.0000 0.41390  0.35370  0.90040  Biso   1.000  H
  H7       1.0000 0.91390  0.14630  0.40040  Biso   1.000  H
  H8       1.0000 0.58610  0.64630  0.09960  Biso   1.000  H
  C17      1.0000 0.22850  0.01020  0.65463  Biso   1.000  C
  C18      1.0000 0.27150  0.51020  0.84537  Biso   1.000  C
  C19      1.0000 0.77150  0.98980  0.34537  Biso   1.000  C
  C20      1.0000 0.72850  0.48980  0.15463  Biso   1.000  C
  H9       1.0000 0.20810  0.99590  0.70230  Biso   1.000  H
  H10      1.0000 0.29190  0.49590  0.79770  Biso   1.000  H
  H11      1.0000 0.79190  0.00410  0.29770  Biso   1.000  H
  H12      1.0000 0.70810  0.50410  0.20230  Biso   1.000  H
  C21      1.0000 0.33100  0.11650  0.64339  Biso   1.000  C
  C22      1.0000 0.16900  0.61650  0.85661  Biso   1.000  C
  C23      1.0000 0.66900  0.88350  0.35661  Biso   1.000  C
  C24      1.0000 0.83100  0.38350  0.14339  Biso   1.000  C
  C25      1.0000 0.42310  0.22100  0.70155  Biso   1.000  C
  C26      1.0000 0.07690  0.72100  0.79845  Biso   1.000  C
  C27      1.0000 0.57690  0.77900  0.29845  Biso   1.000  C
  C28      1.0000 0.92310  0.27900  0.20155  Biso   1.000  C
  C29      1.0000 0.70720  0.44470  0.50217  Biso   1.000  C
  C30      1.0000 0.79280  0.94470  0.99783  Biso   1.000  C
  C31      1.0000 0.29280  0.55530  0.49783  Biso   1.000  C
  C32      1.0000 0.20720  0.05530  0.00217  Biso   1.000  C
  C33      1.0000 0.85980  0.47440  0.50194  Biso   1.000  C
  C34      1.0000 0.64020  0.97440  0.99806  Biso   1.000  C
  C35      1.0000 0.14020  0.52560  0.49806  Biso   1.000  C
  C36      1.0000 0.35980  0.02560  0.00194  Biso   1.000  C
  C37      1.0000 0.89820  0.53030  0.43669  Biso   1.000  C
  C38      1.0000 0.60180  0.03030  0.06331  Biso   1.000  C
  C39      1.0000 0.10180  0.46970  0.56331  Biso   1.000  C
  C40      1.0000 0.39820  0.96970  0.93669  Biso   1.000  C
  H13      1.0000 0.83010  0.55090  0.39410  Biso   1.000  H
  H14      1.0000 0.66990  0.05090  0.10590  Biso   1.000  H
  H15      1.0000 0.16990  0.44910  0.60590  Biso   1.000  H
  H16      1.0000 0.33010  0.94910  0.89410  Biso   1.000  H
  C41      1.0000 0.96150  0.44450  0.56519  Biso   1.000  C
  C42      1.0000 0.53850  0.94450  0.93481  Biso   1.000  C
  C43      1.0000 0.03850  0.55550  0.43481  Biso   1.000  C
  C44      1.0000 0.46150  0.05550  0.06519  Biso   1.000  C
  H17      1.0000 0.93600  0.40740  0.60910  Biso   1.000  H
  H18      1.0000 0.56400  0.90740  0.89090  Biso   1.000  H
  H19      1.0000 0.06400  0.59260  0.39090  Biso   1.000  H
  H20      1.0000 0.43600  0.09260  0.10910  Biso   1.000  H
  C45      1.0000 0.73370  0.64020  0.70963  Biso   1.000  C
  C46      1.0000 0.76630  0.14020  0.79037  Biso   1.000  C
  C47      1.0000 0.26630  0.35980  0.29037  Biso   1.000  C
  C48      1.0000 0.23370  0.85980  0.20963  Biso   1.000  C
  H21      1.0000 0.77930  0.56760  0.68100  Biso   1.000  H
  H22      1.0000 0.72070  0.06760  0.81900  Biso   1.000  H
  H23      1.0000 0.22070  0.43240  0.31900  Biso   1.000  H
  H24      1.0000 0.27930  0.93240  0.18100  Biso   1.000  H
  H25      1.0000 0.75620  0.61130  0.76200  Biso   1.000  H
  H26      1.0000 0.74380  0.11130  0.73800  Biso   1.000  H
  H27      1.0000 0.24380  0.38870  0.23800  Biso   1.000  H
  H28      1.0000 0.25620  0.88870  0.26200  Biso   1.000  H
  H29      1.0000 0.76490  0.74770  0.70340  Biso   1.000  H
  H30      1.0000 0.73510  0.24770  0.79660  Biso   1.000  H
  H31      1.0000 0.23510  0.25230  0.29660  Biso   1.000  H
  H32      1.0000 0.26490  0.75230  0.20340  Biso   1.000  H
  N5       1.0000 0.58130  0.63080  0.68286  Biso   1.000  N
  N6       1.0000 0.91870  0.13080  0.81714  Biso   1.000  N
  N7       1.0000 0.41870  0.36920  0.31714  Biso   1.000  N
  N8       1.0000 0.08130  0.86920  0.18286  Biso   1.000  N
  H33      1.0000 0.55910  0.67170  0.63170  Biso   1.000  H
  H34      1.0000 0.94090  0.17170  0.86830  Biso   1.000  H
  H35      1.0000 0.44090  0.32830  0.36830  Biso   1.000  H
  H36      1.0000 0.05910  0.82830  0.13170  Biso   1.000  H
  H37      1.0000 0.55350  0.51890  0.68140  Biso   1.000  H
  H38      1.0000 0.94650  0.01890  0.81860  Biso   1.000  H
  H39      1.0000 0.44650  0.48110  0.31860  Biso   1.000  H
  H40      1.0000 0.05350  0.98110  0.18140  Biso   1.000  H
  C49      1.0000 0.49940  0.71850  0.72830  Biso   1.000  C
  C50      1.0000 0.00060  0.21850  0.77170  Biso   1.000  C
  C51      1.0000 0.50060  0.28150  0.27170  Biso   1.000  C
  C52      1.0000 0.99940  0.78150  0.22830  Biso   1.000  C
  H41      1.0000 0.40260  0.71490  0.70460  Biso   1.000  H
  H42      1.0000 0.09740  0.21490  0.79540  Biso   1.000  H
  H43      1.0000 0.59740  0.28510  0.29540  Biso   1.000  H
  H44      1.0000 0.90260  0.78510  0.20460  Biso   1.000  H
  H45      1.0000 0.53020  0.82810  0.73310  Biso   1.000  H
  H46      1.0000 0.96980  0.32810  0.76690  Biso   1.000  H
  H47      1.0000 0.46980  0.17190  0.26690  Biso   1.000  H
  H48      1.0000 0.03020  0.67190  0.23310  Biso   1.000  H
  H49      1.0000 0.51140  0.67050  0.77740  Biso   1.000  H
  H50      1.0000 0.98860  0.17050  0.72260  Biso   1.000  H
  H51      1.0000 0.48860  0.32950  0.22260  Biso   1.000  H
  H52      1.0000 0.01140  0.82950  0.27740  Biso   1.000  H
