data_image0
_cell_length_a       11.8517
_cell_length_b       11.7867
_cell_length_c       9.6046
_cell_angle_alpha    90
_cell_angle_beta     102.929
_cell_angle_gamma    90

_symmetry_space_group_name_H-M    "P 1"
_symmetry_int_tables_number       1

loop_
  _symmetry_equiv_pos_as_xyz
  'x, y, z'

loop_
  _atom_site_label
  _atom_site_occupancy
  _atom_site_fract_x
  _atom_site_fract_y
  _atom_site_fract_z
  _atom_site_thermal_displace_type
  _atom_site_B_iso_or_equiv
  _atom_site_type_symbol
  Cu1      1.0000 0.19602  0.90885  0.13079  Biso   1.000  Cu
  Cu2      1.0000 0.19602  0.59115  0.63079  Biso   1.000  Cu
  Cu3      1.0000 0.80398  0.09115  0.86921  Biso   1.000  Cu
  Cu4      1.0000 0.80398  0.40885  0.36921  Biso   1.000  Cu
  O1       1.0000 0.09180  0.98756  0.22547  Biso   1.000  O
  O2       1.0000 0.09180  0.51244  0.72547  Biso   1.000  O
  O3       1.0000 0.90820  0.01244  0.77453  Biso   1.000  O
  O4       1.0000 0.90820  0.48756  0.27453  Biso   1.000  O
  O5       1.0000 0.28667  0.84338  0.00097  Biso   1.000  O
  O6       1.0000 0.28667  0.65662  0.50097  Biso   1.000  O
  O7       1.0000 0.71333  0.15662  0.99903  Biso   1.000  O
  O8       1.0000 0.71333  0.34338  0.49903  Biso   1.000  O
  O9       1.0000 0.27627  0.72542  0.81727  Biso   1.000  O
  O10      1.0000 0.27627  0.77458  0.31727  Biso   1.000  O
  O11      1.0000 0.72373  0.27458  0.18273  Biso   1.000  O
  O12      1.0000 0.72373  0.22542  0.68273  Biso   1.000  O
  N1       1.0000 0.07128  0.81933  0.01678  Biso   1.000  N
  N2       1.0000 0.07128  0.68067  0.51678  Biso   1.000  N
  N3       1.0000 0.92872  0.18067  0.98322  Biso   1.000  N
  N4       1.0000 0.92872  0.31933  0.48322  Biso   1.000  N
  N5       1.0000 0.32611  0.01423  0.21880  Biso   1.000  N
  N6       1.0000 0.32611  0.48577  0.71880  Biso   1.000  N
  N7       1.0000 0.67389  0.98577  0.78120  Biso   1.000  N
  N8       1.0000 0.67389  0.51423  0.28120  Biso   1.000  N
  C1       1.0000 0.91690  0.88240  0.12520  Biso   1.000  C
  C2       1.0000 0.91690  0.61760  0.62520  Biso   1.000  C
  C3       1.0000 0.08310  0.11760  0.87480  Biso   1.000  C
  C4       1.0000 0.08310  0.38240  0.37480  Biso   1.000  C
  C5       1.0000 0.98350  0.96307  0.22010  Biso   1.000  C
  C6       1.0000 0.98350  0.53693  0.72010  Biso   1.000  C
  C7       1.0000 0.01650  0.03693  0.77990  Biso   1.000  C
  C8       1.0000 0.01650  0.46307  0.27990  Biso   1.000  C
  C9       1.0000 0.92550  0.01880  0.31530  Biso   1.000  C
  C10      1.0000 0.92550  0.48120  0.81530  Biso   1.000  C
  C11      1.0000 0.07450  0.98120  0.68470  Biso   1.000  C
  C12      1.0000 0.07450  0.51880  0.18470  Biso   1.000  C
  H1       1.0000 0.96510  0.07360  0.37710  Biso   1.000  H
  H2       1.0000 0.96510  0.42640  0.87710  Biso   1.000  H
  H3       1.0000 0.03490  0.92640  0.62290  Biso   1.000  H
  H4       1.0000 0.03490  0.57360  0.12290  Biso   1.000  H
  C13      1.0000 0.81310  0.99420  0.31860  Biso   1.000  C
  C14      1.0000 0.81310  0.50580  0.81860  Biso   1.000  C
  C15      1.0000 0.18690  0.00580  0.68140  Biso   1.000  C
  C16      1.0000 0.18690  0.49420  0.18140  Biso   1.000  C
  H5       1.0000 0.77840  0.03220  0.38290  Biso   1.000  H
  H6       1.0000 0.77840  0.46780  0.88290  Biso   1.000  H
  H7       1.0000 0.22160  0.96780  0.61710  Biso   1.000  H
  H8       1.0000 0.22160  0.53220  0.11710  Biso   1.000  H
  C17      1.0000 0.74990  0.91350  0.22770  Biso   1.000  C
  C18      1.0000 0.74990  0.58650  0.72770  Biso   1.000  C
  C19      1.0000 0.25010  0.08650  0.77230  Biso   1.000  C
  C20      1.0000 0.25010  0.41350  0.27230  Biso   1.000  C
  H9       1.0000 0.67400  0.89670  0.23170  Biso   1.000  H
  H10      1.0000 0.67400  0.60330  0.73170  Biso   1.000  H
  H11      1.0000 0.32600  0.10330  0.76830  Biso   1.000  H
  H12      1.0000 0.32600  0.39670  0.26830  Biso   1.000  H
  C21      1.0000 0.80170  0.85920  0.13240  Biso   1.000  C
  C22      1.0000 0.80170  0.64080  0.63240  Biso   1.000  C
  C23      1.0000 0.19830  0.14080  0.86760  Biso   1.000  C
  C24      1.0000 0.19830  0.35920  0.36760  Biso   1.000  C
  H13      1.0000 0.75970  0.80570  0.07070  Biso   1.000  H
  H14      1.0000 0.75970  0.69430  0.57070  Biso   1.000  H
  H15      1.0000 0.24030  0.19430  0.92930  Biso   1.000  H
  H16      1.0000 0.24030  0.30570  0.42930  Biso   1.000  H
  C25      1.0000 0.96450  0.81920  0.02330  Biso   1.000  C
  C26      1.0000 0.96450  0.68080  0.52330  Biso   1.000  C
  C27      1.0000 0.03550  0.18080  0.97670  Biso   1.000  C
  C28      1.0000 0.03550  0.31920  0.47670  Biso   1.000  C
  H17      1.0000 0.91380  0.77500  0.95720  Biso   1.000  H
  H18      1.0000 0.91380  0.72500  0.45720  Biso   1.000  H
  H19      1.0000 0.08620  0.22500  0.04280  Biso   1.000  H
  H20      1.0000 0.08620  0.27500  0.54280  Biso   1.000  H
  C29      1.0000 0.10770  0.74990  0.90910  Biso   1.000  C
  C30      1.0000 0.10770  0.75010  0.40910  Biso   1.000  C
  C31      1.0000 0.89230  0.25010  0.09090  Biso   1.000  C
  C32      1.0000 0.89230  0.24990  0.59090  Biso   1.000  C
  H21      1.0000 0.05870  0.76590  0.81590  Biso   1.000  H
  H22      1.0000 0.05870  0.73410  0.31590  Biso   1.000  H
  H23      1.0000 0.94130  0.23410  0.18410  Biso   1.000  H
  H24      1.0000 0.94130  0.26590  0.68410  Biso   1.000  H
  H25      1.0000 0.09910  0.67020  0.93000  Biso   1.000  H
  H26      1.0000 0.09910  0.82980  0.43000  Biso   1.000  H
  H27      1.0000 0.90090  0.32980  0.07000  Biso   1.000  H
  H28      1.0000 0.90090  0.17020  0.57000  Biso   1.000  H
  C33      1.0000 0.23300  0.77428  0.90680  Biso   1.000  C
  C34      1.0000 0.23300  0.72572  0.40680  Biso   1.000  C
  C35      1.0000 0.76700  0.22572  0.09320  Biso   1.000  C
  C36      1.0000 0.76700  0.27428  0.59320  Biso   1.000  C
  C37      1.0000 0.33230  0.05860  0.34880  Biso   1.000  C
  C38      1.0000 0.33230  0.44140  0.84880  Biso   1.000  C
  C39      1.0000 0.66770  0.94140  0.65120  Biso   1.000  C
  C40      1.0000 0.66770  0.55860  0.15120  Biso   1.000  C
  H29      1.0000 0.27460  0.04090  0.39690  Biso   1.000  H
  H30      1.0000 0.27460  0.45910  0.89690  Biso   1.000  H
  H31      1.0000 0.72540  0.95910  0.60310  Biso   1.000  H
  H32      1.0000 0.72540  0.54090  0.10310  Biso   1.000  H
  C41      1.0000 0.42110  0.12950  0.41410  Biso   1.000  C
  C42      1.0000 0.42110  0.37050  0.91410  Biso   1.000  C
  C43      1.0000 0.57890  0.87050  0.58590  Biso   1.000  C
  C44      1.0000 0.57890  0.62950  0.08590  Biso   1.000  C
  H33      1.0000 0.42430  0.15690  0.50570  Biso   1.000  H
  H34      1.0000 0.42430  0.34310  0.00570  Biso   1.000  H
  H35      1.0000 0.57570  0.84310  0.49430  Biso   1.000  H
  H36      1.0000 0.57570  0.65690  0.99430  Biso   1.000  H
  C45      1.0000 0.50520  0.15930  0.34190  Biso   1.000  C
  C46      1.0000 0.50520  0.34070  0.84190  Biso   1.000  C
  C47      1.0000 0.49480  0.84070  0.65810  Biso   1.000  C
  C48      1.0000 0.49480  0.65930  0.15810  Biso   1.000  C
  H37      1.0000 0.56470  0.20860  0.38280  Biso   1.000  H
  H38      1.0000 0.56470  0.29140  0.88280  Biso   1.000  H
  H39      1.0000 0.43530  0.79140  0.61720  Biso   1.000  H
  H40      1.0000 0.43530  0.70860  0.11720  Biso   1.000  H
  C49      1.0000 0.49940  0.11460  0.20840  Biso   1.000  C
  C50      1.0000 0.49940  0.38540  0.70840  Biso   1.000  C
  C51      1.0000 0.50060  0.88540  0.79160  Biso   1.000  C
  C52      1.0000 0.50060  0.61460  0.29160  Biso   1.000  C
  H41      1.0000 0.55490  0.13310  0.15740  Biso   1.000  H
  H42      1.0000 0.55490  0.36690  0.65740  Biso   1.000  H
  H43      1.0000 0.44510  0.86690  0.84260  Biso   1.000  H
  H44      1.0000 0.44510  0.63310  0.34260  Biso   1.000  H
  C53      1.0000 0.40980  0.04210  0.15120  Biso   1.000  C
  C54      1.0000 0.40980  0.45790  0.65120  Biso   1.000  C
  C55      1.0000 0.59020  0.95790  0.84880  Biso   1.000  C
  C56      1.0000 0.59020  0.54210  0.34880  Biso   1.000  C
  H45      1.0000 0.40720  0.01110  0.06160  Biso   1.000  H
  H46      1.0000 0.40720  0.48890  0.56160  Biso   1.000  H
  H47      1.0000 0.59280  0.98890  0.93840  Biso   1.000  H
  H48      1.0000 0.59280  0.51110  0.43840  Biso   1.000  H
