data_image0
_cell_length_a       9.431
_cell_length_b       8.6523
_cell_length_c       10.128
_cell_angle_alpha    90
_cell_angle_beta     99.879
_cell_angle_gamma    90

_symmetry_space_group_name_H-M    "P 1"
_symmetry_int_tables_number       1

loop_
  _symmetry_equiv_pos_as_xyz
  'x, y, z'

loop_
  _atom_site_label
  _atom_site_occupancy
  _atom_site_fract_x
  _atom_site_fract_y
  _atom_site_fract_z
  _atom_site_thermal_displace_type
  _atom_site_B_iso_or_equiv
  _atom_site_type_symbol
  Cu1      1.0000 0.50000  0.00000  0.00000  Biso   1.000  Cu
  Cu2      1.0000 0.00000  0.50000  0.50000  Biso   1.000  Cu
  O1       1.0000 0.54560  0.21545  0.95032  Biso   1.000  O
  O2       1.0000 0.95440  0.71545  0.54968  Biso   1.000  O
  O3       1.0000 0.45440  0.78455  0.04968  Biso   1.000  O
  O4       1.0000 0.04560  0.28455  0.45032  Biso   1.000  O
  O5       1.0000 0.71559  0.27145  0.12671  Biso   1.000  O
  O6       1.0000 0.78441  0.77145  0.37329  Biso   1.000  O
  O7       1.0000 0.28441  0.72855  0.87329  Biso   1.000  O
  O8       1.0000 0.21559  0.22855  0.62671  Biso   1.000  O
  O9       1.0000 0.60489  0.02276  0.24067  Biso   1.000  O
  O10      1.0000 0.89511  0.52276  0.25933  Biso   1.000  O
  O11      1.0000 0.39511  0.97724  0.75933  Biso   1.000  O
  O12      1.0000 0.10489  0.47724  0.74067  Biso   1.000  O
  N1       1.0000 0.81083  0.42655  0.54683  Biso   1.000  N
  N2       1.0000 0.68917  0.92655  0.95317  Biso   1.000  N
  N3       1.0000 0.18917  0.57345  0.45317  Biso   1.000  N
  N4       1.0000 0.31083  0.07345  0.04683  Biso   1.000  N
  C1       1.0000 0.76536  0.47680  0.65842  Biso   1.000  C
  C2       1.0000 0.73464  0.97680  0.84158  Biso   1.000  C
  C3       1.0000 0.23464  0.52320  0.34158  Biso   1.000  C
  C4       1.0000 0.26536  0.02320  0.15842  Biso   1.000  C
  C5       1.0000 0.63525  0.43070  0.69329  Biso   1.000  C
  C6       1.0000 0.86475  0.93070  0.80671  Biso   1.000  C
  C7       1.0000 0.36475  0.56930  0.30671  Biso   1.000  C
  C8       1.0000 0.13525  0.06930  0.19329  Biso   1.000  C
  C9       1.0000 0.55058  0.32870  0.60867  Biso   1.000  C
  C10      1.0000 0.94942  0.82870  0.89133  Biso   1.000  C
  C11      1.0000 0.44942  0.67130  0.39133  Biso   1.000  C
  C12      1.0000 0.05058  0.17130  0.10867  Biso   1.000  C
  C13      1.0000 0.59620  0.27740  0.49340  Biso   1.000  C
  C14      1.0000 0.90380  0.77740  0.00660  Biso   1.000  C
  C15      1.0000 0.40380  0.72260  0.50660  Biso   1.000  C
  C16      1.0000 0.09620  0.22260  0.99340  Biso   1.000  C
  C17      1.0000 0.72711  0.32890  0.46595  Biso   1.000  C
  C18      1.0000 0.77289  0.82890  0.03405  Biso   1.000  C
  C19      1.0000 0.27289  0.67110  0.53405  Biso   1.000  C
  C20      1.0000 0.22711  0.17110  0.96595  Biso   1.000  C
  C21      1.0000 0.58640  0.49800  0.81568  Biso   1.000  C
  C22      1.0000 0.91360  0.99800  0.68432  Biso   1.000  C
  C23      1.0000 0.41360  0.50200  0.18432  Biso   1.000  C
  C24      1.0000 0.08640  0.00200  0.31568  Biso   1.000  C
  C25      1.0000 0.67580  0.45310  0.95040  Biso   1.000  C
  C26      1.0000 0.82420  0.95310  0.54960  Biso   1.000  C
  C27      1.0000 0.32420  0.54690  0.04960  Biso   1.000  C
  C28      1.0000 0.17580  0.04690  0.45040  Biso   1.000  C
  C29      1.0000 0.64342  0.30061  0.01355  Biso   1.000  C
  C30      1.0000 0.85658  0.80061  0.48645  Biso   1.000  C
  C31      1.0000 0.35658  0.69939  0.98645  Biso   1.000  C
  C32      1.0000 0.14342  0.19939  0.51355  Biso   1.000  C
  H1       1.0000 0.82800  0.54800  0.71400  Biso   1.000  H
  H2       1.0000 0.67200  0.04800  0.78600  Biso   1.000  H
  H3       1.0000 0.17200  0.45200  0.28600  Biso   1.000  H
  H4       1.0000 0.32800  0.95200  0.21400  Biso   1.000  H
  H5       1.0000 0.46200  0.29300  0.63300  Biso   1.000  H
  H6       1.0000 0.03800  0.79300  0.86700  Biso   1.000  H
  H7       1.0000 0.53800  0.70700  0.36700  Biso   1.000  H
  H8       1.0000 0.96200  0.20700  0.13300  Biso   1.000  H
  H9       1.0000 0.54000  0.20600  0.43200  Biso   1.000  H
  H10      1.0000 0.96000  0.70600  0.06800  Biso   1.000  H
  H11      1.0000 0.46000  0.79400  0.56800  Biso   1.000  H
  H12      1.0000 0.04000  0.29400  0.93200  Biso   1.000  H
  H13      1.0000 0.75900  0.29800  0.38500  Biso   1.000  H
  H14      1.0000 0.74100  0.79800  0.11500  Biso   1.000  H
  H15      1.0000 0.24100  0.70200  0.61500  Biso   1.000  H
  H16      1.0000 0.25900  0.20200  0.88500  Biso   1.000  H
  H17      1.0000 0.49000  0.46500  0.81200  Biso   1.000  H
  H18      1.0000 0.01000  0.96500  0.68800  Biso   1.000  H
  H19      1.0000 0.51000  0.53500  0.18800  Biso   1.000  H
  H20      1.0000 0.99000  0.03500  0.31200  Biso   1.000  H
  H21      1.0000 0.59100  0.61100  0.80700  Biso   1.000  H
  H22      1.0000 0.90900  0.11100  0.69300  Biso   1.000  H
  H23      1.0000 0.40900  0.38900  0.19300  Biso   1.000  H
  H24      1.0000 0.09100  0.88900  0.30700  Biso   1.000  H
  H25      1.0000 0.66400  0.53400  0.01200  Biso   1.000  H
  H26      1.0000 0.83600  0.03400  0.48800  Biso   1.000  H
  H27      1.0000 0.33600  0.46600  0.98800  Biso   1.000  H
  H28      1.0000 0.16400  0.96600  0.51200  Biso   1.000  H
  H29      1.0000 0.77600  0.45000  0.94500  Biso   1.000  H
  H30      1.0000 0.72400  0.95000  0.55500  Biso   1.000  H
  H31      1.0000 0.22400  0.55000  0.05500  Biso   1.000  H
  H32      1.0000 0.27600  0.05000  0.44500  Biso   1.000  H
  H33      1.0000 0.65700  0.95500  0.27400  Biso   1.000  H
  H34      1.0000 0.84300  0.45500  0.22600  Biso   1.000  H
  H35      1.0000 0.34300  0.04500  0.72600  Biso   1.000  H
  H36      1.0000 0.15700  0.54500  0.77400  Biso   1.000  H
  H37      1.0000 0.65400  0.09700  0.22000  Biso   1.000  H
  H38      1.0000 0.84600  0.59700  0.28000  Biso   1.000  H
  H39      1.0000 0.34600  0.90300  0.78000  Biso   1.000  H
  H40      1.0000 0.15400  0.40300  0.72000  Biso   1.000  H
