data_image0
_cell_length_a       8.589
_cell_length_b       17.585
_cell_length_c       9.479
_cell_angle_alpha    90
_cell_angle_beta     115.69
_cell_angle_gamma    90

_symmetry_space_group_name_H-M    "P 1"
_symmetry_int_tables_number       1

loop_
  _symmetry_equiv_pos_as_xyz
  'x, y, z'

loop_
  _atom_site_label
  _atom_site_occupancy
  _atom_site_fract_x
  _atom_site_fract_y
  _atom_site_fract_z
  _atom_site_thermal_displace_type
  _atom_site_B_iso_or_equiv
  _atom_site_type_symbol
  Cu1      1.0000 0.68077  0.29450  0.27034  Biso   1.000  Cu
  Cu2      1.0000 0.68077  0.20550  0.77034  Biso   1.000  Cu
  Cu3      1.0000 0.31923  0.70550  0.72966  Biso   1.000  Cu
  Cu4      1.0000 0.31923  0.79450  0.22966  Biso   1.000  Cu
  S1       1.0000 0.85727  0.43945  0.20767  Biso   1.000  S
  S2       1.0000 0.85727  0.06055  0.70767  Biso   1.000  S
  S3       1.0000 0.14273  0.56055  0.79233  Biso   1.000  S
  S4       1.0000 0.14273  0.93945  0.29233  Biso   1.000  S
  O1       1.0000 0.82240  0.35685  0.20070  Biso   1.000  O
  O2       1.0000 0.82240  0.14315  0.70070  Biso   1.000  O
  O3       1.0000 0.17760  0.64315  0.79930  Biso   1.000  O
  O4       1.0000 0.17760  0.85685  0.29930  Biso   1.000  O
  O5       1.0000 0.75770  0.47527  0.05960  Biso   1.000  O
  O6       1.0000 0.75770  0.02473  0.55960  Biso   1.000  O
  O7       1.0000 0.24230  0.52473  0.94040  Biso   1.000  O
  O8       1.0000 0.24230  0.97527  0.44040  Biso   1.000  O
  O9       1.0000 0.04110  0.45376  0.27270  Biso   1.000  O
  O10      1.0000 0.04110  0.04624  0.77270  Biso   1.000  O
  O11      1.0000 0.95890  0.54624  0.72730  Biso   1.000  O
  O12      1.0000 0.95890  0.95376  0.22730  Biso   1.000  O
  O13      1.0000 0.57050  0.21826  0.33270  Biso   1.000  O
  O14      1.0000 0.57050  0.28174  0.83270  Biso   1.000  O
  O15      1.0000 0.42950  0.78174  0.66730  Biso   1.000  O
  O16      1.0000 0.42950  0.71826  0.16730  Biso   1.000  O
  O17      1.0000 0.99050  0.29446  0.55980  Biso   1.000  O
  O18      1.0000 0.99050  0.20554  0.05980  Biso   1.000  O
  O19      1.0000 0.00950  0.70554  0.44020  Biso   1.000  O
  O20      1.0000 0.00950  0.79446  0.94020  Biso   1.000  O
  O21      1.0000 0.77920  0.21035  0.20500  Biso   1.000  O
  O22      1.0000 0.77920  0.28965  0.70500  Biso   1.000  O
  O23      1.0000 0.22080  0.78965  0.79500  Biso   1.000  O
  O24      1.0000 0.22080  0.71035  0.29500  Biso   1.000  O
  O25      1.0000 0.75090  0.06476  0.26390  Biso   1.000  O
  O26      1.0000 0.75090  0.43524  0.76390  Biso   1.000  O
  O27      1.0000 0.24910  0.93524  0.73610  Biso   1.000  O
  O28      1.0000 0.24910  0.56476  0.23610  Biso   1.000  O
  N1       1.0000 0.56780  0.37876  0.32500  Biso   1.000  N
  N2       1.0000 0.56780  0.12124  0.82500  Biso   1.000  N
  N3       1.0000 0.43220  0.62124  0.67500  Biso   1.000  N
  N4       1.0000 0.43220  0.87876  0.17500  Biso   1.000  N
  C1       1.0000 0.78450  0.47539  0.34180  Biso   1.000  C
  C2       1.0000 0.78450  0.02461  0.84180  Biso   1.000  C
  C3       1.0000 0.21550  0.52461  0.65820  Biso   1.000  C
  C4       1.0000 0.21550  0.97539  0.15820  Biso   1.000  C
  H1       1.0000 0.85230  0.45310  0.44400  Biso   1.000  H
  H2       1.0000 0.85230  0.04690  0.94400  Biso   1.000  H
  H3       1.0000 0.14770  0.54690  0.55600  Biso   1.000  H
  H4       1.0000 0.14770  0.95310  0.05600  Biso   1.000  H
  H5       1.0000 0.80220  0.53000  0.35090  Biso   1.000  H
  H6       1.0000 0.80220  0.97000  0.85090  Biso   1.000  H
  H7       1.0000 0.19780  0.47000  0.64910  Biso   1.000  H
  H8       1.0000 0.19780  0.03000  0.14910  Biso   1.000  H
  C5       1.0000 0.59690  0.45848  0.29260  Biso   1.000  C
  C6       1.0000 0.59690  0.04152  0.79260  Biso   1.000  C
  C7       1.0000 0.40310  0.54152  0.70740  Biso   1.000  C
  C8       1.0000 0.40310  0.95848  0.20740  Biso   1.000  C
  H9       1.0000 0.55290  0.49220  0.34780  Biso   1.000  H
  H10      1.0000 0.55290  0.00780  0.84780  Biso   1.000  H
  H11      1.0000 0.44710  0.50780  0.65220  Biso   1.000  H
  H12      1.0000 0.44710  0.99220  0.15220  Biso   1.000  H
  H13      1.0000 0.53290  0.46840  0.18140  Biso   1.000  H
  H14      1.0000 0.53290  0.03160  0.68140  Biso   1.000  H
  H15      1.0000 0.46710  0.53160  0.81860  Biso   1.000  H
  H16      1.0000 0.46710  0.96840  0.31860  Biso   1.000  H
  C9       1.0000 0.45240  0.36867  0.37510  Biso   1.000  C
  C10      1.0000 0.45240  0.13133  0.87510  Biso   1.000  C
  C11      1.0000 0.54760  0.63133  0.62490  Biso   1.000  C
  C12      1.0000 0.54760  0.86867  0.12490  Biso   1.000  C
  H17      1.0000 0.40380  0.41240  0.39440  Biso   1.000  H
  H18      1.0000 0.40380  0.08760  0.89440  Biso   1.000  H
  H19      1.0000 0.59620  0.58760  0.60560  Biso   1.000  H
  H20      1.0000 0.59620  0.91240  0.10560  Biso   1.000  H
  C13      1.0000 0.38960  0.29738  0.40490  Biso   1.000  C
  C14      1.0000 0.38960  0.20262  0.90490  Biso   1.000  C
  C15      1.0000 0.61040  0.70262  0.59510  Biso   1.000  C
  C16      1.0000 0.61040  0.79738  0.09510  Biso   1.000  C
  C17      1.0000 0.45350  0.22545  0.38310  Biso   1.000  C
  C18      1.0000 0.45350  0.27455  0.88310  Biso   1.000  C
  C19      1.0000 0.54650  0.77455  0.61690  Biso   1.000  C
  C20      1.0000 0.54650  0.72545  0.11690  Biso   1.000  C
  C21      1.0000 0.38520  0.15931  0.41960  Biso   1.000  C
  C22      1.0000 0.38520  0.34069  0.91960  Biso   1.000  C
  C23      1.0000 0.61480  0.84069  0.58040  Biso   1.000  C
  C24      1.0000 0.61480  0.65931  0.08040  Biso   1.000  C
  H21      1.0000 0.42710  0.11190  0.40920  Biso   1.000  H
  H22      1.0000 0.42710  0.38810  0.90920  Biso   1.000  H
  H23      1.0000 0.57290  0.88810  0.59080  Biso   1.000  H
  H24      1.0000 0.57290  0.61190  0.09080  Biso   1.000  H
  C25      1.0000 0.25900  0.16365  0.46980  Biso   1.000  C
  C26      1.0000 0.25900  0.33635  0.96980  Biso   1.000  C
  C27      1.0000 0.74100  0.83635  0.53020  Biso   1.000  C
  C28      1.0000 0.74100  0.66365  0.03020  Biso   1.000  C
  H25      1.0000 0.21420  0.11910  0.49060  Biso   1.000  H
  H26      1.0000 0.21420  0.38090  0.99060  Biso   1.000  H
  H27      1.0000 0.78580  0.88090  0.50940  Biso   1.000  H
  H28      1.0000 0.78580  0.61910  0.00940  Biso   1.000  H
  C29      1.0000 0.19470  0.23476  0.49080  Biso   1.000  C
  C30      1.0000 0.19470  0.26524  0.99080  Biso   1.000  C
  C31      1.0000 0.80530  0.76524  0.50920  Biso   1.000  C
  C32      1.0000 0.80530  0.73476  0.00920  Biso   1.000  C
  C33      1.0000 0.26220  0.29984  0.45830  Biso   1.000  C
  C34      1.0000 0.26220  0.20016  0.95830  Biso   1.000  C
  C35      1.0000 0.73780  0.70016  0.54170  Biso   1.000  C
  C36      1.0000 0.73780  0.79984  0.04170  Biso   1.000  C
  H29      1.0000 0.22140  0.34680  0.47260  Biso   1.000  H
  H30      1.0000 0.22140  0.15320  0.97260  Biso   1.000  H
  H31      1.0000 0.77860  0.65320  0.52740  Biso   1.000  H
  H32      1.0000 0.77860  0.84680  0.02740  Biso   1.000  H
  C37      1.0000 0.05920  0.23707  0.54430  Biso   1.000  C
  C38      1.0000 0.05920  0.26293  0.04430  Biso   1.000  C
  C39      1.0000 0.94080  0.76293  0.45570  Biso   1.000  C
  C40      1.0000 0.94080  0.73707  0.95570  Biso   1.000  C
  H33      1.0000 0.83200  0.04000  0.26700  Biso   1.000  H
  H34      1.0000 0.83200  0.46000  0.76700  Biso   1.000  H
  H35      1.0000 0.16800  0.96000  0.73300  Biso   1.000  H
  H36      1.0000 0.16800  0.54000  0.23300  Biso   1.000  H
  H37      1.0000 0.76500  0.06300  0.35500  Biso   1.000  H
  H38      1.0000 0.76500  0.43700  0.85500  Biso   1.000  H
  H39      1.0000 0.23500  0.93700  0.64500  Biso   1.000  H
  H40      1.0000 0.23500  0.56300  0.14500  Biso   1.000  H
  H41      1.0000 0.84300  0.21000  0.16300  Biso   1.000  H
  H42      1.0000 0.84300  0.29000  0.66300  Biso   1.000  H
  H43      1.0000 0.15700  0.79000  0.83700  Biso   1.000  H
  H44      1.0000 0.15700  0.71000  0.33700  Biso   1.000  H
  H45      1.0000 0.76700  0.16590  0.22200  Biso   1.000  H
  H46      1.0000 0.76700  0.33410  0.72200  Biso   1.000  H
  H47      1.0000 0.23300  0.83410  0.77800  Biso   1.000  H
  H48      1.0000 0.23300  0.66590  0.27800  Biso   1.000  H
  H49      1.0000 0.01600  0.18750  0.57200  Biso   1.000  H
  H50      1.0000 0.01600  0.31250  0.07200  Biso   1.000  H
  H51      1.0000 0.98400  0.81250  0.42800  Biso   1.000  H
  H52      1.0000 0.98400  0.68750  0.92800  Biso   1.000  H
