data_image0
_cell_length_a       9.4199
_cell_length_b       8.6557
_cell_length_c       10.1261
_cell_angle_alpha    90
_cell_angle_beta     99.872
_cell_angle_gamma    90

_symmetry_space_group_name_H-M    "P 1"
_symmetry_int_tables_number       1

loop_
  _symmetry_equiv_pos_as_xyz
  'x, y, z'

loop_
  _atom_site_label
  _atom_site_occupancy
  _atom_site_fract_x
  _atom_site_fract_y
  _atom_site_fract_z
  _atom_site_thermal_displace_type
  _atom_site_B_iso_or_equiv
  _atom_site_type_symbol
  Cu1      1.0000 0.00000  0.00000  0.50000  Biso   1.000  Cu
  Cu2      1.0000 0.50000  0.50000  0.00000  Biso   1.000  Cu
  O1       1.0000 0.95412  0.21538  0.54973  Biso   1.000  O
  O2       1.0000 0.45412  0.28462  0.04973  Biso   1.000  O
  O3       1.0000 0.04588  0.78462  0.45027  Biso   1.000  O
  O4       1.0000 0.54588  0.71538  0.95027  Biso   1.000  O
  O5       1.0000 0.78469  0.27134  0.37361  Biso   1.000  O
  O6       1.0000 0.28469  0.22866  0.87361  Biso   1.000  O
  O7       1.0000 0.21531  0.72866  0.62639  Biso   1.000  O
  O8       1.0000 0.71531  0.77134  0.12639  Biso   1.000  O
  O9       1.0000 0.10560  0.97710  0.74057  Biso   1.000  O
  O10      1.0000 0.60560  0.52290  0.24057  Biso   1.000  O
  O11      1.0000 0.89440  0.02290  0.25943  Biso   1.000  O
  O12      1.0000 0.39440  0.47710  0.75943  Biso   1.000  O
  N1       1.0000 0.68873  0.42640  0.95299  Biso   1.000  N
  N2       1.0000 0.18873  0.07360  0.45299  Biso   1.000  N
  N3       1.0000 0.31127  0.57360  0.04701  Biso   1.000  N
  N4       1.0000 0.81127  0.92640  0.54701  Biso   1.000  N
  C1       1.0000 0.85650  0.30020  0.48610  Biso   1.000  C
  C2       1.0000 0.35650  0.19980  0.98610  Biso   1.000  C
  C3       1.0000 0.14350  0.69980  0.51390  Biso   1.000  C
  C4       1.0000 0.64350  0.80020  0.01390  Biso   1.000  C
  C5       1.0000 0.82470  0.45280  0.55010  Biso   1.000  C
  C6       1.0000 0.32470  0.04720  0.05010  Biso   1.000  C
  C7       1.0000 0.17530  0.54720  0.44990  Biso   1.000  C
  C8       1.0000 0.67530  0.95280  0.94990  Biso   1.000  C
  C9       1.0000 0.91400  0.49750  0.68460  Biso   1.000  C
  C10      1.0000 0.41400  0.00250  0.18460  Biso   1.000  C
  C11      1.0000 0.08600  0.50250  0.31540  Biso   1.000  C
  C12      1.0000 0.58600  0.99750  0.81540  Biso   1.000  C
  C13      1.0000 0.86470  0.43020  0.80670  Biso   1.000  C
  C14      1.0000 0.36470  0.06980  0.30670  Biso   1.000  C
  C15      1.0000 0.13530  0.56980  0.19330  Biso   1.000  C
  C16      1.0000 0.63530  0.93020  0.69330  Biso   1.000  C
  C17      1.0000 0.73470  0.47620  0.84190  Biso   1.000  C
  C18      1.0000 0.23470  0.02380  0.34190  Biso   1.000  C
  C19      1.0000 0.26530  0.52380  0.15810  Biso   1.000  C
  C20      1.0000 0.76530  0.97620  0.65810  Biso   1.000  C
  C21      1.0000 0.77270  0.32870  0.03390  Biso   1.000  C
  C22      1.0000 0.27270  0.17130  0.53390  Biso   1.000  C
  C23      1.0000 0.22730  0.67130  0.96610  Biso   1.000  C
  C24      1.0000 0.72730  0.82870  0.46610  Biso   1.000  C
  C25      1.0000 0.90310  0.27760  0.00610  Biso   1.000  C
  C26      1.0000 0.40310  0.22240  0.50610  Biso   1.000  C
  C27      1.0000 0.09690  0.72240  0.99390  Biso   1.000  C
  C28      1.0000 0.59690  0.77760  0.49390  Biso   1.000  C
  C29      1.0000 0.94890  0.32830  0.89120  Biso   1.000  C
  C30      1.0000 0.44890  0.17170  0.39120  Biso   1.000  C
  C31      1.0000 0.05110  0.67170  0.10880  Biso   1.000  C
  C32      1.0000 0.55110  0.82830  0.60880  Biso   1.000  C
  H1       1.0000 0.15900  0.89400  0.71200  Biso   1.000  H
  H2       1.0000 0.65900  0.60600  0.21200  Biso   1.000  H
  H3       1.0000 0.84100  0.10600  0.28800  Biso   1.000  H
  H4       1.0000 0.34100  0.39400  0.78800  Biso   1.000  H
  H5       1.0000 0.16300  0.04400  0.77500  Biso   1.000  H
  H6       1.0000 0.66300  0.45600  0.27500  Biso   1.000  H
  H7       1.0000 0.83700  0.95600  0.22500  Biso   1.000  H
  H8       1.0000 0.33700  0.54400  0.72500  Biso   1.000  H
  H9       1.0000 0.83900  0.53400  0.48300  Biso   1.000  H
  H10      1.0000 0.33900  0.96600  0.98300  Biso   1.000  H
  H11      1.0000 0.16100  0.46600  0.51700  Biso   1.000  H
  H12      1.0000 0.66100  0.03400  0.01700  Biso   1.000  H
  H13      1.0000 0.72400  0.45200  0.55300  Biso   1.000  H
  H14      1.0000 0.22400  0.04800  0.05300  Biso   1.000  H
  H15      1.0000 0.27600  0.54800  0.44700  Biso   1.000  H
  H16      1.0000 0.77600  0.95200  0.94700  Biso   1.000  H
  H17      1.0000 0.91000  0.61000  0.69300  Biso   1.000  H
  H18      1.0000 0.41000  0.89000  0.19300  Biso   1.000  H
  H19      1.0000 0.09000  0.39000  0.30700  Biso   1.000  H
  H20      1.0000 0.59000  0.11000  0.80700  Biso   1.000  H
  H21      1.0000 0.01400  0.46400  0.68600  Biso   1.000  H
  H22      1.0000 0.51400  0.03600  0.18600  Biso   1.000  H
  H23      1.0000 0.98600  0.53600  0.31400  Biso   1.000  H
  H24      1.0000 0.48600  0.96400  0.81400  Biso   1.000  H
  H25      1.0000 0.67000  0.54100  0.78600  Biso   1.000  H
  H26      1.0000 0.17000  0.95900  0.28600  Biso   1.000  H
  H27      1.0000 0.33000  0.45900  0.21400  Biso   1.000  H
  H28      1.0000 0.83000  0.04100  0.71400  Biso   1.000  H
  H29      1.0000 0.74000  0.29500  0.11300  Biso   1.000  H
  H30      1.0000 0.24000  0.20500  0.61300  Biso   1.000  H
  H31      1.0000 0.26000  0.70500  0.88700  Biso   1.000  H
  H32      1.0000 0.76000  0.79500  0.38700  Biso   1.000  H
  H33      1.0000 0.96000  0.21000  0.06400  Biso   1.000  H
  H34      1.0000 0.46000  0.29000  0.56400  Biso   1.000  H
  H35      1.0000 0.04000  0.79000  0.93600  Biso   1.000  H
  H36      1.0000 0.54000  0.71000  0.43600  Biso   1.000  H
  H37      1.0000 0.03900  0.29400  0.87000  Biso   1.000  H
  H38      1.0000 0.53900  0.20600  0.37000  Biso   1.000  H
  H39      1.0000 0.96100  0.70600  0.13000  Biso   1.000  H
  H40      1.0000 0.46100  0.79400  0.63000  Biso   1.000  H
