data_image0
_cell_length_a       7.2587
_cell_length_b       12.396
_cell_length_c       14.428
_cell_angle_alpha    90
_cell_angle_beta     103.87
_cell_angle_gamma    90

_symmetry_space_group_name_H-M    "P 1"
_symmetry_int_tables_number       1

loop_
  _symmetry_equiv_pos_as_xyz
  'x, y, z'

loop_
  _atom_site_label
  _atom_site_occupancy
  _atom_site_fract_x
  _atom_site_fract_y
  _atom_site_fract_z
  _atom_site_thermal_displace_type
  _atom_site_B_iso_or_equiv
  _atom_site_type_symbol
  Cu1      1.0000 0.12302  0.98715  0.28396  Biso   1.000  Cu
  Cu2      1.0000 0.62302  0.51285  0.78396  Biso   1.000  Cu
  Cu3      1.0000 0.87698  0.01285  0.71604  Biso   1.000  Cu
  Cu4      1.0000 0.37698  0.48715  0.21604  Biso   1.000  Cu
  O1       1.0000 0.91130  0.06220  0.19740  Biso   1.000  O
  O2       1.0000 0.41130  0.43780  0.69740  Biso   1.000  O
  O3       1.0000 0.08870  0.93780  0.80260  Biso   1.000  O
  O4       1.0000 0.58870  0.56220  0.30260  Biso   1.000  O
  O5       1.0000 0.80350  0.89900  0.22070  Biso   1.000  O
  O6       1.0000 0.30350  0.60100  0.72070  Biso   1.000  O
  O7       1.0000 0.19650  0.10100  0.77930  Biso   1.000  O
  O8       1.0000 0.69650  0.39900  0.27930  Biso   1.000  O
  O9       1.0000 0.21740  0.93860  0.17380  Biso   1.000  O
  O10      1.0000 0.71740  0.56140  0.67380  Biso   1.000  O
  O11      1.0000 0.78260  0.06140  0.82620  Biso   1.000  O
  O12      1.0000 0.28260  0.43860  0.32620  Biso   1.000  O
  O13      1.0000 0.45050  0.04920  0.24390  Biso   1.000  O
  O14      1.0000 0.95050  0.45080  0.74390  Biso   1.000  O
  O15      1.0000 0.54950  0.95080  0.75610  Biso   1.000  O
  O16      1.0000 0.04950  0.54920  0.25610  Biso   1.000  O
  N1       1.0000 0.12080  0.07300  0.39930  Biso   1.000  N
  N2       1.0000 0.62080  0.42700  0.89930  Biso   1.000  N
  N3       1.0000 0.87920  0.92700  0.60070  Biso   1.000  N
  N4       1.0000 0.37920  0.57300  0.10070  Biso   1.000  N
  N5       1.0000 0.26740  0.88580  0.37950  Biso   1.000  N
  N6       1.0000 0.76740  0.61420  0.87950  Biso   1.000  N
  N7       1.0000 0.73260  0.11420  0.62050  Biso   1.000  N
  N8       1.0000 0.23260  0.38580  0.12050  Biso   1.000  N
  C1       1.0000 0.04000  0.17030  0.40210  Biso   1.000  C
  C2       1.0000 0.54000  0.32970  0.90210  Biso   1.000  C
  C3       1.0000 0.96000  0.82970  0.59790  Biso   1.000  C
  C4       1.0000 0.46000  0.67030  0.09790  Biso   1.000  C
  H1       1.0000 0.97230  0.20110  0.34540  Biso   1.000  H
  H2       1.0000 0.47230  0.29890  0.84540  Biso   1.000  H
  H3       1.0000 0.02770  0.79890  0.65460  Biso   1.000  H
  H4       1.0000 0.52770  0.70110  0.15460  Biso   1.000  H
  C5       1.0000 0.05410  0.22560  0.48600  Biso   1.000  C
  C6       1.0000 0.55410  0.27440  0.98600  Biso   1.000  C
  C7       1.0000 0.94590  0.77440  0.51400  Biso   1.000  C
  C8       1.0000 0.44590  0.72560  0.01400  Biso   1.000  C
  H5       1.0000 0.99600  0.29250  0.48560  Biso   1.000  H
  H6       1.0000 0.49600  0.20750  0.98560  Biso   1.000  H
  H7       1.0000 0.00400  0.70750  0.51440  Biso   1.000  H
  H8       1.0000 0.50400  0.79250  0.01440  Biso   1.000  H
  C9       1.0000 0.15560  0.18130  0.57150  Biso   1.000  C
  C10      1.0000 0.65560  0.31870  0.07150  Biso   1.000  C
  C11      1.0000 0.84440  0.81870  0.42850  Biso   1.000  C
  C12      1.0000 0.34440  0.68130  0.92850  Biso   1.000  C
  H9       1.0000 0.16760  0.21800  0.62880  Biso   1.000  H
  H10      1.0000 0.66760  0.28200  0.12880  Biso   1.000  H
  H11      1.0000 0.83240  0.78200  0.37120  Biso   1.000  H
  H12      1.0000 0.33240  0.71800  0.87120  Biso   1.000  H
  C13      1.0000 0.23910  0.08000  0.56900  Biso   1.000  C
  C14      1.0000 0.73910  0.42000  0.06900  Biso   1.000  C
  C15      1.0000 0.76090  0.92000  0.43100  Biso   1.000  C
  C16      1.0000 0.26090  0.58000  0.93100  Biso   1.000  C
  H13      1.0000 0.30650  0.04760  0.62510  Biso   1.000  H
  H14      1.0000 0.80650  0.45240  0.12510  Biso   1.000  H
  H15      1.0000 0.69350  0.95240  0.37490  Biso   1.000  H
  H16      1.0000 0.19350  0.54760  0.87490  Biso   1.000  H
  C17      1.0000 0.22060  0.02830  0.48210  Biso   1.000  C
  C18      1.0000 0.72060  0.47170  0.98210  Biso   1.000  C
  C19      1.0000 0.77940  0.97170  0.51790  Biso   1.000  C
  C20      1.0000 0.27940  0.52830  0.01790  Biso   1.000  C
  C21      1.0000 0.29960  0.91980  0.47110  Biso   1.000  C
  C22      1.0000 0.79960  0.58020  0.97110  Biso   1.000  C
  C23      1.0000 0.70040  0.08020  0.52890  Biso   1.000  C
  C24      1.0000 0.20040  0.41980  0.02890  Biso   1.000  C
  C25      1.0000 0.39300  0.85580  0.54700  Biso   1.000  C
  C26      1.0000 0.89300  0.64420  0.04700  Biso   1.000  C
  C27      1.0000 0.60700  0.14420  0.45300  Biso   1.000  C
  C28      1.0000 0.10700  0.35580  0.95300  Biso   1.000  C
  H17      1.0000 0.41640  0.88100  0.60940  Biso   1.000  H
  H18      1.0000 0.91640  0.61900  0.10940  Biso   1.000  H
  H19      1.0000 0.58360  0.11900  0.39060  Biso   1.000  H
  H20      1.0000 0.08360  0.38100  0.89060  Biso   1.000  H
  C29      1.0000 0.45070  0.75260  0.52710  Biso   1.000  C
  C30      1.0000 0.95070  0.74740  0.02710  Biso   1.000  C
  C31      1.0000 0.54930  0.24740  0.47290  Biso   1.000  C
  C32      1.0000 0.04930  0.25260  0.97290  Biso   1.000  C
  H21      1.0000 0.51160  0.70750  0.57640  Biso   1.000  H
  H22      1.0000 0.01160  0.79250  0.07640  Biso   1.000  H
  H23      1.0000 0.48840  0.29250  0.42360  Biso   1.000  H
  H24      1.0000 0.98840  0.20750  0.92360  Biso   1.000  H
  C33      1.0000 0.41630  0.71830  0.43310  Biso   1.000  C
  C34      1.0000 0.91630  0.78170  0.93310  Biso   1.000  C
  C35      1.0000 0.58370  0.28170  0.56690  Biso   1.000  C
  C36      1.0000 0.08370  0.21830  0.06690  Biso   1.000  C
  H25      1.0000 0.45440  0.65010  0.41860  Biso   1.000  H
  H26      1.0000 0.95440  0.84990  0.91860  Biso   1.000  H
  H27      1.0000 0.54560  0.34990  0.58140  Biso   1.000  H
  H28      1.0000 0.04560  0.15010  0.08140  Biso   1.000  H
  C37      1.0000 0.32520  0.78660  0.36180  Biso   1.000  C
  C38      1.0000 0.82520  0.71340  0.86180  Biso   1.000  C
  C39      1.0000 0.67480  0.21340  0.63820  Biso   1.000  C
  C40      1.0000 0.17480  0.28660  0.13820  Biso   1.000  C
  H29      1.0000 0.30260  0.76330  0.29880  Biso   1.000  H
  H30      1.0000 0.80260  0.73670  0.79880  Biso   1.000  H
  H31      1.0000 0.69740  0.23670  0.70120  Biso   1.000  H
  H32      1.0000 0.19740  0.26330  0.20120  Biso   1.000  H
  C41      1.0000 0.78950  0.98630  0.17690  Biso   1.000  C
  C42      1.0000 0.28950  0.51370  0.67690  Biso   1.000  C
  C43      1.0000 0.21050  0.01370  0.82310  Biso   1.000  C
  C44      1.0000 0.71050  0.48630  0.32310  Biso   1.000  C
  C45      1.0000 0.63390  0.99930  0.08800  Biso   1.000  C
  C46      1.0000 0.13390  0.50070  0.58800  Biso   1.000  C
  C47      1.0000 0.36610  0.00070  0.91200  Biso   1.000  C
  C48      1.0000 0.86610  0.49930  0.41200  Biso   1.000  C
  C49      1.0000 0.69080  0.00750  0.00230  Biso   1.000  C
  C50      1.0000 0.19080  0.49250  0.50230  Biso   1.000  C
  C51      1.0000 0.30920  0.99250  0.99770  Biso   1.000  C
  C52      1.0000 0.80920  0.50750  0.49770  Biso   1.000  C
  H33      1.0000 0.81930  0.01330  0.00400  Biso   1.000  H
  H34      1.0000 0.31930  0.48670  0.50400  Biso   1.000  H
  H35      1.0000 0.18070  0.98670  0.99600  Biso   1.000  H
  H36      1.0000 0.68070  0.51330  0.49600  Biso   1.000  H
  C53      1.0000 0.36780  0.99200  0.17500  Biso   1.000  C
  C54      1.0000 0.86780  0.50800  0.67500  Biso   1.000  C
  C55      1.0000 0.63220  0.00800  0.82500  Biso   1.000  C
  C56      1.0000 0.13220  0.49200  0.32500  Biso   1.000  C
  C57      1.0000 0.44100  0.99290  0.08590  Biso   1.000  C
  C58      1.0000 0.94100  0.50710  0.58590  Biso   1.000  C
  C59      1.0000 0.55900  0.00710  0.91410  Biso   1.000  C
  C60      1.0000 0.05900  0.49290  0.41410  Biso   1.000  C
