data_image0
_cell_length_a       7.2794
_cell_length_b       12.5009
_cell_length_c       14.4436
_cell_angle_alpha    90
_cell_angle_beta     104.021
_cell_angle_gamma    90

_symmetry_space_group_name_H-M    "P 1"
_symmetry_int_tables_number       1

loop_
  _symmetry_equiv_pos_as_xyz
  'x, y, z'

loop_
  _atom_site_label
  _atom_site_occupancy
  _atom_site_fract_x
  _atom_site_fract_y
  _atom_site_fract_z
  _atom_site_thermal_displace_type
  _atom_site_B_iso_or_equiv
  _atom_site_type_symbol
  Cu1      1.0000 0.12671  0.51437  0.28264  Biso   1.000  Cu
  Cu2      1.0000 0.62671  0.98563  0.78264  Biso   1.000  Cu
  Cu3      1.0000 0.87329  0.48563  0.71736  Biso   1.000  Cu
  Cu4      1.0000 0.37329  0.01437  0.21736  Biso   1.000  Cu
  O1       1.0000 0.44800  0.45000  0.24253  Biso   1.000  O
  O2       1.0000 0.94800  0.05000  0.74253  Biso   1.000  O
  O3       1.0000 0.55200  0.55000  0.75747  Biso   1.000  O
  O4       1.0000 0.05200  0.95000  0.25747  Biso   1.000  O
  O5       1.0000 0.22390  0.56356  0.17381  Biso   1.000  O
  O6       1.0000 0.72390  0.93644  0.67381  Biso   1.000  O
  O7       1.0000 0.77610  0.43644  0.82619  Biso   1.000  O
  O8       1.0000 0.27610  0.06356  0.32619  Biso   1.000  O
  O9       1.0000 0.91610  0.44152  0.19560  Biso   1.000  O
  O10      1.0000 0.41610  0.05848  0.69560  Biso   1.000  O
  O11      1.0000 0.08390  0.55848  0.80440  Biso   1.000  O
  O12      1.0000 0.58390  0.94152  0.30440  Biso   1.000  O
  O13      1.0000 0.80160  0.59946  0.22122  Biso   1.000  O
  O14      1.0000 0.30160  0.90054  0.72122  Biso   1.000  O
  O15      1.0000 0.19840  0.40054  0.77878  Biso   1.000  O
  O16      1.0000 0.69840  0.09946  0.27878  Biso   1.000  O
  N1       1.0000 0.12250  0.42820  0.39770  Biso   1.000  N
  N2       1.0000 0.62250  0.07180  0.89770  Biso   1.000  N
  N3       1.0000 0.87750  0.57180  0.60230  Biso   1.000  N
  N4       1.0000 0.37750  0.92820  0.10230  Biso   1.000  N
  N5       1.0000 0.26870  0.61430  0.38029  Biso   1.000  N
  N6       1.0000 0.76870  0.88570  0.88029  Biso   1.000  N
  N7       1.0000 0.73130  0.38570  0.61971  Biso   1.000  N
  N8       1.0000 0.23130  0.11430  0.11971  Biso   1.000  N
  C1       1.0000 0.04260  0.33220  0.39880  Biso   1.000  C
  C2       1.0000 0.54260  0.16780  0.89880  Biso   1.000  C
  C3       1.0000 0.95740  0.66780  0.60120  Biso   1.000  C
  C4       1.0000 0.45740  0.83220  0.10120  Biso   1.000  C
  H1       1.0000 0.97580  0.30220  0.34160  Biso   1.000  H
  H2       1.0000 0.47580  0.19780  0.84160  Biso   1.000  H
  H3       1.0000 0.02420  0.69780  0.65840  Biso   1.000  H
  H4       1.0000 0.52420  0.80220  0.15840  Biso   1.000  H
  C5       1.0000 0.05670  0.27640  0.48270  Biso   1.000  C
  C6       1.0000 0.55670  0.22360  0.98270  Biso   1.000  C
  C7       1.0000 0.94330  0.72360  0.51730  Biso   1.000  C
  C8       1.0000 0.44330  0.77640  0.01730  Biso   1.000  C
  H5       1.0000 0.00020  0.20960  0.48190  Biso   1.000  H
  H6       1.0000 0.50020  0.29040  0.98190  Biso   1.000  H
  H7       1.0000 0.99980  0.79040  0.51810  Biso   1.000  H
  H8       1.0000 0.49980  0.70960  0.01810  Biso   1.000  H
  C9       1.0000 0.15470  0.32030  0.56740  Biso   1.000  C
  C10      1.0000 0.65470  0.17970  0.06740  Biso   1.000  C
  C11      1.0000 0.84530  0.67970  0.43260  Biso   1.000  C
  C12      1.0000 0.34530  0.82030  0.93260  Biso   1.000  C
  H9       1.0000 0.16610  0.28340  0.62440  Biso   1.000  H
  H10      1.0000 0.66610  0.21660  0.12440  Biso   1.000  H
  H11      1.0000 0.83390  0.71660  0.37560  Biso   1.000  H
  H12      1.0000 0.33390  0.78340  0.87560  Biso   1.000  H
  C13      1.0000 0.23640  0.42000  0.56710  Biso   1.000  C
  C14      1.0000 0.73640  0.08000  0.06710  Biso   1.000  C
  C15      1.0000 0.76360  0.58000  0.43290  Biso   1.000  C
  C16      1.0000 0.26360  0.92000  0.93290  Biso   1.000  C
  H13      1.0000 0.30160  0.45170  0.62380  Biso   1.000  H
  H14      1.0000 0.80160  0.04830  0.12380  Biso   1.000  H
  H15      1.0000 0.69840  0.54830  0.37620  Biso   1.000  H
  H16      1.0000 0.19840  0.95170  0.87620  Biso   1.000  H
  C17      1.0000 0.21930  0.47220  0.48070  Biso   1.000  C
  C18      1.0000 0.71930  0.02780  0.98070  Biso   1.000  C
  C19      1.0000 0.78070  0.52780  0.51930  Biso   1.000  C
  C20      1.0000 0.28070  0.97220  0.01930  Biso   1.000  C
  C21      1.0000 0.29810  0.57940  0.47109  Biso   1.000  C
  C22      1.0000 0.79810  0.92060  0.97109  Biso   1.000  C
  C23      1.0000 0.70190  0.42060  0.52891  Biso   1.000  C
  C24      1.0000 0.20190  0.07940  0.02891  Biso   1.000  C
  C25      1.0000 0.39060  0.64310  0.54710  Biso   1.000  C
  C26      1.0000 0.89060  0.85690  0.04710  Biso   1.000  C
  C27      1.0000 0.60940  0.35690  0.45290  Biso   1.000  C
  C28      1.0000 0.10940  0.14310  0.95290  Biso   1.000  C
  H17      1.0000 0.41280  0.61800  0.60940  Biso   1.000  H
  H18      1.0000 0.91280  0.88200  0.10940  Biso   1.000  H
  H19      1.0000 0.58720  0.38200  0.39060  Biso   1.000  H
  H20      1.0000 0.08720  0.11800  0.89060  Biso   1.000  H
  C29      1.0000 0.44870  0.74430  0.52840  Biso   1.000  C
  C30      1.0000 0.94870  0.75570  0.02840  Biso   1.000  C
  C31      1.0000 0.55130  0.25570  0.47160  Biso   1.000  C
  C32      1.0000 0.05130  0.24430  0.97160  Biso   1.000  C
  H21      1.0000 0.50970  0.78850  0.57820  Biso   1.000  H
  H22      1.0000 0.00970  0.71150  0.07820  Biso   1.000  H
  H23      1.0000 0.49030  0.21150  0.42180  Biso   1.000  H
  H24      1.0000 0.99030  0.28850  0.92180  Biso   1.000  H
  C33      1.0000 0.41540  0.77920  0.43490  Biso   1.000  C
  C34      1.0000 0.91540  0.72080  0.93490  Biso   1.000  C
  C35      1.0000 0.58460  0.22080  0.56510  Biso   1.000  C
  C36      1.0000 0.08460  0.27920  0.06510  Biso   1.000  C
  H25      1.0000 0.45260  0.84730  0.42110  Biso   1.000  H
  H26      1.0000 0.95260  0.65270  0.92110  Biso   1.000  H
  H27      1.0000 0.54740  0.15270  0.57890  Biso   1.000  H
  H28      1.0000 0.04740  0.34730  0.07890  Biso   1.000  H
  C37      1.0000 0.32700  0.71200  0.36310  Biso   1.000  C
  C38      1.0000 0.82700  0.78800  0.86310  Biso   1.000  C
  C39      1.0000 0.67300  0.28800  0.63690  Biso   1.000  C
  C40      1.0000 0.17300  0.21200  0.13690  Biso   1.000  C
  H29      1.0000 0.30690  0.73510  0.30030  Biso   1.000  H
  H30      1.0000 0.80690  0.76490  0.80030  Biso   1.000  H
  H31      1.0000 0.69310  0.26490  0.69970  Biso   1.000  H
  H32      1.0000 0.19310  0.23510  0.19970  Biso   1.000  H
  C41      1.0000 0.79110  0.51530  0.17650  Biso   1.000  C
  C42      1.0000 0.29110  0.98470  0.67650  Biso   1.000  C
  C43      1.0000 0.20890  0.48470  0.82350  Biso   1.000  C
  C44      1.0000 0.70890  0.01530  0.32350  Biso   1.000  C
  C45      1.0000 0.63500  0.50080  0.08769  Biso   1.000  C
  C46      1.0000 0.13500  0.99920  0.58769  Biso   1.000  C
  C47      1.0000 0.36500  0.49920  0.91231  Biso   1.000  C
  C48      1.0000 0.86500  0.00080  0.41231  Biso   1.000  C
  C49      1.0000 0.31110  0.50720  0.99808  Biso   1.000  C
  C50      1.0000 0.81110  0.99280  0.49808  Biso   1.000  C
  C51      1.0000 0.68890  0.49280  0.00192  Biso   1.000  C
  C52      1.0000 0.18890  0.00720  0.50192  Biso   1.000  C
  H33      1.0000 0.18300  0.51230  0.99670  Biso   1.000  H
  H34      1.0000 0.68300  0.98770  0.49670  Biso   1.000  H
  H35      1.0000 0.81700  0.48770  0.00330  Biso   1.000  H
  H36      1.0000 0.31700  0.01230  0.50330  Biso   1.000  H
  C53      1.0000 0.44220  0.50760  0.08563  Biso   1.000  C
  C54      1.0000 0.94220  0.99240  0.58563  Biso   1.000  C
  C55      1.0000 0.55780  0.49240  0.91437  Biso   1.000  C
  C56      1.0000 0.05780  0.00760  0.41437  Biso   1.000  C
  C57      1.0000 0.37080  0.50750  0.17550  Biso   1.000  C
  C58      1.0000 0.87080  0.99250  0.67550  Biso   1.000  C
  C59      1.0000 0.62920  0.49250  0.82450  Biso   1.000  C
  C60      1.0000 0.12920  0.00750  0.32450  Biso   1.000  C
