data_image0
_cell_length_a       11.107
_cell_length_b       15.504
_cell_length_c       14.509
_cell_angle_alpha    90
_cell_angle_beta     104.81
_cell_angle_gamma    90

_symmetry_space_group_name_H-M    "P 1"
_symmetry_int_tables_number       1

loop_
  _symmetry_equiv_pos_as_xyz
  'x, y, z'

loop_
  _atom_site_label
  _atom_site_occupancy
  _atom_site_fract_x
  _atom_site_fract_y
  _atom_site_fract_z
  _atom_site_thermal_displace_type
  _atom_site_B_iso_or_equiv
  _atom_site_type_symbol
  Cu1      1.0000 0.36478  0.83296  0.86419  Biso   1.000  Cu
  Cu2      1.0000 0.63522  0.33296  0.63581  Biso   1.000  Cu
  Cu3      1.0000 0.63522  0.16704  0.13581  Biso   1.000  Cu
  Cu4      1.0000 0.36478  0.66704  0.36419  Biso   1.000  Cu
  O1       1.0000 0.32820  0.93552  0.77760  Biso   1.000  O
  O2       1.0000 0.67180  0.43552  0.72240  Biso   1.000  O
  O3       1.0000 0.67180  0.06448  0.22240  Biso   1.000  O
  O4       1.0000 0.32820  0.56448  0.27760  Biso   1.000  O
  O5       1.0000 0.29370  0.81730  0.69030  Biso   1.000  O
  O6       1.0000 0.70630  0.31730  0.80970  Biso   1.000  O
  O7       1.0000 0.70630  0.18270  0.30970  Biso   1.000  O
  O8       1.0000 0.29370  0.68270  0.19030  Biso   1.000  O
  O9       1.0000 0.93500  0.89640  0.15920  Biso   1.000  O
  O10      1.0000 0.06500  0.39640  0.34080  Biso   1.000  O
  O11      1.0000 0.06500  0.10360  0.84080  Biso   1.000  O
  O12      1.0000 0.93500  0.60360  0.65920  Biso   1.000  O
  O13      1.0000 0.97670  0.79220  0.08810  Biso   1.000  O
  O14      1.0000 0.02330  0.29220  0.41190  Biso   1.000  O
  O15      1.0000 0.02330  0.20780  0.91190  Biso   1.000  O
  O16      1.0000 0.97670  0.70780  0.58810  Biso   1.000  O
  O17      1.0000 0.80620  0.79540  0.11750  Biso   1.000  O
  O18      1.0000 0.19380  0.29540  0.38250  Biso   1.000  O
  O19      1.0000 0.19380  0.20460  0.88250  Biso   1.000  O
  O20      1.0000 0.80620  0.70460  0.61750  Biso   1.000  O
  O21      1.0000 0.39580  0.89890  0.01070  Biso   1.000  O
  O22      1.0000 0.60420  0.39890  0.48930  Biso   1.000  O
  O23      1.0000 0.60420  0.10110  0.98930  Biso   1.000  O
  O24      1.0000 0.39580  0.60110  0.51070  Biso   1.000  O
  O25      1.0000 0.23100  0.65980  0.61000  Biso   1.000  O
  O26      1.0000 0.76900  0.15980  0.89000  Biso   1.000  O
  O27      1.0000 0.76900  0.34020  0.39000  Biso   1.000  O
  O28      1.0000 0.23100  0.84020  0.11000  Biso   1.000  O
  O29      1.0000 0.61380  0.89990  0.14720  Biso   1.000  O
  O30      1.0000 0.38620  0.39990  0.35280  Biso   1.000  O
  O31      1.0000 0.38620  0.10010  0.85280  Biso   1.000  O
  O32      1.0000 0.61380  0.60010  0.64720  Biso   1.000  O
  N1       1.0000 0.18240  0.83110  0.86460  Biso   1.000  N
  N2       1.0000 0.81760  0.33110  0.63540  Biso   1.000  N
  N3       1.0000 0.81760  0.16890  0.13540  Biso   1.000  N
  N4       1.0000 0.18240  0.66890  0.36460  Biso   1.000  N
  N5       1.0000 0.54420  0.83960  0.85710  Biso   1.000  N
  N6       1.0000 0.45580  0.33960  0.64290  Biso   1.000  N
  N7       1.0000 0.45580  0.16040  0.14290  Biso   1.000  N
  N8       1.0000 0.54420  0.66040  0.35710  Biso   1.000  N
  N9       1.0000 0.40050  0.70990  0.91600  Biso   1.000  N
  N10      1.0000 0.59950  0.20990  0.58400  Biso   1.000  N
  N11      1.0000 0.59950  0.29010  0.08400  Biso   1.000  N
  N12      1.0000 0.40050  0.79010  0.41600  Biso   1.000  N
  N13      1.0000 0.09610  0.09650  0.36370  Biso   1.000  N
  N14      1.0000 0.90390  0.59650  0.13630  Biso   1.000  N
  N15      1.0000 0.90390  0.90350  0.63630  Biso   1.000  N
  N16      1.0000 0.09610  0.40350  0.86370  Biso   1.000  N
  H1       1.0000 0.10970  0.15110  0.36350  Biso   1.000  H
  H2       1.0000 0.89030  0.65110  0.13650  Biso   1.000  H
  H3       1.0000 0.89030  0.84890  0.63650  Biso   1.000  H
  H4       1.0000 0.10970  0.34890  0.86350  Biso   1.000  H
  H5       1.0000 0.05480  0.07140  0.31250  Biso   1.000  H
  H6       1.0000 0.94520  0.57140  0.18750  Biso   1.000  H
  H7       1.0000 0.94520  0.92860  0.68750  Biso   1.000  H
  H8       1.0000 0.05480  0.42860  0.81250  Biso   1.000  H
  N17      1.0000 0.90410  0.83160  0.12270  Biso   1.000  N
  N18      1.0000 0.09590  0.33160  0.37730  Biso   1.000  N
  N19      1.0000 0.09590  0.16840  0.87730  Biso   1.000  N
  N20      1.0000 0.90410  0.66840  0.62270  Biso   1.000  N
  C1       1.0000 0.92840  0.83940  0.85780  Biso   1.000  C
  C2       1.0000 0.07160  0.33940  0.64220  Biso   1.000  C
  C3       1.0000 0.07160  0.16060  0.14220  Biso   1.000  C
  C4       1.0000 0.92840  0.66060  0.35780  Biso   1.000  C
  C5       1.0000 0.98610  0.76310  0.84560  Biso   1.000  C
  C6       1.0000 0.01390  0.26310  0.65440  Biso   1.000  C
  C7       1.0000 0.01390  0.23690  0.15440  Biso   1.000  C
  C8       1.0000 0.98610  0.73690  0.34560  Biso   1.000  C
  H9       1.0000 0.94050  0.71210  0.83590  Biso   1.000  H
  H10      1.0000 0.05950  0.21210  0.66410  Biso   1.000  H
  H11      1.0000 0.05950  0.28790  0.16410  Biso   1.000  H
  H12      1.0000 0.94050  0.78790  0.33590  Biso   1.000  H
  C9       1.0000 0.11050  0.76190  0.84770  Biso   1.000  C
  C10      1.0000 0.88950  0.26190  0.65230  Biso   1.000  C
  C11      1.0000 0.88950  0.23810  0.15230  Biso   1.000  C
  C12      1.0000 0.11050  0.73810  0.34770  Biso   1.000  C
  H13      1.0000 0.14590  0.70980  0.83680  Biso   1.000  H
  H14      1.0000 0.85410  0.20980  0.66320  Biso   1.000  H
  H15      1.0000 0.85410  0.29020  0.16320  Biso   1.000  H
  H16      1.0000 0.14590  0.79020  0.33680  Biso   1.000  H
  C13      1.0000 0.12880  0.90590  0.87740  Biso   1.000  C
  C14      1.0000 0.87120  0.40590  0.62260  Biso   1.000  C
  C15      1.0000 0.87120  0.09410  0.12260  Biso   1.000  C
  C16      1.0000 0.12880  0.59410  0.37740  Biso   1.000  C
  H17      1.0000 0.17750  0.95550  0.88800  Biso   1.000  H
  H18      1.0000 0.82250  0.45550  0.61200  Biso   1.000  H
  H19      1.0000 0.82250  0.04450  0.11200  Biso   1.000  H
  H20      1.0000 0.17750  0.54450  0.38800  Biso   1.000  H
  C17      1.0000 0.00260  0.91280  0.87570  Biso   1.000  C
  C18      1.0000 0.99740  0.41280  0.62430  Biso   1.000  C
  C19      1.0000 0.99740  0.08720  0.12430  Biso   1.000  C
  C20      1.0000 0.00260  0.58720  0.37570  Biso   1.000  C
  H21      1.0000 0.96890  0.96560  0.88640  Biso   1.000  H
  H22      1.0000 0.03110  0.46560  0.61360  Biso   1.000  H
  H23      1.0000 0.03110  0.03440  0.11360  Biso   1.000  H
  H24      1.0000 0.96890  0.53440  0.38640  Biso   1.000  H
  C21      1.0000 0.79470  0.84220  0.85680  Biso   1.000  C
  C22      1.0000 0.20530  0.34220  0.64320  Biso   1.000  C
  C23      1.0000 0.20530  0.15780  0.14320  Biso   1.000  C
  C24      1.0000 0.79470  0.65780  0.35680  Biso   1.000  C
  C25      1.0000 0.71190  0.78330  0.80260  Biso   1.000  C
  C26      1.0000 0.28810  0.28330  0.69740  Biso   1.000  C
  C27      1.0000 0.28810  0.21670  0.19740  Biso   1.000  C
  C28      1.0000 0.71190  0.71670  0.30260  Biso   1.000  C
  H25      1.0000 0.73960  0.74360  0.76460  Biso   1.000  H
  H26      1.0000 0.26040  0.24360  0.73540  Biso   1.000  H
  H27      1.0000 0.26040  0.25640  0.23540  Biso   1.000  H
  H28      1.0000 0.73960  0.75640  0.26460  Biso   1.000  H
  C29      1.0000 0.58940  0.78360  0.80500  Biso   1.000  C
  C30      1.0000 0.41060  0.28360  0.69500  Biso   1.000  C
  C31      1.0000 0.41060  0.21640  0.19500  Biso   1.000  C
  C32      1.0000 0.58940  0.71640  0.30500  Biso   1.000  C
  H29      1.0000 0.53570  0.74320  0.76880  Biso   1.000  H
  H30      1.0000 0.46430  0.24320  0.73120  Biso   1.000  H
  H31      1.0000 0.46430  0.25680  0.23120  Biso   1.000  H
  H32      1.0000 0.53570  0.75680  0.26880  Biso   1.000  H
  C33      1.0000 0.62240  0.89930  0.90720  Biso   1.000  C
  C34      1.0000 0.37760  0.39930  0.59280  Biso   1.000  C
  C35      1.0000 0.37760  0.10070  0.09280  Biso   1.000  C
  C36      1.0000 0.62240  0.60070  0.40720  Biso   1.000  C
  H33      1.0000 0.59150  0.93930  0.94310  Biso   1.000  H
  H34      1.0000 0.40850  0.43930  0.55690  Biso   1.000  H
  H35      1.0000 0.40850  0.06070  0.05690  Biso   1.000  H
  H36      1.0000 0.59150  0.56070  0.44310  Biso   1.000  H
  C37      1.0000 0.74490  0.90340  0.90710  Biso   1.000  C
  C38      1.0000 0.25510  0.40340  0.59290  Biso   1.000  C
  C39      1.0000 0.25510  0.09660  0.09290  Biso   1.000  C
  C40      1.0000 0.74490  0.59660  0.40710  Biso   1.000  C
  H37      1.0000 0.79530  0.94690  0.94060  Biso   1.000  H
  H38      1.0000 0.20470  0.44690  0.55940  Biso   1.000  H
  H39      1.0000 0.20470  0.05310  0.05940  Biso   1.000  H
  H40      1.0000 0.79530  0.55310  0.44060  Biso   1.000  H
  C41      1.0000 0.47820  0.54430  0.98200  Biso   1.000  C
  C42      1.0000 0.52180  0.04430  0.51800  Biso   1.000  C
  C43      1.0000 0.52180  0.45570  0.01800  Biso   1.000  C
  C44      1.0000 0.47820  0.95570  0.48200  Biso   1.000  C
  C45      1.0000 0.50030  0.61550  0.04010  Biso   1.000  C
  C46      1.0000 0.49970  0.11550  0.45990  Biso   1.000  C
  C47      1.0000 0.49970  0.38450  0.95990  Biso   1.000  C
  C48      1.0000 0.50030  0.88450  0.54010  Biso   1.000  C
  H41      1.0000 0.54310  0.60920  0.10380  Biso   1.000  H
  H42      1.0000 0.45690  0.10920  0.39620  Biso   1.000  H
  H43      1.0000 0.45690  0.39080  0.89620  Biso   1.000  H
  H44      1.0000 0.54310  0.89080  0.60380  Biso   1.000  H
  C49      1.0000 0.46050  0.69510  0.00610  Biso   1.000  C
  C50      1.0000 0.53950  0.19510  0.49390  Biso   1.000  C
  C51      1.0000 0.53950  0.30490  0.99390  Biso   1.000  C
  C52      1.0000 0.46050  0.80490  0.50610  Biso   1.000  C
  H45      1.0000 0.47610  0.74150  0.04810  Biso   1.000  H
  H46      1.0000 0.52390  0.24150  0.45190  Biso   1.000  H
  H47      1.0000 0.52390  0.25850  0.95190  Biso   1.000  H
  H48      1.0000 0.47610  0.75850  0.54810  Biso   1.000  H
  C53      1.0000 0.37710  0.64140  0.85980  Biso   1.000  C
  C54      1.0000 0.62290  0.14140  0.64020  Biso   1.000  C
  C55      1.0000 0.62290  0.35860  0.14020  Biso   1.000  C
  C56      1.0000 0.37710  0.85860  0.35980  Biso   1.000  C
  H49      1.0000 0.33310  0.64940  0.79670  Biso   1.000  H
  H50      1.0000 0.66690  0.14940  0.70330  Biso   1.000  H
  H51      1.0000 0.66690  0.35060  0.20330  Biso   1.000  H
  H52      1.0000 0.33310  0.85060  0.29670  Biso   1.000  H
  C57      1.0000 0.41400  0.55910  0.88920  Biso   1.000  C
  C58      1.0000 0.58600  0.05910  0.61080  Biso   1.000  C
  C59      1.0000 0.58600  0.44090  0.11080  Biso   1.000  C
  C60      1.0000 0.41400  0.94090  0.38920  Biso   1.000  C
  H53      1.0000 0.39560  0.51350  0.84620  Biso   1.000  H
  H54      1.0000 0.60440  0.01350  0.65380  Biso   1.000  H
  H55      1.0000 0.60440  0.48650  0.15380  Biso   1.000  H
  H56      1.0000 0.39560  0.98650  0.34620  Biso   1.000  H
  C61      1.0000 0.28840  0.89760  0.69600  Biso   1.000  C
  C62      1.0000 0.71160  0.39760  0.80400  Biso   1.000  C
  C63      1.0000 0.71160  0.10240  0.30400  Biso   1.000  C
  C64      1.0000 0.28840  0.60240  0.19600  Biso   1.000  C
  C65      1.0000 0.23660  0.95110  0.61110  Biso   1.000  C
  C66      1.0000 0.76340  0.45110  0.88890  Biso   1.000  C
  C67      1.0000 0.76340  0.04890  0.38890  Biso   1.000  C
  C68      1.0000 0.23660  0.54890  0.11110  Biso   1.000  C
  C69      1.0000 0.25340  0.03990  0.61070  Biso   1.000  C
  C70      1.0000 0.74660  0.53990  0.88930  Biso   1.000  C
  C71      1.0000 0.74660  0.96010  0.38930  Biso   1.000  C
  C72      1.0000 0.25340  0.46010  0.11070  Biso   1.000  C
  H57      1.0000 0.29670  0.06710  0.66650  Biso   1.000  H
  H58      1.0000 0.70330  0.56710  0.83350  Biso   1.000  H
  H59      1.0000 0.70330  0.93290  0.33350  Biso   1.000  H
  H60      1.0000 0.29670  0.43290  0.16650  Biso   1.000  H
  C73      1.0000 0.20750  0.08910  0.52980  Biso   1.000  C
  C74      1.0000 0.79250  0.58910  0.97020  Biso   1.000  C
  C75      1.0000 0.79250  0.91090  0.47020  Biso   1.000  C
  C76      1.0000 0.20750  0.41090  0.02980  Biso   1.000  C
  H61      1.0000 0.22100  0.14830  0.53060  Biso   1.000  H
  H62      1.0000 0.77900  0.64830  0.96940  Biso   1.000  H
  H63      1.0000 0.77900  0.85170  0.46940  Biso   1.000  H
  H64      1.0000 0.22100  0.35170  0.03060  Biso   1.000  H
  C77      1.0000 0.14110  0.04850  0.44750  Biso   1.000  C
  C78      1.0000 0.85890  0.54850  0.05250  Biso   1.000  C
  C79      1.0000 0.85890  0.95150  0.55250  Biso   1.000  C
  C80      1.0000 0.14110  0.45150  0.94750  Biso   1.000  C
  C81      1.0000 0.11990  0.96030  0.44590  Biso   1.000  C
  C82      1.0000 0.88010  0.46030  0.05410  Biso   1.000  C
  C83      1.0000 0.88010  0.03970  0.55410  Biso   1.000  C
  C84      1.0000 0.11990  0.53970  0.94590  Biso   1.000  C
  H65      1.0000 0.07340  0.93370  0.39070  Biso   1.000  H
  H66      1.0000 0.92660  0.43370  0.10930  Biso   1.000  H
  H67      1.0000 0.92660  0.06630  0.60930  Biso   1.000  H
  H68      1.0000 0.07340  0.56630  0.89070  Biso   1.000  H
  C85      1.0000 0.16850  0.91260  0.52660  Biso   1.000  C
  C86      1.0000 0.83150  0.41260  0.97340  Biso   1.000  C
  C87      1.0000 0.83150  0.08740  0.47340  Biso   1.000  C
  C88      1.0000 0.16850  0.58740  0.02660  Biso   1.000  C
  H69      1.0000 0.15590  0.85330  0.52500  Biso   1.000  H
  H70      1.0000 0.84410  0.35330  0.97500  Biso   1.000  H
  H71      1.0000 0.84410  0.14670  0.47500  Biso   1.000  H
  H72      1.0000 0.15590  0.64670  0.02500  Biso   1.000  H
