data_image0
_cell_length_a       11.102
_cell_length_b       15.478
_cell_length_c       14.493
_cell_angle_alpha    90
_cell_angle_beta     104.75
_cell_angle_gamma    90

_symmetry_space_group_name_H-M    "P 1"
_symmetry_int_tables_number       1

loop_
  _symmetry_equiv_pos_as_xyz
  'x, y, z'

loop_
  _atom_site_label
  _atom_site_occupancy
  _atom_site_fract_x
  _atom_site_fract_y
  _atom_site_fract_z
  _atom_site_thermal_displace_type
  _atom_site_B_iso_or_equiv
  _atom_site_type_symbol
  Cu1      1.0000 0.36484  0.66713  0.36424  Biso   1.000  Cu
  Cu2      1.0000 0.36484  0.83287  0.86424  Biso   1.000  Cu
  Cu3      1.0000 0.63516  0.33287  0.63576  Biso   1.000  Cu
  Cu4      1.0000 0.63516  0.16713  0.13576  Biso   1.000  Cu
  N1       1.0000 0.40037  0.79010  0.41604  Biso   1.000  N
  N2       1.0000 0.40037  0.70990  0.91604  Biso   1.000  N
  N3       1.0000 0.59963  0.20990  0.58396  Biso   1.000  N
  N4       1.0000 0.59963  0.29010  0.08396  Biso   1.000  N
  N5       1.0000 0.54381  0.66043  0.35766  Biso   1.000  N
  N6       1.0000 0.54381  0.83957  0.85766  Biso   1.000  N
  N7       1.0000 0.45619  0.33957  0.64234  Biso   1.000  N
  N8       1.0000 0.45619  0.16043  0.14234  Biso   1.000  N
  N9       1.0000 0.09590  0.40400  0.86420  Biso   1.000  N
  N10      1.0000 0.09590  0.09600  0.36420  Biso   1.000  N
  N11      1.0000 0.90410  0.59600  0.13580  Biso   1.000  N
  N12      1.0000 0.90410  0.90400  0.63580  Biso   1.000  N
  H1       1.0000 0.05620  0.42910  0.81250  Biso   1.000  H
  H2       1.0000 0.05620  0.07090  0.31250  Biso   1.000  H
  H3       1.0000 0.94380  0.57090  0.18750  Biso   1.000  H
  H4       1.0000 0.94380  0.92910  0.68750  Biso   1.000  H
  H5       1.0000 0.10820  0.34910  0.86480  Biso   1.000  H
  H6       1.0000 0.10820  0.15090  0.36480  Biso   1.000  H
  H7       1.0000 0.89180  0.65090  0.13520  Biso   1.000  H
  H8       1.0000 0.89180  0.84910  0.63520  Biso   1.000  H
  C1       1.0000 0.58970  0.71620  0.30520  Biso   1.000  C
  C2       1.0000 0.58970  0.78380  0.80520  Biso   1.000  C
  C3       1.0000 0.41030  0.28380  0.69480  Biso   1.000  C
  C4       1.0000 0.41030  0.21620  0.19480  Biso   1.000  C
  H9       1.0000 0.53600  0.75650  0.26870  Biso   1.000  H
  H10      1.0000 0.53600  0.74350  0.76870  Biso   1.000  H
  H11      1.0000 0.46400  0.24350  0.73130  Biso   1.000  H
  H12      1.0000 0.46400  0.25650  0.23130  Biso   1.000  H
  C5       1.0000 0.71200  0.71690  0.30263  Biso   1.000  C
  C6       1.0000 0.71200  0.78310  0.80263  Biso   1.000  C
  C7       1.0000 0.28800  0.28310  0.69737  Biso   1.000  C
  C8       1.0000 0.28800  0.21690  0.19737  Biso   1.000  C
  H13      1.0000 0.73970  0.75710  0.26500  Biso   1.000  H
  H14      1.0000 0.73970  0.74290  0.76500  Biso   1.000  H
  H15      1.0000 0.26030  0.24290  0.73500  Biso   1.000  H
  H16      1.0000 0.26030  0.25710  0.23500  Biso   1.000  H
  C9       1.0000 0.79490  0.65770  0.35608  Biso   1.000  C
  C10      1.0000 0.79490  0.84230  0.85608  Biso   1.000  C
  C11      1.0000 0.20510  0.34230  0.64392  Biso   1.000  C
  C12      1.0000 0.20510  0.15770  0.14392  Biso   1.000  C
  C13      1.0000 0.74580  0.59686  0.40690  Biso   1.000  C
  C14      1.0000 0.74580  0.90314  0.90690  Biso   1.000  C
  C15      1.0000 0.25420  0.40314  0.59310  Biso   1.000  C
  C16      1.0000 0.25420  0.09686  0.09310  Biso   1.000  C
  H17      1.0000 0.79650  0.55390  0.44120  Biso   1.000  H
  H18      1.0000 0.79650  0.94610  0.94120  Biso   1.000  H
  H19      1.0000 0.20350  0.44610  0.55880  Biso   1.000  H
  H20      1.0000 0.20350  0.05390  0.05880  Biso   1.000  H
  C17      1.0000 0.62150  0.60054  0.40620  Biso   1.000  C
  C18      1.0000 0.62150  0.89946  0.90620  Biso   1.000  C
  C19      1.0000 0.37850  0.39946  0.59380  Biso   1.000  C
  C20      1.0000 0.37850  0.10054  0.09380  Biso   1.000  C
  H21      1.0000 0.59040  0.55960  0.44100  Biso   1.000  H
  H22      1.0000 0.59040  0.94040  0.94100  Biso   1.000  H
  H23      1.0000 0.40960  0.44040  0.55900  Biso   1.000  H
  H24      1.0000 0.40960  0.05960  0.05900  Biso   1.000  H
  C21      1.0000 0.11040  0.73851  0.34810  Biso   1.000  C
  C22      1.0000 0.11040  0.76149  0.84810  Biso   1.000  C
  C23      1.0000 0.88960  0.26149  0.65190  Biso   1.000  C
  C24      1.0000 0.88960  0.23851  0.15190  Biso   1.000  C
  H25      1.0000 0.14520  0.79080  0.33650  Biso   1.000  H
  H26      1.0000 0.14520  0.70920  0.83650  Biso   1.000  H
  H27      1.0000 0.85480  0.20920  0.66350  Biso   1.000  H
  H28      1.0000 0.85480  0.29080  0.16350  Biso   1.000  H
  C25      1.0000 0.98540  0.73754  0.34520  Biso   1.000  C
  C26      1.0000 0.98540  0.76246  0.84520  Biso   1.000  C
  C27      1.0000 0.01460  0.26246  0.65480  Biso   1.000  C
  C28      1.0000 0.01460  0.23754  0.15480  Biso   1.000  C
  H29      1.0000 0.93910  0.78830  0.33340  Biso   1.000  H
  H30      1.0000 0.93910  0.71170  0.83340  Biso   1.000  H
  H31      1.0000 0.06090  0.21170  0.66660  Biso   1.000  H
  H32      1.0000 0.06090  0.28830  0.16660  Biso   1.000  H
  C29      1.0000 0.92900  0.66079  0.35982  Biso   1.000  C
  C30      1.0000 0.92900  0.83921  0.85982  Biso   1.000  C
  C31      1.0000 0.07100  0.33921  0.64018  Biso   1.000  C
  C32      1.0000 0.07100  0.16079  0.14018  Biso   1.000  C
  C33      1.0000 0.00380  0.58769  0.37665  Biso   1.000  C
  C34      1.0000 0.00380  0.91231  0.87665  Biso   1.000  C
  C35      1.0000 0.99620  0.41231  0.62335  Biso   1.000  C
  C36      1.0000 0.99620  0.08769  0.12335  Biso   1.000  C
  H33      1.0000 0.97020  0.53460  0.38690  Biso   1.000  H
  H34      1.0000 0.97020  0.96540  0.88690  Biso   1.000  H
  H35      1.0000 0.02980  0.46540  0.61310  Biso   1.000  H
  H36      1.0000 0.02980  0.03460  0.11310  Biso   1.000  H
  C37      1.0000 0.12740  0.59420  0.37808  Biso   1.000  C
  C38      1.0000 0.12740  0.90580  0.87808  Biso   1.000  C
  C39      1.0000 0.87260  0.40580  0.62192  Biso   1.000  C
  C40      1.0000 0.87260  0.09420  0.12192  Biso   1.000  C
  H37      1.0000 0.17730  0.54510  0.38770  Biso   1.000  H
  H38      1.0000 0.17730  0.95490  0.88770  Biso   1.000  H
  H39      1.0000 0.82270  0.45490  0.61230  Biso   1.000  H
  H40      1.0000 0.82270  0.04510  0.11230  Biso   1.000  H
  C41      1.0000 0.37750  0.85868  0.35890  Biso   1.000  C
  C42      1.0000 0.37750  0.64132  0.85890  Biso   1.000  C
  C43      1.0000 0.62250  0.14132  0.64110  Biso   1.000  C
  C44      1.0000 0.62250  0.35868  0.14110  Biso   1.000  C
  H41      1.0000 0.33500  0.85040  0.29540  Biso   1.000  H
  H42      1.0000 0.33500  0.64960  0.79540  Biso   1.000  H
  H43      1.0000 0.66500  0.14960  0.70460  Biso   1.000  H
  H44      1.0000 0.66500  0.35040  0.20460  Biso   1.000  H
  C45      1.0000 0.41340  0.94107  0.38900  Biso   1.000  C
  C46      1.0000 0.41340  0.55893  0.88900  Biso   1.000  C
  C47      1.0000 0.58660  0.05893  0.61100  Biso   1.000  C
  C48      1.0000 0.58660  0.44107  0.11100  Biso   1.000  C
  H45      1.0000 0.39370  0.98700  0.34650  Biso   1.000  H
  H46      1.0000 0.39370  0.51300  0.84650  Biso   1.000  H
  H47      1.0000 0.60630  0.01300  0.65350  Biso   1.000  H
  H48      1.0000 0.60630  0.48700  0.15350  Biso   1.000  H
  C49      1.0000 0.47890  0.95583  0.48246  Biso   1.000  C
  C50      1.0000 0.47890  0.54417  0.98246  Biso   1.000  C
  C51      1.0000 0.52110  0.04417  0.51754  Biso   1.000  C
  C52      1.0000 0.52110  0.45583  0.01754  Biso   1.000  C
  C53      1.0000 0.50180  0.88477  0.54120  Biso   1.000  C
  C54      1.0000 0.50180  0.61523  0.04120  Biso   1.000  C
  C55      1.0000 0.49820  0.11523  0.45880  Biso   1.000  C
  C56      1.0000 0.49820  0.38477  0.95880  Biso   1.000  C
  H49      1.0000 0.54460  0.89130  0.60490  Biso   1.000  H
  H50      1.0000 0.54460  0.60870  0.10490  Biso   1.000  H
  H51      1.0000 0.45540  0.10870  0.39510  Biso   1.000  H
  H52      1.0000 0.45540  0.39130  0.89510  Biso   1.000  H
  C57      1.0000 0.46190  0.80381  0.50660  Biso   1.000  C
  C58      1.0000 0.46190  0.69619  0.00660  Biso   1.000  C
  C59      1.0000 0.53810  0.19619  0.49340  Biso   1.000  C
  C60      1.0000 0.53810  0.30381  0.99340  Biso   1.000  C
  H53      1.0000 0.47850  0.75700  0.54810  Biso   1.000  H
  H54      1.0000 0.47850  0.74300  0.04810  Biso   1.000  H
  H55      1.0000 0.52150  0.24300  0.45190  Biso   1.000  H
  H56      1.0000 0.52150  0.25700  0.95190  Biso   1.000  H
  C61      1.0000 0.28830  0.60181  0.19554  Biso   1.000  C
  C62      1.0000 0.28830  0.89819  0.69554  Biso   1.000  C
  C63      1.0000 0.71170  0.39819  0.80446  Biso   1.000  C
  C64      1.0000 0.71170  0.10181  0.30446  Biso   1.000  C
  C65      1.0000 0.23620  0.54891  0.11075  Biso   1.000  C
  C66      1.0000 0.23620  0.95109  0.61075  Biso   1.000  C
  C67      1.0000 0.76380  0.45109  0.88925  Biso   1.000  C
  C68      1.0000 0.76380  0.04891  0.38925  Biso   1.000  C
  C69      1.0000 0.16800  0.58704  0.02700  Biso   1.000  C
  C70      1.0000 0.16800  0.91296  0.52700  Biso   1.000  C
  C71      1.0000 0.83200  0.41296  0.97300  Biso   1.000  C
  C72      1.0000 0.83200  0.08704  0.47300  Biso   1.000  C
  H57      1.0000 0.15410  0.64630  0.02560  Biso   1.000  H
  H58      1.0000 0.15410  0.85370  0.52560  Biso   1.000  H
  H59      1.0000 0.84590  0.35370  0.97440  Biso   1.000  H
  H60      1.0000 0.84590  0.14630  0.47440  Biso   1.000  H
  C73      1.0000 0.12060  0.53930  0.94650  Biso   1.000  C
  C74      1.0000 0.12060  0.96070  0.44650  Biso   1.000  C
  C75      1.0000 0.87940  0.46070  0.05350  Biso   1.000  C
  C76      1.0000 0.87940  0.03930  0.55350  Biso   1.000  C
  H61      1.0000 0.07510  0.56660  0.89140  Biso   1.000  H
  H62      1.0000 0.07510  0.93340  0.39140  Biso   1.000  H
  H63      1.0000 0.92490  0.43340  0.10860  Biso   1.000  H
  H64      1.0000 0.92490  0.06660  0.60860  Biso   1.000  H
  C77      1.0000 0.13940  0.45140  0.94580  Biso   1.000  C
  C78      1.0000 0.13940  0.04860  0.44580  Biso   1.000  C
  C79      1.0000 0.86060  0.54860  0.05420  Biso   1.000  C
  C80      1.0000 0.86060  0.95140  0.55420  Biso   1.000  C
  C81      1.0000 0.20660  0.41210  0.02920  Biso   1.000  C
  C82      1.0000 0.20660  0.08790  0.52920  Biso   1.000  C
  C83      1.0000 0.79340  0.58790  0.97080  Biso   1.000  C
  C84      1.0000 0.79340  0.91210  0.47080  Biso   1.000  C
  H65      1.0000 0.21980  0.35280  0.03030  Biso   1.000  H
  H66      1.0000 0.21980  0.14720  0.53030  Biso   1.000  H
  H67      1.0000 0.78020  0.64720  0.96970  Biso   1.000  H
  H68      1.0000 0.78020  0.85280  0.46970  Biso   1.000  H
  C85      1.0000 0.25370  0.45996  0.11010  Biso   1.000  C
  C86      1.0000 0.25370  0.04004  0.61010  Biso   1.000  C
  C87      1.0000 0.74630  0.54004  0.88990  Biso   1.000  C
  C88      1.0000 0.74630  0.95996  0.38990  Biso   1.000  C
  H69      1.0000 0.29800  0.43240  0.16540  Biso   1.000  H
  H70      1.0000 0.29800  0.06760  0.66540  Biso   1.000  H
  H71      1.0000 0.70200  0.56760  0.83460  Biso   1.000  H
  H72      1.0000 0.70200  0.93240  0.33460  Biso   1.000  H
  O1       1.0000 0.39536  0.60068  0.50857  Biso   1.000  O
  O2       1.0000 0.39536  0.89932  0.00857  Biso   1.000  O
  O3       1.0000 0.60464  0.39932  0.49143  Biso   1.000  O
  O4       1.0000 0.60464  0.10068  0.99143  Biso   1.000  O
  H73      1.0000 0.35640  0.60940  0.55120  Biso   1.000  H
  H74      1.0000 0.35640  0.89060  0.05120  Biso   1.000  H
  H75      1.0000 0.64360  0.39060  0.44880  Biso   1.000  H
  H76      1.0000 0.64360  0.10940  0.94880  Biso   1.000  H
  H77      1.0000 0.46710  0.58130  0.53610  Biso   1.000  H
  H78      1.0000 0.46710  0.91870  0.03610  Biso   1.000  H
  H79      1.0000 0.53290  0.41870  0.46390  Biso   1.000  H
  H80      1.0000 0.53290  0.08130  0.96390  Biso   1.000  H
  O5       1.0000 0.61186  0.60017  0.64589  Biso   1.000  O
  O6       1.0000 0.61186  0.89983  0.14589  Biso   1.000  O
  O7       1.0000 0.38814  0.39983  0.35411  Biso   1.000  O
  O8       1.0000 0.38814  0.10017  0.85411  Biso   1.000  O
  H81      1.0000 0.66650  0.63540  0.63690  Biso   1.000  H
  H82      1.0000 0.66650  0.86460  0.13690  Biso   1.000  H
  H83      1.0000 0.33350  0.36460  0.36310  Biso   1.000  H
  H84      1.0000 0.33350  0.13540  0.86310  Biso   1.000  H
  H85      1.0000 0.64980  0.55810  0.67850  Biso   1.000  H
  H86      1.0000 0.64980  0.94190  0.17850  Biso   1.000  H
  H87      1.0000 0.35020  0.44190  0.32150  Biso   1.000  H
  H88      1.0000 0.35020  0.05810  0.82150  Biso   1.000  H
  O9       1.0000 0.23250  0.84117  0.10996  Biso   1.000  O
  O10      1.0000 0.23250  0.65883  0.60996  Biso   1.000  O
  O11      1.0000 0.76750  0.15883  0.89004  Biso   1.000  O
  O12      1.0000 0.76750  0.34117  0.39004  Biso   1.000  O
  H89      1.0000 0.24740  0.79050  0.13260  Biso   1.000  H
  H90      1.0000 0.24740  0.70950  0.63260  Biso   1.000  H
  H91      1.0000 0.75260  0.20950  0.86740  Biso   1.000  H
  H92      1.0000 0.75260  0.29050  0.36740  Biso   1.000  H
  H93      1.0000 0.15590  0.85170  0.10480  Biso   1.000  H
  H94      1.0000 0.15590  0.64830  0.60480  Biso   1.000  H
  H95      1.0000 0.84410  0.14830  0.89520  Biso   1.000  H
  H96      1.0000 0.84410  0.35170  0.39520  Biso   1.000  H
  N13      1.0000 0.90570  0.67010  0.62210  Biso   1.000  N
  N14      1.0000 0.90570  0.82990  0.12210  Biso   1.000  N
  N15      1.0000 0.09430  0.32990  0.37790  Biso   1.000  N
  N16      1.0000 0.09430  0.17010  0.87790  Biso   1.000  N
  O13      1.0000 0.29386  0.68251  0.19048  Biso   1.000  O
  O14      1.0000 0.29386  0.81749  0.69048  Biso   1.000  O
  O15      1.0000 0.70614  0.31749  0.80952  Biso   1.000  O
  O16      1.0000 0.70614  0.18251  0.30952  Biso   1.000  O
  O17      1.0000 0.80570  0.70510  0.61580  Biso   1.000  O
  O18      1.0000 0.80570  0.79490  0.11580  Biso   1.000  O
  O19      1.0000 0.19430  0.29490  0.38420  Biso   1.000  O
  O20      1.0000 0.19430  0.20510  0.88420  Biso   1.000  O
  O21      1.0000 0.97690  0.70960  0.58680  Biso   1.000  O
  O22      1.0000 0.97690  0.79040  0.08680  Biso   1.000  O
  O23      1.0000 0.02310  0.29040  0.41320  Biso   1.000  O
  O24      1.0000 0.02310  0.20960  0.91320  Biso   1.000  O
  O25      1.0000 0.93080  0.60450  0.65810  Biso   1.000  O
  O26      1.0000 0.93080  0.89550  0.15810  Biso   1.000  O
  O27      1.0000 0.06920  0.39550  0.34190  Biso   1.000  O
  O28      1.0000 0.06920  0.10450  0.84190  Biso   1.000  O
  O29      1.0000 0.33500  0.56800  0.26700  Biso   1.000  O
  O30      1.0000 0.33500  0.93200  0.76700  Biso   1.000  O
  O31      1.0000 0.66500  0.43200  0.73300  Biso   1.000  O
  O32      1.0000 0.66500  0.06800  0.23300  Biso   1.000  O
  N17      1.0000 0.17900  0.67500  0.36500  Biso   1.000  N
  N18      1.0000 0.17900  0.82500  0.86500  Biso   1.000  N
  N19      1.0000 0.82100  0.32500  0.63500  Biso   1.000  N
  N20      1.0000 0.82100  0.17500  0.13500  Biso   1.000  N
  N21      1.0000 0.18500  0.66410  0.36400  Biso   1.000  N
  N22      1.0000 0.18500  0.83590  0.86400  Biso   1.000  N
  N23      1.0000 0.81500  0.33590  0.63600  Biso   1.000  N
  N24      1.0000 0.81500  0.16410  0.13600  Biso   1.000  N
  O33      1.0000 0.32300  0.56270  0.28340  Biso   1.000  O
  O34      1.0000 0.32300  0.93730  0.78340  Biso   1.000  O
  O35      1.0000 0.67700  0.43730  0.71660  Biso   1.000  O
  O36      1.0000 0.67700  0.06270  0.21660  Biso   1.000  O
