data_image0
_cell_length_a       11.099
_cell_length_b       15.4963
_cell_length_c       14.4946
_cell_angle_alpha    90
_cell_angle_beta     104.731
_cell_angle_gamma    90

_symmetry_space_group_name_H-M    "P 1"
_symmetry_int_tables_number       1

loop_
  _symmetry_equiv_pos_as_xyz
  'x, y, z'

loop_
  _atom_site_label
  _atom_site_occupancy
  _atom_site_fract_x
  _atom_site_fract_y
  _atom_site_fract_z
  _atom_site_thermal_displace_type
  _atom_site_B_iso_or_equiv
  _atom_site_type_symbol
  Cu1      1.0000 0.36495  0.83289  0.86421  Biso   1.000  Cu
  Cu2      1.0000 0.63505  0.33289  0.63579  Biso   1.000  Cu
  Cu3      1.0000 0.63505  0.16711  0.13579  Biso   1.000  Cu
  Cu4      1.0000 0.36495  0.66711  0.36421  Biso   1.000  Cu
  N1       1.0000 0.09480  0.16950  0.87800  Biso   1.000  N
  N2       1.0000 0.90520  0.66950  0.62200  Biso   1.000  N
  N3       1.0000 0.90520  0.83050  0.12200  Biso   1.000  N
  N4       1.0000 0.09480  0.33050  0.37800  Biso   1.000  N
  N5       1.0000 0.18260  0.83168  0.86440  Biso   1.000  N
  N6       1.0000 0.81740  0.33168  0.63560  Biso   1.000  N
  N7       1.0000 0.81740  0.16832  0.13560  Biso   1.000  N
  N8       1.0000 0.18260  0.66832  0.36440  Biso   1.000  N
  N9       1.0000 0.54410  0.83956  0.85770  Biso   1.000  N
  N10      1.0000 0.45590  0.33956  0.64230  Biso   1.000  N
  N11      1.0000 0.45590  0.16044  0.14230  Biso   1.000  N
  N12      1.0000 0.54410  0.66044  0.35770  Biso   1.000  N
  N13      1.0000 0.40030  0.71001  0.91610  Biso   1.000  N
  N14      1.0000 0.59970  0.21001  0.58390  Biso   1.000  N
  N15      1.0000 0.59970  0.28999  0.08390  Biso   1.000  N
  N16      1.0000 0.40030  0.78999  0.41610  Biso   1.000  N
  N17      1.0000 0.09510  0.09570  0.36410  Biso   1.000  N
  N18      1.0000 0.90490  0.59570  0.13590  Biso   1.000  N
  N19      1.0000 0.90490  0.90430  0.63590  Biso   1.000  N
  N20      1.0000 0.09510  0.40430  0.86410  Biso   1.000  N
  H1       1.0000 0.05520  0.07020  0.31270  Biso   1.000  H
  H2       1.0000 0.94480  0.57020  0.18730  Biso   1.000  H
  H3       1.0000 0.94480  0.92980  0.68730  Biso   1.000  H
  H4       1.0000 0.05520  0.42980  0.81270  Biso   1.000  H
  H5       1.0000 0.10720  0.15050  0.36410  Biso   1.000  H
  H6       1.0000 0.89280  0.65050  0.13590  Biso   1.000  H
  H7       1.0000 0.89280  0.84950  0.63590  Biso   1.000  H
  H8       1.0000 0.10720  0.34950  0.86410  Biso   1.000  H
  O1       1.0000 0.06780  0.10480  0.84230  Biso   1.000  O
  O2       1.0000 0.93220  0.60480  0.65770  Biso   1.000  O
  O3       1.0000 0.93220  0.89520  0.15770  Biso   1.000  O
  O4       1.0000 0.06780  0.39520  0.34230  Biso   1.000  O
  O5       1.0000 0.02340  0.21130  0.91350  Biso   1.000  O
  O6       1.0000 0.97660  0.71130  0.58650  Biso   1.000  O
  O7       1.0000 0.97660  0.78870  0.08650  Biso   1.000  O
  O8       1.0000 0.02340  0.28870  0.41350  Biso   1.000  O
  O9       1.0000 0.19470  0.20580  0.88390  Biso   1.000  O
  O10      1.0000 0.80530  0.70580  0.61610  Biso   1.000  O
  O11      1.0000 0.80530  0.79420  0.11610  Biso   1.000  O
  O12      1.0000 0.19470  0.29420  0.38390  Biso   1.000  O
  O13      1.0000 0.32790  0.93560  0.77682  Biso   1.000  O
  O14      1.0000 0.67210  0.43560  0.72318  Biso   1.000  O
  O15      1.0000 0.67210  0.06440  0.22318  Biso   1.000  O
  O16      1.0000 0.32790  0.56440  0.27682  Biso   1.000  O
  O17      1.0000 0.29360  0.81768  0.69040  Biso   1.000  O
  O18      1.0000 0.70640  0.31768  0.80960  Biso   1.000  O
  O19      1.0000 0.70640  0.18232  0.30960  Biso   1.000  O
  O20      1.0000 0.29360  0.68232  0.19040  Biso   1.000  O
  O21      1.0000 0.39590  0.89934  0.00947  Biso   1.000  O
  O22      1.0000 0.60410  0.39934  0.49053  Biso   1.000  O
  O23      1.0000 0.60410  0.10066  0.99053  Biso   1.000  O
  O24      1.0000 0.39590  0.60066  0.50947  Biso   1.000  O
  O25      1.0000 0.38670  0.10020  0.85320  Biso   1.000  O
  O26      1.0000 0.61330  0.60020  0.64680  Biso   1.000  O
  O27      1.0000 0.61330  0.89980  0.14680  Biso   1.000  O
  O28      1.0000 0.38670  0.39980  0.35320  Biso   1.000  O
  O29      1.0000 0.23120  0.65970  0.61020  Biso   1.000  O
  O30      1.0000 0.76880  0.15970  0.88980  Biso   1.000  O
  O31      1.0000 0.76880  0.34030  0.38980  Biso   1.000  O
  O32      1.0000 0.23120  0.84030  0.11020  Biso   1.000  O
  C1       1.0000 0.11060  0.76160  0.84800  Biso   1.000  C
  C2       1.0000 0.88940  0.26160  0.65200  Biso   1.000  C
  C3       1.0000 0.88940  0.23840  0.15200  Biso   1.000  C
  C4       1.0000 0.11060  0.73840  0.34800  Biso   1.000  C
  H9       1.0000 0.14670  0.70940  0.83810  Biso   1.000  H
  H10      1.0000 0.85330  0.20940  0.66190  Biso   1.000  H
  H11      1.0000 0.85330  0.29060  0.16190  Biso   1.000  H
  H12      1.0000 0.14670  0.79060  0.33810  Biso   1.000  H
  C5       1.0000 0.98530  0.76250  0.84490  Biso   1.000  C
  C6       1.0000 0.01470  0.26250  0.65510  Biso   1.000  C
  C7       1.0000 0.01470  0.23750  0.15510  Biso   1.000  C
  C8       1.0000 0.98530  0.73750  0.34490  Biso   1.000  C
  H13      1.0000 0.93880  0.71200  0.83310  Biso   1.000  H
  H14      1.0000 0.06120  0.21200  0.66690  Biso   1.000  H
  H15      1.0000 0.06120  0.28800  0.16690  Biso   1.000  H
  H16      1.0000 0.93880  0.78800  0.33310  Biso   1.000  H
  C9       1.0000 0.92940  0.83940  0.85970  Biso   1.000  C
  C10      1.0000 0.07060  0.33940  0.64030  Biso   1.000  C
  C11      1.0000 0.07060  0.16060  0.14030  Biso   1.000  C
  C12      1.0000 0.92940  0.66060  0.35970  Biso   1.000  C
  C13      1.0000 0.79490  0.84230  0.85630  Biso   1.000  C
  C14      1.0000 0.20510  0.34230  0.64370  Biso   1.000  C
  C15      1.0000 0.20510  0.15770  0.14370  Biso   1.000  C
  C16      1.0000 0.79490  0.65770  0.35630  Biso   1.000  C
  C17      1.0000 0.71270  0.78300  0.80270  Biso   1.000  C
  C18      1.0000 0.28730  0.28300  0.69730  Biso   1.000  C
  C19      1.0000 0.28730  0.21700  0.19730  Biso   1.000  C
  C20      1.0000 0.71270  0.71700  0.30270  Biso   1.000  C
  H17      1.0000 0.74050  0.74280  0.76520  Biso   1.000  H
  H18      1.0000 0.25950  0.24280  0.73480  Biso   1.000  H
  H19      1.0000 0.25950  0.25720  0.23480  Biso   1.000  H
  H20      1.0000 0.74050  0.75720  0.26520  Biso   1.000  H
  C21      1.0000 0.58990  0.78390  0.80520  Biso   1.000  C
  C22      1.0000 0.41010  0.28390  0.69480  Biso   1.000  C
  C23      1.0000 0.41010  0.21610  0.19480  Biso   1.000  C
  C24      1.0000 0.58990  0.71610  0.30520  Biso   1.000  C
  H21      1.0000 0.53600  0.74380  0.76850  Biso   1.000  H
  H22      1.0000 0.46400  0.24380  0.73150  Biso   1.000  H
  H23      1.0000 0.46400  0.25620  0.23150  Biso   1.000  H
  H24      1.0000 0.53600  0.75620  0.26850  Biso   1.000  H
  C25      1.0000 0.62150  0.89940  0.90590  Biso   1.000  C
  C26      1.0000 0.37850  0.39940  0.59410  Biso   1.000  C
  C27      1.0000 0.37850  0.10060  0.09410  Biso   1.000  C
  C28      1.0000 0.62150  0.60060  0.40590  Biso   1.000  C
  H25      1.0000 0.59020  0.94050  0.94050  Biso   1.000  H
  H26      1.0000 0.40980  0.44050  0.55950  Biso   1.000  H
  H27      1.0000 0.40980  0.05950  0.05950  Biso   1.000  H
  H28      1.0000 0.59020  0.55950  0.44050  Biso   1.000  H
  C29      1.0000 0.74570  0.90290  0.90650  Biso   1.000  C
  C30      1.0000 0.25430  0.40290  0.59350  Biso   1.000  C
  C31      1.0000 0.25430  0.09710  0.09350  Biso   1.000  C
  C32      1.0000 0.74570  0.59710  0.40650  Biso   1.000  C
  H29      1.0000 0.79640  0.94600  0.94070  Biso   1.000  H
  H30      1.0000 0.20360  0.44600  0.55930  Biso   1.000  H
  H31      1.0000 0.20360  0.05400  0.05930  Biso   1.000  H
  H32      1.0000 0.79640  0.55400  0.44070  Biso   1.000  H
  C33      1.0000 0.00380  0.91200  0.87630  Biso   1.000  C
  C34      1.0000 0.99620  0.41200  0.62370  Biso   1.000  C
  C35      1.0000 0.99620  0.08800  0.12370  Biso   1.000  C
  C36      1.0000 0.00380  0.58800  0.37630  Biso   1.000  C
  H33      1.0000 0.96990  0.96500  0.88640  Biso   1.000  H
  H34      1.0000 0.03010  0.46500  0.61360  Biso   1.000  H
  H35      1.0000 0.03010  0.03500  0.11360  Biso   1.000  H
  H36      1.0000 0.96990  0.53500  0.38640  Biso   1.000  H
  C37      1.0000 0.12750  0.90600  0.87790  Biso   1.000  C
  C38      1.0000 0.87250  0.40600  0.62210  Biso   1.000  C
  C39      1.0000 0.87250  0.09400  0.12210  Biso   1.000  C
  C40      1.0000 0.12750  0.59400  0.37790  Biso   1.000  C
  H37      1.0000 0.17570  0.95590  0.88890  Biso   1.000  H
  H38      1.0000 0.82430  0.45590  0.61110  Biso   1.000  H
  H39      1.0000 0.82430  0.04410  0.11110  Biso   1.000  H
  H40      1.0000 0.17570  0.54410  0.38890  Biso   1.000  H
  C41      1.0000 0.46190  0.69600  0.00590  Biso   1.000  C
  C42      1.0000 0.53810  0.19600  0.49410  Biso   1.000  C
  C43      1.0000 0.53810  0.30400  0.99410  Biso   1.000  C
  C44      1.0000 0.46190  0.80400  0.50590  Biso   1.000  C
  H41      1.0000 0.47910  0.74270  0.04740  Biso   1.000  H
  H42      1.0000 0.52090  0.24270  0.45260  Biso   1.000  H
  H43      1.0000 0.52090  0.25730  0.95260  Biso   1.000  H
  H44      1.0000 0.47910  0.75730  0.54740  Biso   1.000  H
  C45      1.0000 0.50140  0.61540  0.04060  Biso   1.000  C
  C46      1.0000 0.49860  0.11540  0.45940  Biso   1.000  C
  C47      1.0000 0.49860  0.38460  0.95940  Biso   1.000  C
  C48      1.0000 0.50140  0.88460  0.54060  Biso   1.000  C
  H45      1.0000 0.54430  0.60920  0.10430  Biso   1.000  H
  H46      1.0000 0.45570  0.10920  0.39570  Biso   1.000  H
  H47      1.0000 0.45570  0.39080  0.89570  Biso   1.000  H
  H48      1.0000 0.54430  0.89080  0.60430  Biso   1.000  H
  C49      1.0000 0.47850  0.54420  0.98240  Biso   1.000  C
  C50      1.0000 0.52150  0.04420  0.51760  Biso   1.000  C
  C51      1.0000 0.52150  0.45580  0.01760  Biso   1.000  C
  C52      1.0000 0.47850  0.95580  0.48240  Biso   1.000  C
  C53      1.0000 0.41330  0.55930  0.88940  Biso   1.000  C
  C54      1.0000 0.58670  0.05930  0.61060  Biso   1.000  C
  C55      1.0000 0.58670  0.44070  0.11060  Biso   1.000  C
  C56      1.0000 0.41330  0.94070  0.38940  Biso   1.000  C
  H49      1.0000 0.39340  0.51340  0.84690  Biso   1.000  H
  H50      1.0000 0.60660  0.01340  0.65310  Biso   1.000  H
  H51      1.0000 0.60660  0.48660  0.15310  Biso   1.000  H
  H52      1.0000 0.39340  0.98660  0.34690  Biso   1.000  H
  C57      1.0000 0.37760  0.64140  0.85890  Biso   1.000  C
  C58      1.0000 0.62240  0.14140  0.64110  Biso   1.000  C
  C59      1.0000 0.62240  0.35860  0.14110  Biso   1.000  C
  C60      1.0000 0.37760  0.85860  0.35890  Biso   1.000  C
  H53      1.0000 0.33560  0.64950  0.79530  Biso   1.000  H
  H54      1.0000 0.66440  0.14950  0.70470  Biso   1.000  H
  H55      1.0000 0.66440  0.35050  0.20470  Biso   1.000  H
  H56      1.0000 0.33560  0.85050  0.29530  Biso   1.000  H
  C61      1.0000 0.28860  0.89790  0.69570  Biso   1.000  C
  C62      1.0000 0.71140  0.39790  0.80430  Biso   1.000  C
  C63      1.0000 0.71140  0.10210  0.30430  Biso   1.000  C
  C64      1.0000 0.28860  0.60210  0.19570  Biso   1.000  C
  C65      1.0000 0.23630  0.95150  0.61060  Biso   1.000  C
  C66      1.0000 0.76370  0.45150  0.88940  Biso   1.000  C
  C67      1.0000 0.76370  0.04850  0.38940  Biso   1.000  C
  C68      1.0000 0.23630  0.54850  0.11060  Biso   1.000  C
  C69      1.0000 0.25380  0.04030  0.61030  Biso   1.000  C
  C70      1.0000 0.74620  0.54030  0.88970  Biso   1.000  C
  C71      1.0000 0.74620  0.95970  0.38970  Biso   1.000  C
  C72      1.0000 0.25380  0.45970  0.11030  Biso   1.000  C
  H57      1.0000 0.29750  0.06770  0.66570  Biso   1.000  H
  H58      1.0000 0.70250  0.56770  0.83430  Biso   1.000  H
  H59      1.0000 0.70250  0.93230  0.33430  Biso   1.000  H
  H60      1.0000 0.29750  0.43230  0.16570  Biso   1.000  H
  C73      1.0000 0.20740  0.08810  0.52930  Biso   1.000  C
  C74      1.0000 0.79260  0.58810  0.97070  Biso   1.000  C
  C75      1.0000 0.79260  0.91190  0.47070  Biso   1.000  C
  C76      1.0000 0.20740  0.41190  0.02930  Biso   1.000  C
  H61      1.0000 0.22160  0.14730  0.53020  Biso   1.000  H
  H62      1.0000 0.77840  0.64730  0.96980  Biso   1.000  H
  H63      1.0000 0.77840  0.85270  0.46980  Biso   1.000  H
  H64      1.0000 0.22160  0.35270  0.03020  Biso   1.000  H
  C77      1.0000 0.13940  0.04890  0.44610  Biso   1.000  C
  C78      1.0000 0.86060  0.54890  0.05390  Biso   1.000  C
  C79      1.0000 0.86060  0.95110  0.55390  Biso   1.000  C
  C80      1.0000 0.13940  0.45110  0.94610  Biso   1.000  C
  C81      1.0000 0.12020  0.96050  0.44660  Biso   1.000  C
  C82      1.0000 0.87980  0.46050  0.05340  Biso   1.000  C
  C83      1.0000 0.87980  0.03950  0.55340  Biso   1.000  C
  C84      1.0000 0.12020  0.53950  0.94660  Biso   1.000  C
  H65      1.0000 0.07440  0.93340  0.39160  Biso   1.000  H
  H66      1.0000 0.92560  0.43340  0.10840  Biso   1.000  H
  H67      1.0000 0.92560  0.06660  0.60840  Biso   1.000  H
  H68      1.0000 0.07440  0.56660  0.89160  Biso   1.000  H
  C85      1.0000 0.16800  0.91250  0.52720  Biso   1.000  C
  C86      1.0000 0.83200  0.41250  0.97280  Biso   1.000  C
  C87      1.0000 0.83200  0.08750  0.47280  Biso   1.000  C
  C88      1.0000 0.16800  0.58750  0.02720  Biso   1.000  C
  H69      1.0000 0.15460  0.85320  0.52600  Biso   1.000  H
  H70      1.0000 0.84540  0.35320  0.97400  Biso   1.000  H
  H71      1.0000 0.84540  0.14680  0.47400  Biso   1.000  H
  H72      1.0000 0.15460  0.64680  0.02600  Biso   1.000  H
