data_image0
_cell_length_a       19.3385
_cell_length_b       8.2962
_cell_length_c       21.9447
_cell_angle_alpha    90
_cell_angle_beta     90
_cell_angle_gamma    90

_symmetry_space_group_name_H-M    "P 1"
_symmetry_int_tables_number       1

loop_
  _symmetry_equiv_pos_as_xyz
  'x, y, z'

loop_
  _atom_site_label
  _atom_site_occupancy
  _atom_site_fract_x
  _atom_site_fract_y
  _atom_site_fract_z
  _atom_site_thermal_displace_type
  _atom_site_B_iso_or_equiv
  _atom_site_type_symbol
  Cu1      1.0000 0.32275  0.84051  0.18810  Biso   1.000  Cu
  Cu2      1.0000 0.17725  0.15949  0.68810  Biso   1.000  Cu
  Cu3      1.0000 0.67725  0.34051  0.31190  Biso   1.000  Cu
  Cu4      1.0000 0.82275  0.65949  0.81190  Biso   1.000  Cu
  Cu5      1.0000 0.67725  0.15949  0.81190  Biso   1.000  Cu
  Cu6      1.0000 0.82275  0.84051  0.31190  Biso   1.000  Cu
  Cu7      1.0000 0.32275  0.65949  0.68810  Biso   1.000  Cu
  Cu8      1.0000 0.17725  0.34051  0.18810  Biso   1.000  Cu
  O1       1.0000 0.35935  0.97590  0.01614  Biso   1.000  O
  O2       1.0000 0.14065  0.02410  0.51614  Biso   1.000  O
  O3       1.0000 0.64065  0.47590  0.48386  Biso   1.000  O
  O4       1.0000 0.85935  0.52410  0.98386  Biso   1.000  O
  O5       1.0000 0.64065  0.02410  0.98386  Biso   1.000  O
  O6       1.0000 0.85935  0.97590  0.48386  Biso   1.000  O
  O7       1.0000 0.35935  0.52410  0.51614  Biso   1.000  O
  O8       1.0000 0.14065  0.47590  0.01614  Biso   1.000  O
  O9       1.0000 0.15259  0.60570  0.23229  Biso   1.000  O
  O10      1.0000 0.34741  0.39430  0.73229  Biso   1.000  O
  O11      1.0000 0.84741  0.10570  0.26771  Biso   1.000  O
  O12      1.0000 0.65259  0.89430  0.76771  Biso   1.000  O
  O13      1.0000 0.84741  0.39430  0.76771  Biso   1.000  O
  O14      1.0000 0.65259  0.60570  0.26771  Biso   1.000  O
  O15      1.0000 0.15259  0.89430  0.73229  Biso   1.000  O
  O16      1.0000 0.34741  0.10570  0.23229  Biso   1.000  O
  N1       1.0000 0.30429  0.89470  0.10474  Biso   1.000  N
  N2       1.0000 0.19571  0.10530  0.60474  Biso   1.000  N
  N3       1.0000 0.69571  0.39470  0.39526  Biso   1.000  N
  N4       1.0000 0.80429  0.60530  0.89526  Biso   1.000  N
  N5       1.0000 0.69571  0.10530  0.89526  Biso   1.000  N
  N6       1.0000 0.80429  0.89470  0.39526  Biso   1.000  N
  N7       1.0000 0.30429  0.60530  0.60474  Biso   1.000  N
  N8       1.0000 0.19571  0.39470  0.10474  Biso   1.000  N
  N9       1.0000 0.42192  0.82390  0.15802  Biso   1.000  N
  N10      1.0000 0.07808  0.17610  0.65802  Biso   1.000  N
  N11      1.0000 0.57808  0.32390  0.34198  Biso   1.000  N
  N12      1.0000 0.92192  0.67610  0.84198  Biso   1.000  N
  N13      1.0000 0.57808  0.17610  0.84198  Biso   1.000  N
  N14      1.0000 0.92192  0.82390  0.34198  Biso   1.000  N
  N15      1.0000 0.42192  0.67610  0.65802  Biso   1.000  N
  N16      1.0000 0.07808  0.32390  0.15802  Biso   1.000  N
  N17      1.0000 0.31978  0.74530  0.27132  Biso   1.000  N
  N18      1.0000 0.18022  0.25470  0.77132  Biso   1.000  N
  N19      1.0000 0.68022  0.24530  0.22868  Biso   1.000  N
  N20      1.0000 0.81978  0.75470  0.72868  Biso   1.000  N
  N21      1.0000 0.68022  0.25470  0.72868  Biso   1.000  N
  N22      1.0000 0.81978  0.74530  0.22868  Biso   1.000  N
  N23      1.0000 0.31978  0.75470  0.77132  Biso   1.000  N
  N24      1.0000 0.18022  0.24530  0.27132  Biso   1.000  N
  N25      1.0000 0.22357  0.80670  0.19233  Biso   1.000  N
  N26      1.0000 0.27643  0.19330  0.69233  Biso   1.000  N
  N27      1.0000 0.77643  0.30670  0.30767  Biso   1.000  N
  N28      1.0000 0.72357  0.69330  0.80767  Biso   1.000  N
  N29      1.0000 0.77643  0.19330  0.80767  Biso   1.000  N
  N30      1.0000 0.72357  0.80670  0.30767  Biso   1.000  N
  N31      1.0000 0.22357  0.69330  0.69233  Biso   1.000  N
  N32      1.0000 0.27643  0.30670  0.19233  Biso   1.000  N
  C1       1.0000 0.23108  0.93440  0.09361  Biso   1.000  C
  C2       1.0000 0.26892  0.06560  0.59361  Biso   1.000  C
  C3       1.0000 0.76892  0.43440  0.40639  Biso   1.000  C
  C4       1.0000 0.73108  0.56560  0.90639  Biso   1.000  C
  C5       1.0000 0.76892  0.06560  0.90639  Biso   1.000  C
  C6       1.0000 0.73108  0.93440  0.40639  Biso   1.000  C
  C7       1.0000 0.23108  0.56560  0.59361  Biso   1.000  C
  C8       1.0000 0.26892  0.43440  0.09361  Biso   1.000  C
  H1       1.0000 0.22390  0.04410  0.10890  Biso   1.000  H
  H2       1.0000 0.27610  0.95590  0.60890  Biso   1.000  H
  H3       1.0000 0.77610  0.54410  0.39110  Biso   1.000  H
  H4       1.0000 0.72390  0.45590  0.89110  Biso   1.000  H
  H5       1.0000 0.77610  0.95590  0.89110  Biso   1.000  H
  H6       1.0000 0.72390  0.04410  0.39110  Biso   1.000  H
  H7       1.0000 0.22390  0.45590  0.60890  Biso   1.000  H
  H8       1.0000 0.27610  0.54410  0.10890  Biso   1.000  H
  C9       1.0000 0.20373  0.93180  0.02876  Biso   1.000  C
  C10      1.0000 0.29627  0.06820  0.52876  Biso   1.000  C
  C11      1.0000 0.79627  0.43180  0.47124  Biso   1.000  C
  C12      1.0000 0.70373  0.56820  0.97124  Biso   1.000  C
  C13      1.0000 0.79627  0.06820  0.97124  Biso   1.000  C
  C14      1.0000 0.70373  0.93180  0.47124  Biso   1.000  C
  C15      1.0000 0.20373  0.56820  0.52876  Biso   1.000  C
  C16      1.0000 0.29627  0.43180  0.02876  Biso   1.000  C
  H9       1.0000 0.23050  0.00520  0.00370  Biso   1.000  H
  H10      1.0000 0.26950  0.99480  0.50370  Biso   1.000  H
  H11      1.0000 0.76950  0.50520  0.49630  Biso   1.000  H
  H12      1.0000 0.73050  0.49480  0.99630  Biso   1.000  H
  H13      1.0000 0.76950  0.99480  0.99630  Biso   1.000  H
  H14      1.0000 0.73050  0.00520  0.49630  Biso   1.000  H
  H15      1.0000 0.23050  0.49480  0.50370  Biso   1.000  H
  H16      1.0000 0.26950  0.50520  0.00370  Biso   1.000  H
  H17      1.0000 0.20850  0.82420  0.01190  Biso   1.000  H
  H18      1.0000 0.29150  0.17580  0.51190  Biso   1.000  H
  H19      1.0000 0.79150  0.32420  0.48810  Biso   1.000  H
  H20      1.0000 0.70850  0.67580  0.98810  Biso   1.000  H
  H21      1.0000 0.79150  0.17580  0.98810  Biso   1.000  H
  H22      1.0000 0.70850  0.82420  0.48810  Biso   1.000  H
  H23      1.0000 0.20850  0.67580  0.51190  Biso   1.000  H
  H24      1.0000 0.29150  0.32420  0.01190  Biso   1.000  H
  C17      1.0000 0.12823  0.98120  0.02792  Biso   1.000  C
  C18      1.0000 0.37177  0.01880  0.52792  Biso   1.000  C
  C19      1.0000 0.87177  0.48120  0.47208  Biso   1.000  C
  C20      1.0000 0.62823  0.51880  0.97208  Biso   1.000  C
  C21      1.0000 0.87177  0.01880  0.97208  Biso   1.000  C
  C22      1.0000 0.62823  0.98120  0.47208  Biso   1.000  C
  C23      1.0000 0.12823  0.51880  0.52792  Biso   1.000  C
  C24      1.0000 0.37177  0.48120  0.02792  Biso   1.000  C
  H25      1.0000 0.12490  0.09440  0.03850  Biso   1.000  H
  H26      1.0000 0.37510  0.90560  0.53850  Biso   1.000  H
  H27      1.0000 0.87510  0.59440  0.46150  Biso   1.000  H
  H28      1.0000 0.62490  0.40560  0.96150  Biso   1.000  H
  H29      1.0000 0.87510  0.90560  0.96150  Biso   1.000  H
  H30      1.0000 0.62490  0.09440  0.46150  Biso   1.000  H
  H31      1.0000 0.12490  0.40560  0.53850  Biso   1.000  H
  H32      1.0000 0.37510  0.59440  0.03850  Biso   1.000  H
  H33      1.0000 0.11050  0.96850  0.98690  Biso   1.000  H
  H34      1.0000 0.38950  0.03150  0.48690  Biso   1.000  H
  H35      1.0000 0.88950  0.46850  0.51310  Biso   1.000  H
  H36      1.0000 0.61050  0.53150  0.01310  Biso   1.000  H
  H37      1.0000 0.88950  0.03150  0.01310  Biso   1.000  H
  H38      1.0000 0.61050  0.96850  0.51310  Biso   1.000  H
  H39      1.0000 0.11050  0.53150  0.48690  Biso   1.000  H
  H40      1.0000 0.38950  0.46850  0.98690  Biso   1.000  H
  C25      1.0000 0.08351  0.88460  0.07122  Biso   1.000  C
  C26      1.0000 0.41649  0.11540  0.57122  Biso   1.000  C
  C27      1.0000 0.91649  0.38460  0.42878  Biso   1.000  C
  C28      1.0000 0.58351  0.61540  0.92878  Biso   1.000  C
  C29      1.0000 0.91649  0.11540  0.92878  Biso   1.000  C
  C30      1.0000 0.58351  0.88460  0.42878  Biso   1.000  C
  C31      1.0000 0.08351  0.61540  0.57122  Biso   1.000  C
  C32      1.0000 0.41649  0.38460  0.07122  Biso   1.000  C
  H41      1.0000 0.07930  0.77510  0.05630  Biso   1.000  H
  H42      1.0000 0.42070  0.22490  0.55630  Biso   1.000  H
  H43      1.0000 0.92070  0.27510  0.44370  Biso   1.000  H
  H44      1.0000 0.57930  0.72490  0.94370  Biso   1.000  H
  H45      1.0000 0.92070  0.22490  0.94370  Biso   1.000  H
  H46      1.0000 0.57930  0.77510  0.44370  Biso   1.000  H
  H47      1.0000 0.07930  0.72490  0.55630  Biso   1.000  H
  H48      1.0000 0.42070  0.27510  0.05630  Biso   1.000  H
  H49      1.0000 0.03760  0.93140  0.07260  Biso   1.000  H
  H50      1.0000 0.46240  0.06860  0.57260  Biso   1.000  H
  H51      1.0000 0.96240  0.43140  0.42740  Biso   1.000  H
  H52      1.0000 0.53760  0.56860  0.92740  Biso   1.000  H
  H53      1.0000 0.96240  0.06860  0.92740  Biso   1.000  H
  H54      1.0000 0.53760  0.93140  0.42740  Biso   1.000  H
  H55      1.0000 0.03760  0.56860  0.57260  Biso   1.000  H
  H56      1.0000 0.46240  0.43140  0.07260  Biso   1.000  H
  C33      1.0000 0.11375  0.88190  0.13501  Biso   1.000  C
  C34      1.0000 0.38625  0.11810  0.63501  Biso   1.000  C
  C35      1.0000 0.88625  0.38190  0.36499  Biso   1.000  C
  C36      1.0000 0.61375  0.61810  0.86499  Biso   1.000  C
  C37      1.0000 0.88625  0.11810  0.86499  Biso   1.000  C
  C38      1.0000 0.61375  0.88190  0.36499  Biso   1.000  C
  C39      1.0000 0.11375  0.61810  0.63501  Biso   1.000  C
  C40      1.0000 0.38625  0.38190  0.13501  Biso   1.000  C
  H57      1.0000 0.11210  0.98950  0.15230  Biso   1.000  H
  H58      1.0000 0.38790  0.01050  0.65230  Biso   1.000  H
  H59      1.0000 0.88790  0.48950  0.34770  Biso   1.000  H
  H60      1.0000 0.61210  0.51050  0.84770  Biso   1.000  H
  H61      1.0000 0.88790  0.01050  0.84770  Biso   1.000  H
  H62      1.0000 0.61210  0.98950  0.34770  Biso   1.000  H
  H63      1.0000 0.11210  0.51050  0.65230  Biso   1.000  H
  H64      1.0000 0.38790  0.48950  0.15230  Biso   1.000  H
  H65      1.0000 0.08640  0.81140  0.16070  Biso   1.000  H
  H66      1.0000 0.41360  0.18860  0.66070  Biso   1.000  H
  H67      1.0000 0.91360  0.31140  0.33930  Biso   1.000  H
  H68      1.0000 0.58640  0.68860  0.83930  Biso   1.000  H
  H69      1.0000 0.91360  0.18860  0.83930  Biso   1.000  H
  H70      1.0000 0.58640  0.81140  0.33930  Biso   1.000  H
  H71      1.0000 0.08640  0.68860  0.66070  Biso   1.000  H
  H72      1.0000 0.41360  0.31140  0.16070  Biso   1.000  H
  C41      1.0000 0.18758  0.82330  0.13362  Biso   1.000  C
  C42      1.0000 0.31242  0.17670  0.63362  Biso   1.000  C
  C43      1.0000 0.81242  0.32330  0.36638  Biso   1.000  C
  C44      1.0000 0.68758  0.67670  0.86638  Biso   1.000  C
  C45      1.0000 0.81242  0.17670  0.86638  Biso   1.000  C
  C46      1.0000 0.68758  0.82330  0.36638  Biso   1.000  C
  C47      1.0000 0.18758  0.67670  0.63362  Biso   1.000  C
  C48      1.0000 0.31242  0.32330  0.13362  Biso   1.000  C
  H73      1.0000 0.18740  0.71690  0.11430  Biso   1.000  H
  H74      1.0000 0.31260  0.28310  0.61430  Biso   1.000  H
  H75      1.0000 0.81260  0.21690  0.38570  Biso   1.000  H
  H76      1.0000 0.68740  0.78310  0.88570  Biso   1.000  H
  H77      1.0000 0.81260  0.28310  0.88570  Biso   1.000  H
  H78      1.0000 0.68740  0.71690  0.38570  Biso   1.000  H
  H79      1.0000 0.18740  0.78310  0.61430  Biso   1.000  H
  H80      1.0000 0.31260  0.21690  0.11430  Biso   1.000  H
  C49      1.0000 0.35725  0.92160  0.06852  Biso   1.000  C
  C50      1.0000 0.14275  0.07840  0.56852  Biso   1.000  C
  C51      1.0000 0.64275  0.42160  0.43148  Biso   1.000  C
  C52      1.0000 0.85725  0.57840  0.93148  Biso   1.000  C
  C53      1.0000 0.64275  0.07840  0.93148  Biso   1.000  C
  C54      1.0000 0.85725  0.92160  0.43148  Biso   1.000  C
  C55      1.0000 0.35725  0.57840  0.56852  Biso   1.000  C
  C56      1.0000 0.14275  0.42160  0.06852  Biso   1.000  C
  C57      1.0000 0.42412  0.86980  0.09869  Biso   1.000  C
  C58      1.0000 0.07588  0.13020  0.59869  Biso   1.000  C
  C59      1.0000 0.57588  0.36980  0.40131  Biso   1.000  C
  C60      1.0000 0.92412  0.63020  0.90131  Biso   1.000  C
  C61      1.0000 0.57588  0.13020  0.90131  Biso   1.000  C
  C62      1.0000 0.92412  0.86980  0.40131  Biso   1.000  C
  C63      1.0000 0.42412  0.63020  0.59869  Biso   1.000  C
  C64      1.0000 0.07588  0.36980  0.09869  Biso   1.000  C
  C65      1.0000 0.48613  0.86680  0.06640  Biso   1.000  C
  C66      1.0000 0.01387  0.13320  0.56640  Biso   1.000  C
  C67      1.0000 0.51387  0.36680  0.43360  Biso   1.000  C
  C68      1.0000 0.98613  0.63320  0.93360  Biso   1.000  C
  C69      1.0000 0.51387  0.13320  0.93360  Biso   1.000  C
  C70      1.0000 0.98613  0.86680  0.43360  Biso   1.000  C
  C71      1.0000 0.48613  0.63320  0.56640  Biso   1.000  C
  C72      1.0000 0.01387  0.36680  0.06640  Biso   1.000  C
  H81      1.0000 0.48710  0.89540  0.02540  Biso   1.000  H
  H82      1.0000 0.01290  0.10460  0.52540  Biso   1.000  H
  H83      1.0000 0.51290  0.39540  0.47460  Biso   1.000  H
  H84      1.0000 0.98710  0.60460  0.97460  Biso   1.000  H
  H85      1.0000 0.51290  0.10460  0.97460  Biso   1.000  H
  H86      1.0000 0.98710  0.89540  0.47460  Biso   1.000  H
  H87      1.0000 0.48710  0.60460  0.52540  Biso   1.000  H
  H88      1.0000 0.01290  0.39540  0.02540  Biso   1.000  H
  C73      1.0000 0.54552  0.82170  0.09536  Biso   1.000  C
  C74      1.0000 0.95448  0.17830  0.59536  Biso   1.000  C
  C75      1.0000 0.45448  0.32170  0.40464  Biso   1.000  C
  C76      1.0000 0.04552  0.67830  0.90464  Biso   1.000  C
  C77      1.0000 0.45448  0.17830  0.90464  Biso   1.000  C
  C78      1.0000 0.04552  0.82170  0.40464  Biso   1.000  C
  C79      1.0000 0.54552  0.67830  0.59536  Biso   1.000  C
  C80      1.0000 0.95448  0.32170  0.09536  Biso   1.000  C
  H89      1.0000 0.58760  0.82320  0.07480  Biso   1.000  H
  H90      1.0000 0.91240  0.17680  0.57480  Biso   1.000  H
  H91      1.0000 0.41240  0.32320  0.42520  Biso   1.000  H
  H92      1.0000 0.08760  0.67680  0.92520  Biso   1.000  H
  H93      1.0000 0.41240  0.17680  0.92520  Biso   1.000  H
  H94      1.0000 0.08760  0.82320  0.42520  Biso   1.000  H
  H95      1.0000 0.58760  0.67680  0.57480  Biso   1.000  H
  H96      1.0000 0.91240  0.32320  0.07480  Biso   1.000  H
  C81      1.0000 0.54235  0.77430  0.15479  Biso   1.000  C
  C82      1.0000 0.95765  0.22570  0.65479  Biso   1.000  C
  C83      1.0000 0.45765  0.27430  0.34521  Biso   1.000  C
  C84      1.0000 0.04235  0.72570  0.84521  Biso   1.000  C
  C85      1.0000 0.45765  0.22570  0.84521  Biso   1.000  C
  C86      1.0000 0.04235  0.77430  0.34521  Biso   1.000  C
  C87      1.0000 0.54235  0.72570  0.65479  Biso   1.000  C
  C88      1.0000 0.95765  0.27430  0.15479  Biso   1.000  C
  H97      1.0000 0.58260  0.74220  0.17460  Biso   1.000  H
  H98      1.0000 0.91740  0.25780  0.67460  Biso   1.000  H
  H99      1.0000 0.41740  0.24220  0.32540  Biso   1.000  H
  H100     1.0000 0.08260  0.75780  0.82540  Biso   1.000  H
  H101     1.0000 0.41740  0.25780  0.82540  Biso   1.000  H
  H102     1.0000 0.08260  0.74220  0.32540  Biso   1.000  H
  H103     1.0000 0.58260  0.75780  0.67460  Biso   1.000  H
  H104     1.0000 0.91740  0.24220  0.17460  Biso   1.000  H
  C89      1.0000 0.48065  0.77290  0.18600  Biso   1.000  C
  C90      1.0000 0.01935  0.22710  0.68600  Biso   1.000  C
  C91      1.0000 0.51935  0.27290  0.31400  Biso   1.000  C
  C92      1.0000 0.98065  0.72710  0.81400  Biso   1.000  C
  C93      1.0000 0.51935  0.22710  0.81400  Biso   1.000  C
  C94      1.0000 0.98065  0.77290  0.31400  Biso   1.000  C
  C95      1.0000 0.48065  0.72710  0.68600  Biso   1.000  C
  C96      1.0000 0.01935  0.27290  0.18600  Biso   1.000  C
  C97      1.0000 0.47588  0.70930  0.24904  Biso   1.000  C
  C98      1.0000 0.02412  0.29070  0.74904  Biso   1.000  C
  C99      1.0000 0.52412  0.20930  0.25096  Biso   1.000  C
  C100     1.0000 0.97588  0.79070  0.75096  Biso   1.000  C
  C101     1.0000 0.52412  0.29070  0.75096  Biso   1.000  C
  C102     1.0000 0.97588  0.70930  0.25096  Biso   1.000  C
  C103     1.0000 0.47588  0.79070  0.74904  Biso   1.000  C
  C104     1.0000 0.02412  0.20930  0.24904  Biso   1.000  C
  H105     1.0000 0.52250  0.69190  0.26390  Biso   1.000  H
  H106     1.0000 0.97750  0.30810  0.76390  Biso   1.000  H
  H107     1.0000 0.47750  0.19190  0.23610  Biso   1.000  H
  H108     1.0000 0.02250  0.80810  0.73610  Biso   1.000  H
  H109     1.0000 0.47750  0.30810  0.73610  Biso   1.000  H
  H110     1.0000 0.02250  0.69190  0.23610  Biso   1.000  H
  H111     1.0000 0.52250  0.80810  0.76390  Biso   1.000  H
  H112     1.0000 0.97750  0.19190  0.26390  Biso   1.000  H
  H113     1.0000 0.45340  0.60480  0.24730  Biso   1.000  H
  H114     1.0000 0.04660  0.39520  0.74730  Biso   1.000  H
  H115     1.0000 0.54660  0.10480  0.25270  Biso   1.000  H
  H116     1.0000 0.95340  0.89520  0.75270  Biso   1.000  H
  H117     1.0000 0.54660  0.39520  0.75270  Biso   1.000  H
  H118     1.0000 0.95340  0.60480  0.25270  Biso   1.000  H
  H119     1.0000 0.45340  0.89520  0.74730  Biso   1.000  H
  H120     1.0000 0.04660  0.10480  0.24730  Biso   1.000  H
  C105     1.0000 0.43696  0.81370  0.29652  Biso   1.000  C
  C106     1.0000 0.06304  0.18630  0.79652  Biso   1.000  C
  C107     1.0000 0.56304  0.31370  0.20348  Biso   1.000  C
  C108     1.0000 0.93696  0.68630  0.70348  Biso   1.000  C
  C109     1.0000 0.56304  0.18630  0.70348  Biso   1.000  C
  C110     1.0000 0.93696  0.81370  0.20348  Biso   1.000  C
  C111     1.0000 0.43696  0.68630  0.79652  Biso   1.000  C
  C112     1.0000 0.06304  0.31370  0.29652  Biso   1.000  C
  H121     1.0000 0.46550  0.82440  0.33270  Biso   1.000  H
  H122     1.0000 0.03450  0.17560  0.83270  Biso   1.000  H
  H123     1.0000 0.53450  0.32440  0.16730  Biso   1.000  H
  H124     1.0000 0.96550  0.67560  0.66730  Biso   1.000  H
  H125     1.0000 0.53450  0.17560  0.66730  Biso   1.000  H
  H126     1.0000 0.96550  0.82440  0.16730  Biso   1.000  H
  H127     1.0000 0.46550  0.67560  0.83270  Biso   1.000  H
  H128     1.0000 0.03450  0.32440  0.33270  Biso   1.000  H
  H129     1.0000 0.43000  0.92070  0.27980  Biso   1.000  H
  H130     1.0000 0.07000  0.07930  0.77980  Biso   1.000  H
  H131     1.0000 0.57000  0.42070  0.22020  Biso   1.000  H
  H132     1.0000 0.93000  0.57930  0.72020  Biso   1.000  H
  H133     1.0000 0.57000  0.07930  0.72020  Biso   1.000  H
  H134     1.0000 0.93000  0.92070  0.22020  Biso   1.000  H
  H135     1.0000 0.43000  0.57930  0.77980  Biso   1.000  H
  H136     1.0000 0.07000  0.42070  0.27980  Biso   1.000  H
  C113     1.0000 0.36937  0.74590  0.31408  Biso   1.000  C
  C114     1.0000 0.13063  0.25410  0.81408  Biso   1.000  C
  C115     1.0000 0.63063  0.24590  0.18592  Biso   1.000  C
  C116     1.0000 0.86937  0.75410  0.68592  Biso   1.000  C
  C117     1.0000 0.63063  0.25410  0.68592  Biso   1.000  C
  C118     1.0000 0.86937  0.74590  0.18592  Biso   1.000  C
  C119     1.0000 0.36937  0.75410  0.81408  Biso   1.000  C
  C120     1.0000 0.13063  0.24590  0.31408  Biso   1.000  C
  C121     1.0000 0.35629  0.67740  0.37054  Biso   1.000  C
  C122     1.0000 0.14371  0.32260  0.87054  Biso   1.000  C
  C123     1.0000 0.64371  0.17740  0.12946  Biso   1.000  C
  C124     1.0000 0.85629  0.82260  0.62946  Biso   1.000  C
  C125     1.0000 0.64371  0.32260  0.62946  Biso   1.000  C
  C126     1.0000 0.85629  0.67740  0.12946  Biso   1.000  C
  C127     1.0000 0.35629  0.82260  0.87054  Biso   1.000  C
  C128     1.0000 0.14371  0.17740  0.37054  Biso   1.000  C
  H137     1.0000 0.39060  0.67720  0.40030  Biso   1.000  H
  H138     1.0000 0.10940  0.32280  0.90030  Biso   1.000  H
  H139     1.0000 0.60940  0.17720  0.09970  Biso   1.000  H
  H140     1.0000 0.89060  0.82280  0.59970  Biso   1.000  H
  H141     1.0000 0.60940  0.32280  0.59970  Biso   1.000  H
  H142     1.0000 0.89060  0.67720  0.09970  Biso   1.000  H
  H143     1.0000 0.39060  0.82280  0.90030  Biso   1.000  H
  H144     1.0000 0.10940  0.17720  0.40030  Biso   1.000  H
  C129     1.0000 0.29289  0.60960  0.38288  Biso   1.000  C
  C130     1.0000 0.20711  0.39040  0.88288  Biso   1.000  C
  C131     1.0000 0.70711  0.10960  0.11712  Biso   1.000  C
  C132     1.0000 0.79289  0.89040  0.61712  Biso   1.000  C
  C133     1.0000 0.70711  0.39040  0.61712  Biso   1.000  C
  C134     1.0000 0.79289  0.60960  0.11712  Biso   1.000  C
  C135     1.0000 0.29289  0.89040  0.88288  Biso   1.000  C
  C136     1.0000 0.20711  0.10960  0.38288  Biso   1.000  C
  H145     1.0000 0.28410  0.56370  0.42080  Biso   1.000  H
  H146     1.0000 0.21590  0.43630  0.92080  Biso   1.000  H
  H147     1.0000 0.71590  0.06370  0.07920  Biso   1.000  H
  H148     1.0000 0.78410  0.93630  0.57920  Biso   1.000  H
  H149     1.0000 0.71590  0.43630  0.57920  Biso   1.000  H
  H150     1.0000 0.78410  0.56370  0.07920  Biso   1.000  H
  H151     1.0000 0.28410  0.93630  0.92080  Biso   1.000  H
  H152     1.0000 0.21590  0.06370  0.42080  Biso   1.000  H
  C137     1.0000 0.24221  0.61050  0.33803  Biso   1.000  C
  C138     1.0000 0.25779  0.38950  0.83803  Biso   1.000  C
  C139     1.0000 0.75779  0.11050  0.16197  Biso   1.000  C
  C140     1.0000 0.74221  0.88950  0.66197  Biso   1.000  C
  C141     1.0000 0.75779  0.38950  0.66197  Biso   1.000  C
  C142     1.0000 0.74221  0.61050  0.16197  Biso   1.000  C
  C143     1.0000 0.24221  0.88950  0.83803  Biso   1.000  C
  C144     1.0000 0.25779  0.11050  0.33803  Biso   1.000  C
  H153     1.0000 0.19930  0.56290  0.34480  Biso   1.000  H
  H154     1.0000 0.30070  0.43710  0.84480  Biso   1.000  H
  H155     1.0000 0.80070  0.06290  0.15520  Biso   1.000  H
  H156     1.0000 0.69930  0.93710  0.65520  Biso   1.000  H
  H157     1.0000 0.80070  0.43710  0.65520  Biso   1.000  H
  H158     1.0000 0.69930  0.56290  0.15520  Biso   1.000  H
  H159     1.0000 0.19930  0.93710  0.84480  Biso   1.000  H
  H160     1.0000 0.30070  0.06290  0.34480  Biso   1.000  H
  C145     1.0000 0.25715  0.68310  0.28385  Biso   1.000  C
  C146     1.0000 0.24285  0.31690  0.78385  Biso   1.000  C
  C147     1.0000 0.74285  0.18310  0.21615  Biso   1.000  C
  C148     1.0000 0.75715  0.81690  0.71615  Biso   1.000  C
  C149     1.0000 0.74285  0.31690  0.71615  Biso   1.000  C
  C150     1.0000 0.75715  0.68310  0.21615  Biso   1.000  C
  C151     1.0000 0.25715  0.81690  0.78385  Biso   1.000  C
  C152     1.0000 0.24285  0.18310  0.28385  Biso   1.000  C
  C153     1.0000 0.20481  0.69670  0.23194  Biso   1.000  C
  C154     1.0000 0.29519  0.30330  0.73194  Biso   1.000  C
  C155     1.0000 0.79519  0.19670  0.26806  Biso   1.000  C
  C156     1.0000 0.70481  0.80330  0.76806  Biso   1.000  C
  C157     1.0000 0.79519  0.30330  0.76806  Biso   1.000  C
  C158     1.0000 0.70481  0.69670  0.26806  Biso   1.000  C
  C159     1.0000 0.20481  0.80330  0.73194  Biso   1.000  C
  C160     1.0000 0.29519  0.19670  0.23194  Biso   1.000  C
