data_image0
_cell_length_a       12.1479
_cell_length_b       13.0321
_cell_length_c       13.1281
_cell_angle_alpha    64.689
_cell_angle_beta     89.711
_cell_angle_gamma    64.509

_symmetry_space_group_name_H-M    "P 1"
_symmetry_int_tables_number       1

loop_
  _symmetry_equiv_pos_as_xyz
  'x, y, z'

loop_
  _atom_site_label
  _atom_site_occupancy
  _atom_site_fract_x
  _atom_site_fract_y
  _atom_site_fract_z
  _atom_site_thermal_displace_type
  _atom_site_B_iso_or_equiv
  _atom_site_type_symbol
  Cu1      1.0000 0.79560  0.51870  0.71180  Biso   1.000  Cu
  Cu2      1.0000 0.20440  0.48130  0.28820  Biso   1.000  Cu
  Cu3      1.0000 0.93470  0.37310  0.39000  Biso   1.000  Cu
  Cu4      1.0000 0.06530  0.62690  0.61000  Biso   1.000  Cu
  Cu5      1.0000 0.50000  0.50000  0.00000  Biso   1.000  Cu
  N1       1.0000 0.66700  0.63900  0.75300  Biso   1.000  N
  N2       1.0000 0.33300  0.36100  0.24700  Biso   1.000  N
  N3       1.0000 0.62700  0.38200  0.95600  Biso   1.000  N
  N4       1.0000 0.37300  0.61800  0.04400  Biso   1.000  N
  N5       1.0000 0.79100  0.51800  0.39100  Biso   1.000  N
  N6       1.0000 0.20900  0.48200  0.60900  Biso   1.000  N
  N7       1.0000 0.99800  0.33400  0.54200  Biso   1.000  N
  N8       1.0000 0.00200  0.66600  0.45800  Biso   1.000  N
  N9       1.0000 0.80900  0.20200  0.19000  Biso   1.000  N
  N10      1.0000 0.19100  0.79800  0.81000  Biso   1.000  N
  H1       1.0000 0.87780  0.20500  0.18080  Biso   1.000  H
  H2       1.0000 0.12220  0.79500  0.81920  Biso   1.000  H
  H3       1.0000 0.73860  0.27050  0.15190  Biso   1.000  H
  H4       1.0000 0.26140  0.72950  0.84810  Biso   1.000  H
  N11      1.0000 0.68200  0.27200  0.48500  Biso   1.000  N
  N12      1.0000 0.31800  0.72800  0.51500  Biso   1.000  N
  N13      1.0000 0.13100  0.20500  0.03600  Biso   1.000  N
  N14      1.0000 0.86900  0.79500  0.96400  Biso   1.000  N
  O1       1.0000 0.88600  0.61700  0.67800  Biso   1.000  O
  O2       1.0000 0.11400  0.38300  0.32200  Biso   1.000  O
  O3       1.0000 0.91400  0.78200  0.61100  Biso   1.000  O
  O4       1.0000 0.08600  0.21800  0.38900  Biso   1.000  O
  O5       1.0000 0.52900  0.63300  0.87680  Biso   1.000  O
  O6       1.0000 0.47100  0.36700  0.12320  Biso   1.000  O
  O7       1.0000 0.75000  0.39300  0.82000  Biso   1.000  O
  O8       1.0000 0.25000  0.60700  0.18000  Biso   1.000  O
  O9       1.0000 0.84800  0.38300  0.26200  Biso   1.000  O
  O10      1.0000 0.15200  0.61700  0.73800  Biso   1.000  O
  O11      1.0000 0.69200  0.45300  0.13000  Biso   1.000  O
  O12      1.0000 0.30800  0.54700  0.87000  Biso   1.000  O
  O13      1.0000 0.71600  0.58300  0.52800  Biso   1.000  O
  O14      1.0000 0.28400  0.41700  0.47200  Biso   1.000  O
  O15      1.0000 0.93000  0.39000  0.68300  Biso   1.000  O
  O16      1.0000 0.07000  0.61000  0.31700  Biso   1.000  O
  O17      1.0000 0.87000  0.10800  0.49500  Biso   1.000  O
  O18      1.0000 0.13000  0.89200  0.50500  Biso   1.000  O
  O19      1.0000 0.10500  0.10000  0.21300  Biso   1.000  O
  O20      1.0000 0.89500  0.90000  0.78700  Biso   1.000  O
  C1       1.0000 0.71400  0.82000  0.65300  Biso   1.000  C
  C2       1.0000 0.28600  0.18000  0.34700  Biso   1.000  C
  C3       1.0000 0.67700  0.94700  0.60500  Biso   1.000  C
  C4       1.0000 0.32300  0.05300  0.39500  Biso   1.000  C
  H5       1.0000 0.73380  0.97630  0.57540  Biso   1.000  H
  H6       1.0000 0.26620  0.02370  0.42460  Biso   1.000  H
  C5       1.0000 0.55800  0.03600  0.60000  Biso   1.000  C
  C6       1.0000 0.44200  0.96400  0.40000  Biso   1.000  C
  H7       1.0000 0.53380  0.12410  0.56380  Biso   1.000  H
  H8       1.0000 0.46620  0.87590  0.43620  Biso   1.000  H
  C7       1.0000 0.47800  0.99200  0.64800  Biso   1.000  C
  C8       1.0000 0.52200  0.00800  0.35200  Biso   1.000  C
  H9       1.0000 0.39920  0.05020  0.64770  Biso   1.000  H
  H10      1.0000 0.60080  0.94980  0.35230  Biso   1.000  H
  C9       1.0000 0.51200  0.86400  0.69800  Biso   1.000  C
  C10      1.0000 0.48800  0.13600  0.30200  Biso   1.000  C
  H11      1.0000 0.45510  0.83690  0.72990  Biso   1.000  H
  H12      1.0000 0.54490  0.16310  0.27010  Biso   1.000  H
  C11      1.0000 0.63000  0.77300  0.70200  Biso   1.000  C
  C12      1.0000 0.37000  0.22700  0.29800  Biso   1.000  C
  C13      1.0000 0.61600  0.58300  0.83100  Biso   1.000  C
  C14      1.0000 0.38400  0.41700  0.16900  Biso   1.000  C
  C15      1.0000 0.66900  0.44000  0.87100  Biso   1.000  C
  C16      1.0000 0.33100  0.56000  0.12900  Biso   1.000  C
  C17      1.0000 0.69400  0.24100  0.01300  Biso   1.000  C
  C18      1.0000 0.30600  0.75900  0.98700  Biso   1.000  C
  H13      1.0000 0.70240  0.21140  0.95580  Biso   1.000  H
  H14      1.0000 0.29760  0.78860  0.04420  Biso   1.000  H
  H15      1.0000 0.64700  0.20700  0.06510  Biso   1.000  H
  H16      1.0000 0.35300  0.79300  0.93490  Biso   1.000  H
  C19      1.0000 0.82400  0.19100  0.08200  Biso   1.000  C
  C20      1.0000 0.17600  0.80900  0.91800  Biso   1.000  C
  H17      1.0000 0.87670  0.10140  0.10050  Biso   1.000  H
  H18      1.0000 0.12330  0.89860  0.89950  Biso   1.000  H
  H19      1.0000 0.86300  0.24090  0.03620  Biso   1.000  H
  H20      1.0000 0.13700  0.75910  0.96380  Biso   1.000  H
  C21      1.0000 0.84300  0.73200  0.65000  Biso   1.000  C
  C22      1.0000 0.15700  0.26800  0.35000  Biso   1.000  C
  C23      1.0000 0.67400  0.59900  0.20000  Biso   1.000  C
  C24      1.0000 0.32600  0.40100  0.80000  Biso   1.000  C
  C25      1.0000 0.58300  0.70400  0.10000  Biso   1.000  C
  C26      1.0000 0.41700  0.29600  0.90000  Biso   1.000  C
  H21      1.0000 0.56910  0.69030  0.03810  Biso   1.000  H
  H22      1.0000 0.43090  0.30970  0.96190  Biso   1.000  H
  C27      1.0000 0.51500  0.82100  0.09000  Biso   1.000  C
  C28      1.0000 0.48500  0.17900  0.91000  Biso   1.000  C
  H23      1.0000 0.45630  0.88820  0.02300  Biso   1.000  H
  H24      1.0000 0.54370  0.11180  0.97700  Biso   1.000  H
  C29      1.0000 0.53500  0.84200  0.18500  Biso   1.000  C
  C30      1.0000 0.46500  0.15800  0.81500  Biso   1.000  C
  H25      1.0000 0.49080  0.92340  0.17940  Biso   1.000  H
  H26      1.0000 0.50920  0.07660  0.82060  Biso   1.000  H
  C31      1.0000 0.62000  0.74200  0.28400  Biso   1.000  C
  C32      1.0000 0.38000  0.25800  0.71600  Biso   1.000  C
  H27      1.0000 0.62880  0.75490  0.34680  Biso   1.000  H
  H28      1.0000 0.37120  0.24510  0.65320  Biso   1.000  H
  C33      1.0000 0.69500  0.62000  0.29200  Biso   1.000  C
  C34      1.0000 0.30500  0.38000  0.70800  Biso   1.000  C
  C35      1.0000 0.79300  0.51400  0.49400  Biso   1.000  C
  C36      1.0000 0.20700  0.48600  0.50600  Biso   1.000  C
  C37      1.0000 0.91700  0.40300  0.58000  Biso   1.000  C
  C38      1.0000 0.08300  0.59700  0.42000  Biso   1.000  C
  C39      1.0000 0.11700  0.23300  0.61900  Biso   1.000  C
  C40      1.0000 0.88300  0.76700  0.38100  Biso   1.000  C
  H29      1.0000 0.13200  0.25290  0.67900  Biso   1.000  H
  H30      1.0000 0.86800  0.74710  0.32100  Biso   1.000  H
  H31      1.0000 0.18260  0.23120  0.57600  Biso   1.000  H
  H32      1.0000 0.81740  0.76880  0.42400  Biso   1.000  H
  N15      1.0000 0.22800  0.02700  0.76200  Biso   1.000  N
  N16      1.0000 0.77200  0.97300  0.23800  Biso   1.000  N
  H33      1.0000 0.22700  0.96920  0.82580  Biso   1.000  H
  H34      1.0000 0.77300  0.03080  0.17420  Biso   1.000  H
  H35      1.0000 0.29260  0.03800  0.75370  Biso   1.000  H
  H36      1.0000 0.70740  0.96200  0.24630  Biso   1.000  H
  C41      1.0000 0.12500  0.10400  0.67300  Biso   1.000  C
  C42      1.0000 0.87500  0.89600  0.32700  Biso   1.000  C
  H37      1.0000 0.04730  0.10990  0.69670  Biso   1.000  H
  H38      1.0000 0.95270  0.89010  0.30330  Biso   1.000  H
  H39      1.0000 0.13490  0.07430  0.61570  Biso   1.000  H
  H40      1.0000 0.86510  0.92570  0.38430  Biso   1.000  H
  C43      1.0000 0.74400  0.47000  0.19800  Biso   1.000  C
  C44      1.0000 0.25600  0.53000  0.80200  Biso   1.000  C
  C45      1.0000 0.75400  0.20900  0.42700  Biso   1.000  C
  C46      1.0000 0.24600  0.79100  0.57300  Biso   1.000  C
  H41      1.0000 0.76600  0.27110  0.35990  Biso   1.000  H
  H42      1.0000 0.23400  0.72890  0.64010  Biso   1.000  H
  H43      1.0000 0.70920  0.17640  0.40050  Biso   1.000  H
  H44      1.0000 0.29080  0.82360  0.59950  Biso   1.000  H
  C47      1.0000 0.56600  0.38700  0.40500  Biso   1.000  C
  C48      1.0000 0.43400  0.61300  0.59500  Biso   1.000  C
  H45      1.0000 0.51670  0.42890  0.44630  Biso   1.000  H
  H46      1.0000 0.48330  0.57110  0.55370  Biso   1.000  H
  H47      1.0000 0.51840  0.36020  0.37260  Biso   1.000  H
  H48      1.0000 0.48160  0.63980  0.62740  Biso   1.000  H
  H49      1.0000 0.58580  0.44520  0.34380  Biso   1.000  H
  H50      1.0000 0.41420  0.55480  0.65620  Biso   1.000  H
  C49      1.0000 0.70900  0.24900  0.58500  Biso   1.000  C
  C50      1.0000 0.29100  0.75100  0.41500  Biso   1.000  C
  H51      1.0000 0.78570  0.16980  0.62450  Biso   1.000  H
  H52      1.0000 0.21430  0.83020  0.37550  Biso   1.000  H
  H53      1.0000 0.64330  0.23990  0.62350  Biso   1.000  H
  H54      1.0000 0.35670  0.76010  0.37650  Biso   1.000  H
  H55      1.0000 0.71800  0.31780  0.58620  Biso   1.000  H
  H56      1.0000 0.28200  0.68220  0.41380  Biso   1.000  H
  C51      1.0000 0.14900  0.09800  0.13100  Biso   1.000  C
  C52      1.0000 0.85100  0.90200  0.86900  Biso   1.000  C
  H57      1.0000 0.11930  0.05250  0.10590  Biso   1.000  H
  H58      1.0000 0.88070  0.94750  0.89410  Biso   1.000  H
  H59      1.0000 0.23850  0.04410  0.15990  Biso   1.000  H
  H60      1.0000 0.76150  0.95590  0.84010  Biso   1.000  H
  C53      1.0000 0.15500  0.17500  0.93000  Biso   1.000  C
  C54      1.0000 0.84500  0.82500  0.07000  Biso   1.000  C
  H61      1.0000 0.18380  0.08470  0.95630  Biso   1.000  H
  H62      1.0000 0.81620  0.91530  0.04370  Biso   1.000  H
  H63      1.0000 0.21640  0.19780  0.89600  Biso   1.000  H
  H64      1.0000 0.78360  0.80220  0.10400  Biso   1.000  H
  H65      1.0000 0.07800  0.22410  0.87260  Biso   1.000  H
  H66      1.0000 0.92200  0.77590  0.12740  Biso   1.000  H
  C55      1.0000 0.08100  0.33600  0.02100  Biso   1.000  C
  C56      1.0000 0.91900  0.66400  0.97900  Biso   1.000  C
  H67      1.0000 0.06590  0.33560  0.09290  Biso   1.000  H
  H68      1.0000 0.93410  0.66440  0.90710  Biso   1.000  H
  H69      1.0000 0.00380  0.39180  0.96370  Biso   1.000  H
  H70      1.0000 0.99620  0.60820  0.03630  Biso   1.000  H
  H71      1.0000 0.13990  0.36760  0.99600  Biso   1.000  H
  H72      1.0000 0.86010  0.63240  0.00400  Biso   1.000  H
  Na1      1.0000 0.98100  0.10700  0.34410  Biso   1.000  Na
  Na2      1.0000 0.01900  0.89300  0.65590  Biso   1.000  Na
  H73      1.0000 0.17110  0.06010  0.63090  Biso   1.000  H
  H74      1.0000 0.82890  0.93990  0.36910  Biso   1.000  H
  H75      1.0000 0.17670  0.05730  0.75040  Biso   1.000  H
  H76      1.0000 0.82330  0.94270  0.24960  Biso   1.000  H
  H77      1.0000 0.02150  0.02640  0.75020  Biso   1.000  H
  H78      1.0000 0.97850  0.97360  0.24980  Biso   1.000  H
  H79      1.0000 0.95500  0.12980  0.62990  Biso   1.000  H
  H80      1.0000 0.04500  0.87020  0.37010  Biso   1.000  H
  N17      1.0000 0.02000  0.08500  0.68500  Biso   1.000  N
  N18      1.0000 0.98000  0.91500  0.31500  Biso   1.000  N
