data_image0
_cell_length_a       16.538
_cell_length_b       15.656
_cell_length_c       8.137
_cell_angle_alpha    90
_cell_angle_beta     115.656
_cell_angle_gamma    90

_symmetry_space_group_name_H-M    "P 1"
_symmetry_int_tables_number       1

loop_
  _symmetry_equiv_pos_as_xyz
  'x, y, z'

loop_
  _atom_site_label
  _atom_site_occupancy
  _atom_site_fract_x
  _atom_site_fract_y
  _atom_site_fract_z
  _atom_site_thermal_displace_type
  _atom_site_B_iso_or_equiv
  _atom_site_type_symbol
  Cu1      1.0000 0.98024  0.87284  0.43628  Biso   1.000  Cu
  Cu2      1.0000 0.98024  0.12716  0.93628  Biso   1.000  Cu
  Cu3      1.0000 0.48024  0.37284  0.43628  Biso   1.000  Cu
  Cu4      1.0000 0.48024  0.62716  0.93628  Biso   1.000  Cu
  C1       1.0000 0.91460  0.99950  0.58710  Biso   1.000  C
  C2       1.0000 0.91460  0.00050  0.08710  Biso   1.000  C
  C3       1.0000 0.41460  0.49950  0.58710  Biso   1.000  C
  C4       1.0000 0.41460  0.50050  0.08710  Biso   1.000  C
  C5       1.0000 0.84680  0.92914  0.53230  Biso   1.000  C
  C6       1.0000 0.84680  0.07086  0.03230  Biso   1.000  C
  C7       1.0000 0.34680  0.42914  0.53230  Biso   1.000  C
  C8       1.0000 0.34680  0.57086  0.03230  Biso   1.000  C
  C9       1.0000 0.76640  0.91570  0.53720  Biso   1.000  C
  C10      1.0000 0.76640  0.08430  0.03720  Biso   1.000  C
  C11      1.0000 0.26640  0.41570  0.53720  Biso   1.000  C
  C12      1.0000 0.26640  0.58430  0.03720  Biso   1.000  C
  C13      1.0000 0.71390  0.97110  0.60580  Biso   1.000  C
  C14      1.0000 0.71390  0.02890  0.10580  Biso   1.000  C
  C15      1.0000 0.21390  0.47110  0.60580  Biso   1.000  C
  C16      1.0000 0.21390  0.52890  0.10580  Biso   1.000  C
  H1       1.0000 0.66710  0.99960  0.50490  Biso   1.000  H
  H2       1.0000 0.66710  0.00040  0.00490  Biso   1.000  H
  H3       1.0000 0.16710  0.49960  0.50490  Biso   1.000  H
  H4       1.0000 0.16710  0.50040  0.00490  Biso   1.000  H
  H5       1.0000 0.75300  0.01280  0.68880  Biso   1.000  H
  H6       1.0000 0.75300  0.98720  0.18880  Biso   1.000  H
  H7       1.0000 0.25300  0.51280  0.68880  Biso   1.000  H
  H8       1.0000 0.25300  0.48720  0.18880  Biso   1.000  H
  H9       1.0000 0.68790  0.93640  0.66780  Biso   1.000  H
  H10      1.0000 0.68790  0.06360  0.16780  Biso   1.000  H
  H11      1.0000 0.18790  0.43640  0.66780  Biso   1.000  H
  H12      1.0000 0.18790  0.56360  0.16780  Biso   1.000  H
  C17      1.0000 0.66530  0.78520  0.44510  Biso   1.000  C
  C18      1.0000 0.66530  0.21480  0.94510  Biso   1.000  C
  C19      1.0000 0.16530  0.28520  0.44510  Biso   1.000  C
  C20      1.0000 0.16530  0.71480  0.94510  Biso   1.000  C
  C21      1.0000 0.58100  0.82030  0.36880  Biso   1.000  C
  C22      1.0000 0.58100  0.17970  0.86880  Biso   1.000  C
  C23      1.0000 0.08100  0.32030  0.36880  Biso   1.000  C
  C24      1.0000 0.08100  0.67970  0.86880  Biso   1.000  C
  H13      1.0000 0.57270  0.87620  0.32610  Biso   1.000  H
  H14      1.0000 0.57270  0.12380  0.82610  Biso   1.000  H
  H15      1.0000 0.07270  0.37620  0.32610  Biso   1.000  H
  H16      1.0000 0.07270  0.62380  0.82610  Biso   1.000  H
  C25      1.0000 0.50820  0.77200  0.35560  Biso   1.000  C
  C26      1.0000 0.50820  0.22800  0.85560  Biso   1.000  C
  C27      1.0000 0.00820  0.27200  0.35560  Biso   1.000  C
  C28      1.0000 0.00820  0.72800  0.85560  Biso   1.000  C
  H17      1.0000 0.45110  0.79590  0.30600  Biso   1.000  H
  H18      1.0000 0.45110  0.20410  0.80600  Biso   1.000  H
  H19      1.0000 0.95110  0.29590  0.30600  Biso   1.000  H
  H20      1.0000 0.95110  0.70410  0.80600  Biso   1.000  H
  C29      1.0000 0.52030  0.68900  0.41570  Biso   1.000  C
  C30      1.0000 0.52030  0.31100  0.91570  Biso   1.000  C
  C31      1.0000 0.02030  0.18900  0.41570  Biso   1.000  C
  C32      1.0000 0.02030  0.81100  0.91570  Biso   1.000  C
  H21      1.0000 0.47150  0.65650  0.40660  Biso   1.000  H
  H22      1.0000 0.47150  0.34350  0.90660  Biso   1.000  H
  H23      1.0000 0.97150  0.15650  0.40660  Biso   1.000  H
  H24      1.0000 0.97150  0.84350  0.90660  Biso   1.000  H
  C33      1.0000 0.60460  0.65430  0.48920  Biso   1.000  C
  C34      1.0000 0.60460  0.34570  0.98920  Biso   1.000  C
  C35      1.0000 0.10460  0.15430  0.48920  Biso   1.000  C
  C36      1.0000 0.10460  0.84570  0.98920  Biso   1.000  C
  H25      1.0000 0.61220  0.59780  0.52830  Biso   1.000  H
  H26      1.0000 0.61220  0.40220  0.02830  Biso   1.000  H
  H27      1.0000 0.11220  0.09780  0.52830  Biso   1.000  H
  H28      1.0000 0.11220  0.90220  0.02830  Biso   1.000  H
  C37      1.0000 0.67900  0.70130  0.50670  Biso   1.000  C
  C38      1.0000 0.67900  0.29870  0.00670  Biso   1.000  C
  C39      1.0000 0.17900  0.20130  0.50670  Biso   1.000  C
  C40      1.0000 0.17900  0.79870  0.00670  Biso   1.000  C
  H29      1.0000 0.73620  0.67750  0.55800  Biso   1.000  H
  H30      1.0000 0.73620  0.32250  0.05800  Biso   1.000  H
  H31      1.0000 0.23620  0.17750  0.55800  Biso   1.000  H
  H32      1.0000 0.23620  0.82250  0.05800  Biso   1.000  H
  C41      1.0000 0.07200  0.72740  0.41550  Biso   1.000  C
  C42      1.0000 0.07200  0.27260  0.91550  Biso   1.000  C
  C43      1.0000 0.57200  0.22740  0.41550  Biso   1.000  C
  C44      1.0000 0.57200  0.77260  0.91550  Biso   1.000  C
  C45      1.0000 0.13580  0.80030  0.45020  Biso   1.000  C
  C46      1.0000 0.13580  0.19970  0.95020  Biso   1.000  C
  C47      1.0000 0.63580  0.30030  0.45020  Biso   1.000  C
  C48      1.0000 0.63580  0.69970  0.95020  Biso   1.000  C
  C49      1.0000 0.22000  0.80810  0.46410  Biso   1.000  C
  C50      1.0000 0.22000  0.19190  0.96410  Biso   1.000  C
  C51      1.0000 0.72000  0.30810  0.46410  Biso   1.000  C
  C52      1.0000 0.72000  0.69190  0.96410  Biso   1.000  C
  C53      1.0000 0.28350  0.74030  0.46110  Biso   1.000  C
  C54      1.0000 0.28350  0.25970  0.96110  Biso   1.000  C
  C55      1.0000 0.78350  0.24030  0.46110  Biso   1.000  C
  C56      1.0000 0.78350  0.75970  0.96110  Biso   1.000  C
  H33      1.0000 0.33030  0.73250  0.58190  Biso   1.000  H
  H34      1.0000 0.33030  0.26750  0.08190  Biso   1.000  H
  H35      1.0000 0.83030  0.23250  0.58190  Biso   1.000  H
  H36      1.0000 0.83030  0.76750  0.08190  Biso   1.000  H
  H37      1.0000 0.30930  0.75750  0.38090  Biso   1.000  H
  H38      1.0000 0.30930  0.24250  0.88090  Biso   1.000  H
  H39      1.0000 0.80930  0.25750  0.38090  Biso   1.000  H
  H40      1.0000 0.80930  0.74250  0.88090  Biso   1.000  H
  H41      1.0000 0.25150  0.68760  0.41860  Biso   1.000  H
  H42      1.0000 0.25150  0.31240  0.91860  Biso   1.000  H
  H43      1.0000 0.75150  0.18760  0.41860  Biso   1.000  H
  H44      1.0000 0.75150  0.81240  0.91860  Biso   1.000  H
  C57      1.0000 0.30980  0.94400  0.48840  Biso   1.000  C
  C58      1.0000 0.30980  0.05600  0.98840  Biso   1.000  C
  C59      1.0000 0.80980  0.44400  0.48840  Biso   1.000  C
  C60      1.0000 0.80980  0.55600  0.98840  Biso   1.000  C
  C61      1.0000 0.39550  0.91160  0.56640  Biso   1.000  C
  C62      1.0000 0.39550  0.08840  0.06640  Biso   1.000  C
  C63      1.0000 0.89550  0.41160  0.56640  Biso   1.000  C
  C64      1.0000 0.89550  0.58840  0.06640  Biso   1.000  C
  H45      1.0000 0.40670  0.85660  0.61420  Biso   1.000  H
  H46      1.0000 0.40670  0.14340  0.11420  Biso   1.000  H
  H47      1.0000 0.90670  0.35660  0.61420  Biso   1.000  H
  H48      1.0000 0.90670  0.64340  0.11420  Biso   1.000  H
  C65      1.0000 0.46510  0.96320  0.57160  Biso   1.000  C
  C66      1.0000 0.46510  0.03680  0.07160  Biso   1.000  C
  C67      1.0000 0.96510  0.46320  0.57160  Biso   1.000  C
  C68      1.0000 0.96510  0.53680  0.07160  Biso   1.000  C
  H49      1.0000 0.52350  0.94240  0.62270  Biso   1.000  H
  H50      1.0000 0.52350  0.05760  0.12270  Biso   1.000  H
  H51      1.0000 0.02350  0.44240  0.62270  Biso   1.000  H
  H52      1.0000 0.02350  0.55760  0.12270  Biso   1.000  H
  C69      1.0000 0.44850  0.04380  0.50310  Biso   1.000  C
  C70      1.0000 0.44850  0.95620  0.00310  Biso   1.000  C
  C71      1.0000 0.94850  0.54380  0.50310  Biso   1.000  C
  C72      1.0000 0.94850  0.45620  0.00310  Biso   1.000  C
  H53      1.0000 0.49550  0.07690  0.50430  Biso   1.000  H
  H54      1.0000 0.49550  0.92310  0.00430  Biso   1.000  H
  H55      1.0000 0.99550  0.57690  0.50430  Biso   1.000  H
  H56      1.0000 0.99550  0.42310  0.00430  Biso   1.000  H
  C73      1.0000 0.36300  0.07700  0.43170  Biso   1.000  C
  C74      1.0000 0.36300  0.92300  0.93170  Biso   1.000  C
  C75      1.0000 0.86300  0.57700  0.43170  Biso   1.000  C
  C76      1.0000 0.86300  0.42300  0.93170  Biso   1.000  C
  H57      1.0000 0.35270  0.13310  0.39050  Biso   1.000  H
  H58      1.0000 0.35270  0.86690  0.89050  Biso   1.000  H
  H59      1.0000 0.85270  0.63310  0.39050  Biso   1.000  H
  H60      1.0000 0.85270  0.36690  0.89050  Biso   1.000  H
  C77      1.0000 0.29210  0.02630  0.42160  Biso   1.000  C
  C78      1.0000 0.29210  0.97370  0.92160  Biso   1.000  C
  C79      1.0000 0.79210  0.52630  0.42160  Biso   1.000  C
  C80      1.0000 0.79210  0.47370  0.92160  Biso   1.000  C
  H61      1.0000 0.23380  0.04750  0.37070  Biso   1.000  H
  H62      1.0000 0.23380  0.95250  0.87070  Biso   1.000  H
  H63      1.0000 0.73380  0.54750  0.37070  Biso   1.000  H
  H64      1.0000 0.73380  0.45250  0.87070  Biso   1.000  H
  N1       1.0000 0.86630  0.85910  0.45850  Biso   1.000  N
  N2       1.0000 0.86630  0.14090  0.95850  Biso   1.000  N
  N3       1.0000 0.36630  0.35910  0.45850  Biso   1.000  N
  N4       1.0000 0.36630  0.64090  0.95850  Biso   1.000  N
  N5       1.0000 0.80320  0.80110  0.41690  Biso   1.000  N
  N6       1.0000 0.80320  0.19890  0.91690  Biso   1.000  N
  N7       1.0000 0.30320  0.30110  0.41690  Biso   1.000  N
  N8       1.0000 0.30320  0.69890  0.91690  Biso   1.000  N
  N9       1.0000 0.74169  0.83620  0.46590  Biso   1.000  N
  N10      1.0000 0.74169  0.16380  0.96590  Biso   1.000  N
  N11      1.0000 0.24169  0.33620  0.46590  Biso   1.000  N
  N12      1.0000 0.24169  0.66380  0.96590  Biso   1.000  N
  N13      1.0000 0.10370  0.87795  0.45950  Biso   1.000  N
  N14      1.0000 0.10370  0.12205  0.95950  Biso   1.000  N
  N15      1.0000 0.60370  0.37795  0.45950  Biso   1.000  N
  N16      1.0000 0.60370  0.62205  0.95950  Biso   1.000  N
  N17      1.0000 0.16341  0.93655  0.47980  Biso   1.000  N
  N18      1.0000 0.16341  0.06345  0.97980  Biso   1.000  N
  N19      1.0000 0.66341  0.43655  0.47980  Biso   1.000  N
  N20      1.0000 0.66341  0.56345  0.97980  Biso   1.000  N
  N21      1.0000 0.23510  0.89393  0.48140  Biso   1.000  N
  N22      1.0000 0.23510  0.10607  0.98140  Biso   1.000  N
  N23      1.0000 0.73510  0.39393  0.48140  Biso   1.000  N
  N24      1.0000 0.73510  0.60607  0.98140  Biso   1.000  N
  O1       1.0000 0.98176  0.98376  0.55260  Biso   1.000  O
  O2       1.0000 0.98176  0.01624  0.05260  Biso   1.000  O
  O3       1.0000 0.48176  0.48376  0.55260  Biso   1.000  O
  O4       1.0000 0.48176  0.51624  0.05260  Biso   1.000  O
  O5       1.0000 0.90126  0.06571  0.65460  Biso   1.000  O
  O6       1.0000 0.90126  0.93429  0.15460  Biso   1.000  O
  O7       1.0000 0.40126  0.56571  0.65460  Biso   1.000  O
  O8       1.0000 0.40126  0.43429  0.15460  Biso   1.000  O
  O9       1.0000 0.99262  0.75197  0.39110  Biso   1.000  O
  O10      1.0000 0.99262  0.24803  0.89110  Biso   1.000  O
  O11      1.0000 0.49262  0.25197  0.39110  Biso   1.000  O
  O12      1.0000 0.49262  0.74803  0.89110  Biso   1.000  O
  O13      1.0000 0.09520  0.65473  0.40880  Biso   1.000  O
  O14      1.0000 0.09520  0.34527  0.90880  Biso   1.000  O
  O15      1.0000 0.59520  0.15473  0.40880  Biso   1.000  O
  O16      1.0000 0.59520  0.84527  0.90880  Biso   1.000  O
