data_image0
_cell_length_a       13.641
_cell_length_b       13.788
_cell_length_c       15.156
_cell_angle_alpha    64.402
_cell_angle_beta     66.098
_cell_angle_gamma    89.604

_symmetry_space_group_name_H-M    "P 1"
_symmetry_int_tables_number       1

loop_
  _symmetry_equiv_pos_as_xyz
  'x, y, z'

loop_
  _atom_site_label
  _atom_site_occupancy
  _atom_site_fract_x
  _atom_site_fract_y
  _atom_site_fract_z
  _atom_site_thermal_displace_type
  _atom_site_B_iso_or_equiv
  _atom_site_type_symbol
  Cu1      1.0000 0.91753  0.51863  0.35674  Biso   1.000  Cu
  Cu2      1.0000 0.08247  0.48137  0.64326  Biso   1.000  Cu
  Cu3      1.0000 0.88293  0.14911  0.68375  Biso   1.000  Cu
  Cu4      1.0000 0.11707  0.85089  0.31625  Biso   1.000  Cu
  Cu5      1.0000 0.69806  0.62479  0.35839  Biso   1.000  Cu
  Cu6      1.0000 0.30194  0.37521  0.64161  Biso   1.000  Cu
  Cu7      1.0000 0.44876  0.67012  0.69760  Biso   1.000  Cu
  Cu8      1.0000 0.55124  0.32988  0.30240  Biso   1.000  Cu
  N1       1.0000 0.86910  0.46360  0.51410  Biso   1.000  N
  N2       1.0000 0.13090  0.53640  0.48590  Biso   1.000  N
  N3       1.0000 0.93640  0.37150  0.38690  Biso   1.000  N
  N4       1.0000 0.06360  0.62850  0.61310  Biso   1.000  N
  N5       1.0000 0.97220  0.54040  0.20200  Biso   1.000  N
  N6       1.0000 0.02780  0.45960  0.79800  Biso   1.000  N
  N7       1.0000 0.81920  0.08820  0.84560  Biso   1.000  N
  N8       1.0000 0.18080  0.91180  0.15440  Biso   1.000  N
  N9       1.0000 0.88500  0.99310  0.70690  Biso   1.000  N
  N10      1.0000 0.11500  0.00690  0.29310  Biso   1.000  N
  N11      1.0000 0.61420  0.52630  0.51670  Biso   1.000  N
  N12      1.0000 0.38580  0.47370  0.48330  Biso   1.000  N
  N13      1.0000 0.66210  0.74030  0.39550  Biso   1.000  N
  N14      1.0000 0.33790  0.25970  0.60450  Biso   1.000  N
  N15      1.0000 0.74690  0.74900  0.20310  Biso   1.000  N
  N16      1.0000 0.25310  0.25100  0.79690  Biso   1.000  N
  N17      1.0000 0.36480  0.57310  0.85810  Biso   1.000  N
  N18      1.0000 0.63520  0.42690  0.14190  Biso   1.000  N
  N19      1.0000 0.41880  0.80130  0.72550  Biso   1.000  N
  N20      1.0000 0.58120  0.19870  0.27450  Biso   1.000  N
  O1       1.0000 0.89790  0.66360  0.32950  Biso   1.000  O
  O2       1.0000 0.10210  0.33640  0.67050  Biso   1.000  O
  O3       1.0000 0.94020  0.80610  0.34730  Biso   1.000  O
  O4       1.0000 0.05980  0.19390  0.65270  Biso   1.000  O
  O5       1.0000 0.85750  0.29830  0.65920  Biso   1.000  O
  O6       1.0000 0.14250  0.70170  0.34080  Biso   1.000  O
  O7       1.0000 0.91740  0.20530  0.53030  Biso   1.000  O
  O8       1.0000 0.08260  0.79470  0.46970  Biso   1.000  O
  O9       1.0000 0.73570  0.51010  0.32280  Biso   1.000  O
  O10      1.0000 0.26430  0.48990  0.67720  Biso   1.000  O
  O11      1.0000 0.69440  0.34980  0.33720  Biso   1.000  O
  O12      1.0000 0.30560  0.65020  0.66280  Biso   1.000  O
  O13      1.0000 0.50410  0.54770  0.66800  Biso   1.000  O
  O14      1.0000 0.49590  0.45230  0.33200  Biso   1.000  O
  O15      1.0000 0.55170  0.76330  0.54480  Biso   1.000  O
  O16      1.0000 0.44830  0.23670  0.45520  Biso   1.000  O
  C1       1.0000 0.84830  0.64090  0.51070  Biso   1.000  C
  C2       1.0000 0.15170  0.35910  0.48930  Biso   1.000  C
  C3       1.0000 0.81030  0.70140  0.56750  Biso   1.000  C
  C4       1.0000 0.18970  0.29860  0.43250  Biso   1.000  C
  H1       1.0000 0.82430  0.77760  0.52840  Biso   1.000  H
  H2       1.0000 0.17570  0.22240  0.47160  Biso   1.000  H
  C5       1.0000 0.75320  0.65180  0.67890  Biso   1.000  C
  C6       1.0000 0.24680  0.34820  0.32110  Biso   1.000  C
  H3       1.0000 0.72690  0.69370  0.71460  Biso   1.000  H
  H4       1.0000 0.27310  0.30630  0.28540  Biso   1.000  H
  C7       1.0000 0.73480  0.53790  0.73840  Biso   1.000  C
  C8       1.0000 0.26520  0.46210  0.26160  Biso   1.000  C
  H5       1.0000 0.69710  0.50310  0.81430  Biso   1.000  H
  H6       1.0000 0.30290  0.49690  0.18570  Biso   1.000  H
  C9       1.0000 0.77350  0.47660  0.68300  Biso   1.000  C
  C10      1.0000 0.22650  0.52340  0.31700  Biso   1.000  C
  H7       1.0000 0.75940  0.40040  0.72290  Biso   1.000  H
  H8       1.0000 0.24060  0.59960  0.27710  Biso   1.000  H
  C11      1.0000 0.83070  0.52470  0.57340  Biso   1.000  C
  C12      1.0000 0.16930  0.47530  0.42660  Biso   1.000  C
  C13      1.0000 0.87690  0.35930  0.56270  Biso   1.000  C
  C14      1.0000 0.12310  0.64070  0.43730  Biso   1.000  C
  C15      1.0000 0.91340  0.30700  0.48670  Biso   1.000  C
  C16      1.0000 0.08660  0.69300  0.51330  Biso   1.000  C
  C17      1.0000 0.97090  0.34570  0.29710  Biso   1.000  C
  C18      1.0000 0.02910  0.65430  0.70290  Biso   1.000  C
  H9       1.0000 0.90800  0.31210  0.29820  Biso   1.000  H
  H10      1.0000 0.09200  0.68790  0.70180  Biso   1.000  H
  H11      1.0000 0.02040  0.29500  0.30290  Biso   1.000  H
  H12      1.0000 0.97960  0.70500  0.69710  Biso   1.000  H
  C19      1.0000 0.02780  0.45150  0.19350  Biso   1.000  C
  C20      1.0000 0.97220  0.54850  0.80650  Biso   1.000  C
  H13      1.0000 0.10310  0.46960  0.17920  Biso   1.000  H
  H14      1.0000 0.89690  0.53040  0.82080  Biso   1.000  H
  H15      1.0000 0.02840  0.44320  0.13290  Biso   1.000  H
  H16      1.0000 0.97160  0.55680  0.86710  Biso   1.000  H
  C21      1.0000 0.90130  0.70780  0.38670  Biso   1.000  C
  C22      1.0000 0.09870  0.29220  0.61330  Biso   1.000  C
  C23      1.0000 0.70030  0.07740  0.89430  Biso   1.000  C
  C24      1.0000 0.29970  0.92260  0.10570  Biso   1.000  C
  H17      1.0000 0.66920  0.03710  0.87040  Biso   1.000  H
  H18      1.0000 0.33080  0.96290  0.12960  Biso   1.000  H
  H19      1.0000 0.68280  0.14900  0.87210  Biso   1.000  H
  H20      1.0000 0.31720  0.85100  0.12790  Biso   1.000  H
  H21      1.0000 0.67080  0.03880  0.97250  Biso   1.000  H
  H22      1.0000 0.32920  0.96120  0.02750  Biso   1.000  H
  C25      1.0000 0.86320  0.15510  0.88230  Biso   1.000  C
  C26      1.0000 0.13680  0.84490  0.11770  Biso   1.000  C
  H23      1.0000 0.83110  0.11910  0.96070  Biso   1.000  H
  H24      1.0000 0.16890  0.88090  0.03930  Biso   1.000  H
  H25      1.0000 0.84540  0.22650  0.85650  Biso   1.000  H
  H26      1.0000 0.15460  0.77350  0.14350  Biso   1.000  H
  H27      1.0000 0.94130  0.16270  0.85320  Biso   1.000  H
  H28      1.0000 0.05870  0.83730  0.14680  Biso   1.000  H
  C27      1.0000 0.85310  0.98060  0.88150  Biso   1.000  C
  C28      1.0000 0.14690  0.01940  0.11850  Biso   1.000  C
  H29      1.0000 0.81150  0.93660  0.96000  Biso   1.000  H
  H30      1.0000 0.18850  0.06340  0.04000  Biso   1.000  H
  H31      1.0000 0.93010  0.99230  0.86420  Biso   1.000  H
  H32      1.0000 0.06990  0.00770  0.13580  Biso   1.000  H
  C29      1.0000 0.83430  0.92100  0.82580  Biso   1.000  C
  C30      1.0000 0.16570  0.07900  0.17420  Biso   1.000  C
  H33      1.0000 0.86580  0.85580  0.84210  Biso   1.000  H
  H34      1.0000 0.13420  0.14420  0.15790  Biso   1.000  H
  H35      1.0000 0.75630  0.89800  0.85270  Biso   1.000  H
  H36      1.0000 0.24370  0.10200  0.14730  Biso   1.000  H
  C31      1.0000 0.82150  0.96370  0.65940  Biso   1.000  C
  C32      1.0000 0.17850  0.03630  0.34060  Biso   1.000  C
  H37      1.0000 0.85370  0.01170  0.58210  Biso   1.000  H
  H38      1.0000 0.14630  0.98830  0.41790  Biso   1.000  H
  H39      1.0000 0.74730  0.97130  0.69260  Biso   1.000  H
  H40      1.0000 0.25270  0.02870  0.30740  Biso   1.000  H
  H41      1.0000 0.82250  0.88910  0.67290  Biso   1.000  H
  H42      1.0000 0.17750  0.11090  0.32710  Biso   1.000  H
  C33      1.0000 0.99810  0.98200  0.65390  Biso   1.000  C
  C34      1.0000 0.00190  0.01800  0.34610  Biso   1.000  C
  H43      1.0000 0.03810  0.99090  0.69030  Biso   1.000  H
  H44      1.0000 0.96190  0.00910  0.30970  Biso   1.000  H
  H45      1.0000 0.03210  0.03720  0.57870  Biso   1.000  H
  H46      1.0000 0.96790  0.96280  0.42130  Biso   1.000  H
  H47      1.0000 0.99830  0.91050  0.65800  Biso   1.000  H
  H48      1.0000 0.00170  0.08950  0.34200  Biso   1.000  H
  C35      1.0000 0.64120  0.35530  0.50350  Biso   1.000  C
  C36      1.0000 0.35880  0.64470  0.49650  Biso   1.000  C
  C37      1.0000 0.63370  0.24180  0.55800  Biso   1.000  C
  C38      1.0000 0.36630  0.75820  0.44200  Biso   1.000  C
  H49      1.0000 0.65800  0.20530  0.51630  Biso   1.000  H
  H50      1.0000 0.34200  0.79470  0.48370  Biso   1.000  H
  C39      1.0000 0.59310  0.18220  0.66770  Biso   1.000  C
  C40      1.0000 0.40690  0.81780  0.33230  Biso   1.000  C
  H51      1.0000 0.59040  0.10690  0.70000  Biso   1.000  H
  H52      1.0000 0.40960  0.89310  0.30000  Biso   1.000  H
  C41      1.0000 0.55530  0.23510  0.73190  Biso   1.000  C
  C42      1.0000 0.44470  0.76490  0.26810  Biso   1.000  C
  H53      1.0000 0.52690  0.19540  0.80760  Biso   1.000  H
  H54      1.0000 0.47310  0.80460  0.19240  Biso   1.000  H
  C43      1.0000 0.56060  0.34920  0.68110  Biso   1.000  C
  C44      1.0000 0.43940  0.65080  0.31890  Biso   1.000  C
  H55      1.0000 0.53420  0.38430  0.72400  Biso   1.000  H
  H56      1.0000 0.46580  0.61570  0.27600  Biso   1.000  H
  C45      1.0000 0.60410  0.41010  0.56900  Biso   1.000  C
  C46      1.0000 0.39590  0.58990  0.43100  Biso   1.000  C
  C47      1.0000 0.56910  0.58250  0.56920  Biso   1.000  C
  C48      1.0000 0.43090  0.41750  0.43080  Biso   1.000  C
  C49      1.0000 0.59530  0.70820  0.49650  Biso   1.000  C
  C50      1.0000 0.40470  0.29180  0.50350  Biso   1.000  C
  C51      1.0000 0.69400  0.85300  0.31000  Biso   1.000  C
  C52      1.0000 0.30600  0.14700  0.69000  Biso   1.000  C
  H57      1.0000 0.72730  0.90000  0.32720  Biso   1.000  H
  H58      1.0000 0.27270  0.10000  0.67280  Biso   1.000  H
  H59      1.0000 0.63080  0.87970  0.30130  Biso   1.000  H
  H60      1.0000 0.36920  0.12030  0.69870  Biso   1.000  H
  C53      1.0000 0.77610  0.85180  0.20630  Biso   1.000  C
  C54      1.0000 0.22390  0.14820  0.79370  Biso   1.000  C
  H61      1.0000 0.77790  0.91520  0.14310  Biso   1.000  H
  H62      1.0000 0.22210  0.08480  0.85690  Biso   1.000  H
  H63      1.0000 0.84860  0.85690  0.20280  Biso   1.000  H
  H64      1.0000 0.15140  0.14310  0.79720  Biso   1.000  H
  C55      1.0000 0.69390  0.40630  0.37990  Biso   1.000  C
  C56      1.0000 0.30610  0.59370  0.62010  Biso   1.000  C
  C57      1.0000 0.44350  0.54000  0.90560  Biso   1.000  C
  C58      1.0000 0.55650  0.46000  0.09440  Biso   1.000  C
  H65      1.0000 0.40390  0.49950  0.98380  Biso   1.000  H
  H66      1.0000 0.59610  0.50050  0.01620  Biso   1.000  H
  H67      1.0000 0.49140  0.60440  0.88560  Biso   1.000  H
  H68      1.0000 0.50860  0.39560  0.11440  Biso   1.000  H
  H69      1.0000 0.48600  0.49480  0.87820  Biso   1.000  H
  H70      1.0000 0.51400  0.50520  0.12180  Biso   1.000  H
  C59      1.0000 0.29440  0.47180  0.89250  Biso   1.000  C
  C60      1.0000 0.70560  0.52820  0.10750  Biso   1.000  C
  H71      1.0000 0.25890  0.43120  0.97080  Biso   1.000  H
  H72      1.0000 0.74110  0.56880  0.02920  Biso   1.000  H
  H73      1.0000 0.33780  0.42830  0.86320  Biso   1.000  H
  H74      1.0000 0.66220  0.57170  0.13680  Biso   1.000  H
  H75      1.0000 0.24010  0.48930  0.86600  Biso   1.000  H
  H76      1.0000 0.75990  0.51070  0.13400  Biso   1.000  H
  C61      1.0000 0.29750  0.64300  0.89880  Biso   1.000  C
  C62      1.0000 0.70250  0.35700  0.10120  Biso   1.000  C
  H77      1.0000 0.23480  0.64730  0.88330  Biso   1.000  H
  H78      1.0000 0.76520  0.35270  0.11670  Biso   1.000  H
  H79      1.0000 0.27070  0.61050  0.97740  Biso   1.000  H
  H80      1.0000 0.72930  0.38950  0.02260  Biso   1.000  H
  C63      1.0000 0.36290  0.75430  0.84610  Biso   1.000  C
  C64      1.0000 0.63710  0.24570  0.15390  Biso   1.000  C
  H81      1.0000 0.41720  0.75150  0.87270  Biso   1.000  H
  H82      1.0000 0.58280  0.24850  0.12730  Biso   1.000  H
  H83      1.0000 0.31540  0.80170  0.86580  Biso   1.000  H
  H84      1.0000 0.68460  0.19830  0.13420  Biso   1.000  H
  C65      1.0000 0.35040  0.85790  0.67620  Biso   1.000  C
  C66      1.0000 0.64960  0.14210  0.32380  Biso   1.000  C
  H85      1.0000 0.28410  0.80760  0.70440  Biso   1.000  H
  H86      1.0000 0.71590  0.19240  0.29560  Biso   1.000  H
  H87      1.0000 0.38890  0.88650  0.59840  Biso   1.000  H
  H88      1.0000 0.61110  0.11350  0.40160  Biso   1.000  H
  H89      1.0000 0.33290  0.91730  0.69310  Biso   1.000  H
  H90      1.0000 0.66710  0.08270  0.30690  Biso   1.000  H
  C67      1.0000 0.52040  0.87840  0.68010  Biso   1.000  C
  C68      1.0000 0.47960  0.12160  0.31990  Biso   1.000  C
  H91      1.0000 0.56110  0.90030  0.60360  Biso   1.000  H
  H92      1.0000 0.43890  0.09970  0.39640  Biso   1.000  H
  H93      1.0000 0.56330  0.84350  0.71730  Biso   1.000  H
  H94      1.0000 0.43670  0.15650  0.28270  Biso   1.000  H
  H95      1.0000 0.50330  0.94190  0.68970  Biso   1.000  H
  H96      1.0000 0.49670  0.05810  0.31030  Biso   1.000  H
  O17      1.0000 0.08950  0.89880  0.87020  Biso   1.000  O
  O18      1.0000 0.91050  0.10120  0.12980  Biso   1.000  O
  O19      1.0000 0.05550  0.74720  0.85980  Biso   1.000  O
  O20      1.0000 0.94450  0.25280  0.14020  Biso   1.000  O
  O21      1.0000 0.93270  0.76190  0.00530  Biso   1.000  O
  O22      1.0000 0.06730  0.23810  0.99470  Biso   1.000  O
  O23      1.0000 0.10390  0.73520  0.99280  Biso   1.000  O
  O24      1.0000 0.89610  0.26480  0.00720  Biso   1.000  O
  Cl1      1.0000 0.04360  0.78320  0.93300  Biso   1.000  Cl
  Cl2      1.0000 0.95640  0.21680  0.06700  Biso   1.000  Cl
  O25      1.0000 0.43960  0.69640  0.05510  Biso   1.000  O
  O26      1.0000 0.56040  0.30360  0.94490  Biso   1.000  O
  O27      1.0000 0.52940  0.87730  0.92330  Biso   1.000  O
  O28      1.0000 0.47060  0.12270  0.07670  Biso   1.000  O
  O29      1.0000 0.60360  0.77230  0.03930  Biso   1.000  O
  O30      1.0000 0.39640  0.22770  0.96070  Biso   1.000  O
  O31      1.0000 0.60480  0.73260  0.90410  Biso   1.000  O
  O32      1.0000 0.39520  0.26740  0.09590  Biso   1.000  O
  Cl3      1.0000 0.54360  0.76950  0.98040  Biso   1.000  Cl
  Cl4      1.0000 0.45640  0.23050  0.01960  Biso   1.000  Cl
