data_image0
_cell_length_a       10.6914
_cell_length_b       20.019
_cell_length_c       11.1071
_cell_angle_alpha    90
_cell_angle_beta     91.498
_cell_angle_gamma    90

_symmetry_space_group_name_H-M    "P 1"
_symmetry_int_tables_number       1

loop_
  _symmetry_equiv_pos_as_xyz
  'x, y, z'

loop_
  _atom_site_label
  _atom_site_occupancy
  _atom_site_fract_x
  _atom_site_fract_y
  _atom_site_fract_z
  _atom_site_thermal_displace_type
  _atom_site_B_iso_or_equiv
  _atom_site_type_symbol
  Cu1      1.0000 0.37506  0.22564  0.70163  Biso   1.000  Cu
  Cu2      1.0000 0.12494  0.72564  0.79837  Biso   1.000  Cu
  Cu3      1.0000 0.62494  0.77436  0.29837  Biso   1.000  Cu
  Cu4      1.0000 0.87506  0.27436  0.20163  Biso   1.000  Cu
  N1       1.0000 0.36830  0.22890  0.51830  Biso   1.000  N
  N2       1.0000 0.13170  0.72890  0.98170  Biso   1.000  N
  N3       1.0000 0.63170  0.77110  0.48170  Biso   1.000  N
  N4       1.0000 0.86830  0.27110  0.01830  Biso   1.000  N
  O1       1.0000 0.25910  0.15054  0.69990  Biso   1.000  O
  O2       1.0000 0.24090  0.65054  0.80010  Biso   1.000  O
  O3       1.0000 0.74090  0.84946  0.30010  Biso   1.000  O
  O4       1.0000 0.75910  0.34946  0.19990  Biso   1.000  O
  O5       1.0000 0.39960  0.07230  0.73870  Biso   1.000  O
  O6       1.0000 0.10040  0.57230  0.76130  Biso   1.000  O
  O7       1.0000 0.60040  0.92770  0.26130  Biso   1.000  O
  O8       1.0000 0.89960  0.42770  0.23870  Biso   1.000  O
  O9       1.0000 0.83690  0.08950  0.57600  Biso   1.000  O
  O10      1.0000 0.66310  0.58950  0.92400  Biso   1.000  O
  O11      1.0000 0.16310  0.91050  0.42400  Biso   1.000  O
  O12      1.0000 0.33690  0.41050  0.07600  Biso   1.000  O
  O13      1.0000 0.76780  0.98550  0.59450  Biso   1.000  O
  O14      1.0000 0.73220  0.48550  0.90550  Biso   1.000  O
  O15      1.0000 0.23220  0.01450  0.40550  Biso   1.000  O
  O16      1.0000 0.26780  0.51450  0.09450  Biso   1.000  O
  O17      1.0000 0.56960  0.17160  0.69760  Biso   1.000  O
  O18      1.0000 0.93040  0.67160  0.80240  Biso   1.000  O
  O19      1.0000 0.43040  0.82840  0.30240  Biso   1.000  O
  O20      1.0000 0.06960  0.32840  0.19760  Biso   1.000  O
  C1       1.0000 0.18870  0.03940  0.70890  Biso   1.000  C
  C2       1.0000 0.31130  0.53940  0.79110  Biso   1.000  C
  C3       1.0000 0.81130  0.96060  0.29110  Biso   1.000  C
  C4       1.0000 0.68870  0.46060  0.20890  Biso   1.000  C
  C5       1.0000 0.07060  0.05670  0.66630  Biso   1.000  C
  C6       1.0000 0.42940  0.55670  0.83370  Biso   1.000  C
  C7       1.0000 0.92940  0.94330  0.33370  Biso   1.000  C
  C8       1.0000 0.57060  0.44330  0.16630  Biso   1.000  C
  H1       1.0000 0.05390  0.10060  0.64370  Biso   1.000  H
  H2       1.0000 0.44610  0.60060  0.85630  Biso   1.000  H
  H3       1.0000 0.94610  0.89940  0.35630  Biso   1.000  H
  H4       1.0000 0.55390  0.39940  0.14370  Biso   1.000  H
  C9       1.0000 0.97730  0.00910  0.65700  Biso   1.000  C
  C10      1.0000 0.52270  0.50910  0.84300  Biso   1.000  C
  C11      1.0000 0.02270  0.99090  0.34300  Biso   1.000  C
  C12      1.0000 0.47730  0.49090  0.15700  Biso   1.000  C
  C13      1.0000 0.00120  0.94340  0.69090  Biso   1.000  C
  C14      1.0000 0.49880  0.44340  0.80910  Biso   1.000  C
  C15      1.0000 0.99880  0.05660  0.30910  Biso   1.000  C
  C16      1.0000 0.50120  0.55660  0.19090  Biso   1.000  C
  H5       1.0000 0.93790  0.91160  0.68540  Biso   1.000  H
  H6       1.0000 0.56210  0.41160  0.81460  Biso   1.000  H
  H7       1.0000 0.06210  0.08840  0.31460  Biso   1.000  H
  H8       1.0000 0.43790  0.58840  0.18540  Biso   1.000  H
  C17      1.0000 0.11830  0.92590  0.73240  Biso   1.000  C
  C18      1.0000 0.38170  0.42590  0.76760  Biso   1.000  C
  C19      1.0000 0.88170  0.07410  0.26760  Biso   1.000  C
  C20      1.0000 0.61830  0.57410  0.23240  Biso   1.000  C
  C21      1.0000 0.21240  0.97360  0.73990  Biso   1.000  C
  C22      1.0000 0.28760  0.47360  0.76010  Biso   1.000  C
  C23      1.0000 0.78760  0.02640  0.26010  Biso   1.000  C
  C24      1.0000 0.71240  0.52640  0.23990  Biso   1.000  C
  H9       1.0000 0.29240  0.96120  0.76620  Biso   1.000  H
  H10      1.0000 0.20760  0.46120  0.73380  Biso   1.000  H
  H11      1.0000 0.70760  0.03880  0.23380  Biso   1.000  H
  H12      1.0000 0.79240  0.53880  0.26620  Biso   1.000  H
  C25      1.0000 0.29050  0.09030  0.71670  Biso   1.000  C
  C26      1.0000 0.20950  0.59030  0.78330  Biso   1.000  C
  C27      1.0000 0.70950  0.90970  0.28330  Biso   1.000  C
  C28      1.0000 0.79050  0.40970  0.21670  Biso   1.000  C
  C29      1.0000 0.84820  0.02630  0.60710  Biso   1.000  C
  C30      1.0000 0.65180  0.52630  0.89290  Biso   1.000  C
  C31      1.0000 0.15180  0.97370  0.39290  Biso   1.000  C
  C32      1.0000 0.34820  0.47370  0.10710  Biso   1.000  C
  C33      1.0000 0.43050  0.27390  0.45840  Biso   1.000  C
  C34      1.0000 0.06950  0.77390  0.04160  Biso   1.000  C
  C35      1.0000 0.56950  0.72610  0.54160  Biso   1.000  C
  C36      1.0000 0.93050  0.22610  0.95840  Biso   1.000  C
  H13      1.0000 0.47130  0.30730  0.50250  Biso   1.000  H
  H14      1.0000 0.02870  0.80730  0.99750  Biso   1.000  H
  H15      1.0000 0.52870  0.69270  0.49750  Biso   1.000  H
  H16      1.0000 0.97130  0.19270  0.00250  Biso   1.000  H
  C37      1.0000 0.43980  0.27560  0.33590  Biso   1.000  C
  C38      1.0000 0.06020  0.77560  0.16410  Biso   1.000  C
  C39      1.0000 0.56020  0.72440  0.66410  Biso   1.000  C
  C40      1.0000 0.93980  0.22440  0.83590  Biso   1.000  C
  H17      1.0000 0.48790  0.30820  0.29960  Biso   1.000  H
  H18      1.0000 0.01210  0.80820  0.20040  Biso   1.000  H
  H19      1.0000 0.51210  0.69180  0.70040  Biso   1.000  H
  H20      1.0000 0.98790  0.19180  0.79960  Biso   1.000  H
  C41      1.0000 0.37770  0.22870  0.26730  Biso   1.000  C
  C42      1.0000 0.12230  0.72870  0.23270  Biso   1.000  C
  C43      1.0000 0.62230  0.77130  0.73270  Biso   1.000  C
  C44      1.0000 0.87770  0.27130  0.76730  Biso   1.000  C
  C45      1.0000 0.31220  0.18060  0.32770  Biso   1.000  C
  C46      1.0000 0.18780  0.68060  0.17230  Biso   1.000  C
  C47      1.0000 0.68780  0.81940  0.67230  Biso   1.000  C
  C48      1.0000 0.81220  0.31940  0.82770  Biso   1.000  C
  H21      1.0000 0.27000  0.14700  0.28560  Biso   1.000  H
  H22      1.0000 0.23000  0.64700  0.21440  Biso   1.000  H
  H23      1.0000 0.73000  0.85300  0.71440  Biso   1.000  H
  H24      1.0000 0.77000  0.35300  0.78560  Biso   1.000  H
  C49      1.0000 0.31040  0.18300  0.45140  Biso   1.000  C
  C50      1.0000 0.18960  0.68300  0.04860  Biso   1.000  C
  C51      1.0000 0.68960  0.81700  0.54860  Biso   1.000  C
  C52      1.0000 0.81040  0.31700  0.95140  Biso   1.000  C
  H25      1.0000 0.26540  0.15020  0.49070  Biso   1.000  H
  H26      1.0000 0.23460  0.65020  0.00930  Biso   1.000  H
  H27      1.0000 0.73460  0.84980  0.50930  Biso   1.000  H
  H28      1.0000 0.76540  0.34980  0.99070  Biso   1.000  H
  C53      1.0000 0.38050  0.22780  0.13390  Biso   1.000  C
  C54      1.0000 0.11950  0.72780  0.36610  Biso   1.000  C
  C55      1.0000 0.61950  0.77220  0.86610  Biso   1.000  C
  C56      1.0000 0.88050  0.27220  0.63390  Biso   1.000  C
  C57      1.0000 0.48840  0.24050  0.07250  Biso   1.000  C
  C58      1.0000 0.01160  0.74050  0.42750  Biso   1.000  C
  C59      1.0000 0.51160  0.75950  0.92750  Biso   1.000  C
  C60      1.0000 0.98840  0.25950  0.57250  Biso   1.000  C
  H29      1.0000 0.56200  0.25140  0.11450  Biso   1.000  H
  H30      1.0000 0.93800  0.75140  0.38550  Biso   1.000  H
  H31      1.0000 0.43800  0.74860  0.88550  Biso   1.000  H
  H32      1.0000 0.06200  0.24860  0.61450  Biso   1.000  H
  C61      1.0000 0.27550  0.21420  0.06750  Biso   1.000  C
  C62      1.0000 0.22450  0.71420  0.43250  Biso   1.000  C
  C63      1.0000 0.72450  0.78580  0.93250  Biso   1.000  C
  C64      1.0000 0.77550  0.28580  0.56750  Biso   1.000  C
  H33      1.0000 0.20060  0.20590  0.10560  Biso   1.000  H
  H34      1.0000 0.29940  0.70590  0.39440  Biso   1.000  H
  H35      1.0000 0.79940  0.79410  0.89440  Biso   1.000  H
  H36      1.0000 0.70060  0.29410  0.60560  Biso   1.000  H
  C65      1.0000 0.14800  0.85360  0.76370  Biso   1.000  C
  C66      1.0000 0.35200  0.35360  0.73630  Biso   1.000  C
  C67      1.0000 0.85200  0.14640  0.23630  Biso   1.000  C
  C68      1.0000 0.64800  0.64640  0.26370  Biso   1.000  C
  O21      1.0000 0.05570  0.81674  0.78710  Biso   1.000  O
  O22      1.0000 0.44430  0.31674  0.71290  Biso   1.000  O
  O23      1.0000 0.94430  0.18326  0.21290  Biso   1.000  O
  O24      1.0000 0.55570  0.68326  0.28710  Biso   1.000  O
  O25      1.0000 0.25670  0.83355  0.76060  Biso   1.000  O
  O26      1.0000 0.24330  0.33355  0.73940  Biso   1.000  O
  O27      1.0000 0.74330  0.16645  0.23940  Biso   1.000  O
  O28      1.0000 0.75670  0.66645  0.26060  Biso   1.000  O
  C69      1.0000 0.48680  0.23690  0.94730  Biso   1.000  C
  C70      1.0000 0.01320  0.73690  0.55270  Biso   1.000  C
  C71      1.0000 0.51320  0.76310  0.05270  Biso   1.000  C
  C72      1.0000 0.98680  0.26310  0.44730  Biso   1.000  C
  C73      1.0000 0.27960  0.21250  0.94440  Biso   1.000  C
  C74      1.0000 0.22040  0.71250  0.55560  Biso   1.000  C
  C75      1.0000 0.72040  0.78750  0.05560  Biso   1.000  C
  C76      1.0000 0.77960  0.28750  0.44440  Biso   1.000  C
  N5       1.0000 0.38170  0.22293  0.88540  Biso   1.000  N
  N6       1.0000 0.11830  0.72293  0.61460  Biso   1.000  N
  N7       1.0000 0.61830  0.77707  0.11460  Biso   1.000  N
  N8       1.0000 0.88170  0.27707  0.38540  Biso   1.000  N
  H37      1.0000 0.20620  0.20340  0.90120  Biso   1.000  H
  H38      1.0000 0.29380  0.70340  0.59880  Biso   1.000  H
  H39      1.0000 0.79380  0.79660  0.09880  Biso   1.000  H
  H40      1.0000 0.70620  0.29660  0.40120  Biso   1.000  H
  O29      1.0000 0.63320  0.12740  0.45780  Biso   1.000  O
  O30      1.0000 0.86680  0.62740  0.04220  Biso   1.000  O
  O31      1.0000 0.36680  0.87260  0.54220  Biso   1.000  O
  O32      1.0000 0.13320  0.37260  0.95780  Biso   1.000  O
  H41      1.0000 0.66500  0.14300  0.39600  Biso   1.000  H
  H42      1.0000 0.83500  0.64300  0.10400  Biso   1.000  H
  H43      1.0000 0.33500  0.85700  0.60400  Biso   1.000  H
  H44      1.0000 0.16500  0.35700  0.89600  Biso   1.000  H
  O33      1.0000 0.48160  0.03680  0.36150  Biso   1.000  O
  O34      1.0000 0.01840  0.53680  0.13850  Biso   1.000  O
  O35      1.0000 0.51840  0.96320  0.63850  Biso   1.000  O
  O36      1.0000 0.98160  0.46320  0.86150  Biso   1.000  O
  H45      1.0000 0.50700  0.99800  0.34000  Biso   1.000  H
  H46      1.0000 0.99300  0.49800  0.16000  Biso   1.000  H
  H47      1.0000 0.49300  0.00200  0.66000  Biso   1.000  H
  H48      1.0000 0.00700  0.50200  0.84000  Biso   1.000  H
  O37      1.0000 0.22470  0.93900  0.08260  Biso   1.000  O
  O38      1.0000 0.27530  0.43900  0.41740  Biso   1.000  O
  O39      1.0000 0.77530  0.06100  0.91740  Biso   1.000  O
  O40      1.0000 0.72470  0.56100  0.58260  Biso   1.000  O
  C77      1.0000 0.06800  0.07120  0.98300  Biso   1.000  C
  C78      1.0000 0.43200  0.57120  0.51700  Biso   1.000  C
  C79      1.0000 0.93200  0.92880  0.01700  Biso   1.000  C
  C80      1.0000 0.56800  0.42880  0.48300  Biso   1.000  C
  C81      1.0000 0.21300  0.02290  0.06000  Biso   1.000  C
  C82      1.0000 0.28700  0.52290  0.44000  Biso   1.000  C
  C83      1.0000 0.78700  0.97710  0.94000  Biso   1.000  C
  C84      1.0000 0.71300  0.47710  0.56000  Biso   1.000  C
  H49      1.0000 0.38110  0.22090  0.80800  Biso   1.000  H
  H50      1.0000 0.11890  0.72090  0.69200  Biso   1.000  H
  H51      1.0000 0.61890  0.77910  0.19200  Biso   1.000  H
  H52      1.0000 0.88110  0.27910  0.30800  Biso   1.000  H
