data_image0
_cell_length_a       14.27
_cell_length_b       9.143
_cell_length_c       12.371
_cell_angle_alpha    90
_cell_angle_beta     118.612
_cell_angle_gamma    90

_symmetry_space_group_name_H-M    "P 1"
_symmetry_int_tables_number       1

loop_
  _symmetry_equiv_pos_as_xyz
  'x, y, z'

loop_
  _atom_site_label
  _atom_site_occupancy
  _atom_site_fract_x
  _atom_site_fract_y
  _atom_site_fract_z
  _atom_site_thermal_displace_type
  _atom_site_B_iso_or_equiv
  _atom_site_type_symbol
  Cu1      1.0000 0.31444  0.77593  0.57943  Biso   1.000  Cu
  Cu2      1.0000 0.31444  0.22407  0.07943  Biso   1.000  Cu
  Cu3      1.0000 0.81444  0.27593  0.57943  Biso   1.000  Cu
  Cu4      1.0000 0.81444  0.72407  0.07943  Biso   1.000  Cu
  N1       1.0000 0.30660  0.98400  0.62520  Biso   1.000  N
  N2       1.0000 0.30660  0.01600  0.12520  Biso   1.000  N
  N3       1.0000 0.80660  0.48400  0.62520  Biso   1.000  N
  N4       1.0000 0.80660  0.51600  0.12520  Biso   1.000  N
  N5       1.0000 0.40810  0.86540  0.52020  Biso   1.000  N
  N6       1.0000 0.40810  0.13460  0.02020  Biso   1.000  N
  N7       1.0000 0.90810  0.36540  0.52020  Biso   1.000  N
  N8       1.0000 0.90810  0.63460  0.02020  Biso   1.000  N
  N9       1.0000 0.24990  0.69500  0.67470  Biso   1.000  N
  N10      1.0000 0.24990  0.30500  0.17470  Biso   1.000  N
  N11      1.0000 0.74990  0.19500  0.67470  Biso   1.000  N
  N12      1.0000 0.74990  0.80500  0.17470  Biso   1.000  N
  N13      1.0000 0.19810  0.58060  0.81420  Biso   1.000  N
  N14      1.0000 0.19810  0.41940  0.31420  Biso   1.000  N
  N15      1.0000 0.69810  0.08060  0.81420  Biso   1.000  N
  N16      1.0000 0.69810  0.91940  0.31420  Biso   1.000  N
  N17      1.0000 0.28590  0.40120  0.97680  Biso   1.000  N
  N18      1.0000 0.28590  0.59880  0.47680  Biso   1.000  N
  N19      1.0000 0.78590  0.90120  0.97680  Biso   1.000  N
  N20      1.0000 0.78590  0.09880  0.47680  Biso   1.000  N
  C1       1.0000 0.24710  0.03370  0.67460  Biso   1.000  C
  C2       1.0000 0.24710  0.96630  0.17460  Biso   1.000  C
  C3       1.0000 0.74710  0.53370  0.67460  Biso   1.000  C
  C4       1.0000 0.74710  0.46630  0.17460  Biso   1.000  C
  H1       1.0000 0.21070  0.96710  0.69770  Biso   1.000  H
  H2       1.0000 0.21070  0.03290  0.19770  Biso   1.000  H
  H3       1.0000 0.71070  0.46710  0.69770  Biso   1.000  H
  H4       1.0000 0.71070  0.53290  0.19770  Biso   1.000  H
  C5       1.0000 0.23850  0.18180  0.69210  Biso   1.000  C
  C6       1.0000 0.23850  0.81820  0.19210  Biso   1.000  C
  C7       1.0000 0.73850  0.68180  0.69210  Biso   1.000  C
  C8       1.0000 0.73850  0.31820  0.19210  Biso   1.000  C
  H5       1.0000 0.19800  0.21490  0.72780  Biso   1.000  H
  H6       1.0000 0.19800  0.78510  0.22780  Biso   1.000  H
  H7       1.0000 0.69800  0.71490  0.72780  Biso   1.000  H
  H8       1.0000 0.69800  0.28510  0.22780  Biso   1.000  H
  C9       1.0000 0.29230  0.27970  0.65450  Biso   1.000  C
  C10      1.0000 0.29230  0.72030  0.15450  Biso   1.000  C
  C11      1.0000 0.79230  0.77970  0.65450  Biso   1.000  C
  C12      1.0000 0.79230  0.22030  0.15450  Biso   1.000  C
  H9       1.0000 0.28710  0.37990  0.66370  Biso   1.000  H
  H10      1.0000 0.28710  0.62010  0.16370  Biso   1.000  H
  H11      1.0000 0.78710  0.87990  0.66370  Biso   1.000  H
  H12      1.0000 0.78710  0.12010  0.16370  Biso   1.000  H
  C13      1.0000 0.35220  0.22850  0.60440  Biso   1.000  C
  C14      1.0000 0.35220  0.77150  0.10440  Biso   1.000  C
  C15      1.0000 0.85220  0.72850  0.60440  Biso   1.000  C
  C16      1.0000 0.85220  0.27150  0.10440  Biso   1.000  C
  H13      1.0000 0.39010  0.29300  0.58180  Biso   1.000  H
  H14      1.0000 0.39010  0.70700  0.08180  Biso   1.000  H
  H15      1.0000 0.89010  0.79300  0.58180  Biso   1.000  H
  H16      1.0000 0.89010  0.20700  0.08180  Biso   1.000  H
  C17      1.0000 0.35630  0.07890  0.58730  Biso   1.000  C
  C18      1.0000 0.35630  0.92110  0.08730  Biso   1.000  C
  C19      1.0000 0.85630  0.57890  0.58730  Biso   1.000  C
  C20      1.0000 0.85630  0.42110  0.08730  Biso   1.000  C
  C21      1.0000 0.41500  0.01170  0.52850  Biso   1.000  C
  C22      1.0000 0.41500  0.98830  0.02850  Biso   1.000  C
  C23      1.0000 0.91500  0.51170  0.52850  Biso   1.000  C
  C24      1.0000 0.91500  0.48830  0.02850  Biso   1.000  C
  C25      1.0000 0.47150  0.08920  0.48230  Biso   1.000  C
  C26      1.0000 0.47150  0.91080  0.98230  Biso   1.000  C
  C27      1.0000 0.97150  0.58920  0.48230  Biso   1.000  C
  C28      1.0000 0.97150  0.41080  0.98230  Biso   1.000  C
  H17      1.0000 0.47500  0.19070  0.48720  Biso   1.000  H
  H18      1.0000 0.47500  0.80930  0.98720  Biso   1.000  H
  H19      1.0000 0.97500  0.69070  0.48720  Biso   1.000  H
  H20      1.0000 0.97500  0.30930  0.98720  Biso   1.000  H
  C29      1.0000 0.52230  0.01400  0.42910  Biso   1.000  C
  C30      1.0000 0.52230  0.98600  0.92910  Biso   1.000  C
  C31      1.0000 0.02230  0.51400  0.42910  Biso   1.000  C
  C32      1.0000 0.02230  0.48600  0.92910  Biso   1.000  C
  H21      1.0000 0.55900  0.06460  0.39570  Biso   1.000  H
  H22      1.0000 0.55900  0.93540  0.89570  Biso   1.000  H
  H23      1.0000 0.05900  0.56460  0.39570  Biso   1.000  H
  H24      1.0000 0.05900  0.43540  0.89570  Biso   1.000  H
  C33      1.0000 0.51860  0.86490  0.42540  Biso   1.000  C
  C34      1.0000 0.51860  0.13510  0.92540  Biso   1.000  C
  C35      1.0000 0.01860  0.36490  0.42540  Biso   1.000  C
  C36      1.0000 0.01860  0.63510  0.92540  Biso   1.000  C
  H25      1.0000 0.55450  0.81260  0.39200  Biso   1.000  H
  H26      1.0000 0.55450  0.18740  0.89200  Biso   1.000  H
  H27      1.0000 0.05450  0.31260  0.39200  Biso   1.000  H
  H28      1.0000 0.05450  0.68740  0.89200  Biso   1.000  H
  C37      1.0000 0.46090  0.79350  0.47190  Biso   1.000  C
  C38      1.0000 0.46090  0.20650  0.97190  Biso   1.000  C
  C39      1.0000 0.96090  0.29350  0.47190  Biso   1.000  C
  C40      1.0000 0.96090  0.70650  0.97190  Biso   1.000  C
  H29      1.0000 0.45840  0.69180  0.46960  Biso   1.000  H
  H30      1.0000 0.45840  0.30820  0.96960  Biso   1.000  H
  H31      1.0000 0.95840  0.19180  0.46960  Biso   1.000  H
  H32      1.0000 0.95840  0.80820  0.96960  Biso   1.000  H
  C41      1.0000 0.23050  0.63800  0.74290  Biso   1.000  C
  C42      1.0000 0.23050  0.36200  0.24290  Biso   1.000  C
  C43      1.0000 0.73050  0.13800  0.74290  Biso   1.000  C
  C44      1.0000 0.73050  0.86200  0.24290  Biso   1.000  C
  C45      1.0000 0.24960  0.48340  0.89850  Biso   1.000  C
  C46      1.0000 0.24960  0.51660  0.39850  Biso   1.000  C
  C47      1.0000 0.74960  0.98340  0.89850  Biso   1.000  C
  C48      1.0000 0.74960  0.01660  0.39850  Biso   1.000  C
  Cl1      1.0000 0.54441  0.56960  0.82745  Biso   1.000  Cl
  Cl2      1.0000 0.54441  0.43040  0.32745  Biso   1.000  Cl
  Cl3      1.0000 0.04441  0.06960  0.82745  Biso   1.000  Cl
  Cl4      1.0000 0.04441  0.93040  0.32745  Biso   1.000  Cl
  O1       1.0000 0.48840  0.65040  0.72680  Biso   1.000  O
  O2       1.0000 0.48840  0.34960  0.22680  Biso   1.000  O
  O3       1.0000 0.98840  0.15040  0.72680  Biso   1.000  O
  O4       1.0000 0.98840  0.84960  0.22680  Biso   1.000  O
  O5       1.0000 0.63330  0.64440  0.89720  Biso   1.000  O
  O6       1.0000 0.63330  0.35560  0.39720  Biso   1.000  O
  O7       1.0000 0.13330  0.14440  0.89720  Biso   1.000  O
  O8       1.0000 0.13330  0.85560  0.39720  Biso   1.000  O
  O9       1.0000 0.48470  0.54200  0.88890  Biso   1.000  O
  O10      1.0000 0.48470  0.45800  0.38890  Biso   1.000  O
  O11      1.0000 0.98470  0.04200  0.88890  Biso   1.000  O
  O12      1.0000 0.98470  0.95800  0.38890  Biso   1.000  O
  O13      1.0000 0.58830  0.44090  0.81190  Biso   1.000  O
  O14      1.0000 0.58830  0.55910  0.31190  Biso   1.000  O
  O15      1.0000 0.08830  0.94090  0.81190  Biso   1.000  O
  O16      1.0000 0.08830  0.05910  0.31190  Biso   1.000  O
