data_image0
_cell_length_a       10.056
_cell_length_b       10.697
_cell_length_c       17.41
_cell_angle_alpha    93.364
_cell_angle_beta     104.168
_cell_angle_gamma    102.945

_symmetry_space_group_name_H-M    "P 1"
_symmetry_int_tables_number       1

loop_
  _symmetry_equiv_pos_as_xyz
  'x, y, z'

loop_
  _atom_site_label
  _atom_site_occupancy
  _atom_site_fract_x
  _atom_site_fract_y
  _atom_site_fract_z
  _atom_site_thermal_displace_type
  _atom_site_B_iso_or_equiv
  _atom_site_type_symbol
  Mo1      1.0000 0.69930  0.13939  0.73848  Biso   1.000  Mo
  Mo2      1.0000 0.30070  0.86061  0.26152  Biso   1.000  Mo
  Cu1      1.0000 0.00000  0.00000  0.00000  Biso   1.000  Cu
  Cu2      1.0000 0.72409  0.23042  0.43145  Biso   1.000  Cu
  Cu3      1.0000 0.27591  0.76958  0.56855  Biso   1.000  Cu
  C1       1.0000 0.82860  0.09280  0.84655  Biso   1.000  C
  C2       1.0000 0.17140  0.90720  0.15345  Biso   1.000  C
  N1       1.0000 0.89090  0.06280  0.90392  Biso   1.000  N
  N2       1.0000 0.10910  0.93720  0.09608  Biso   1.000  N
  C3       1.0000 0.77840  0.97430  0.71123  Biso   1.000  C
  C4       1.0000 0.22160  0.02570  0.28877  Biso   1.000  C
  N3       1.0000 0.81600  0.88440  0.69675  Biso   1.000  N
  N4       1.0000 0.18400  0.11560  0.30325  Biso   1.000  N
  C5       1.0000 0.52340  0.00290  0.65689  Biso   1.000  C
  C6       1.0000 0.47660  0.99710  0.34311  Biso   1.000  C
  N5       1.0000 0.43280  0.92547  0.61608  Biso   1.000  N
  N6       1.0000 0.56720  0.07453  0.38392  Biso   1.000  N
  C7       1.0000 0.55060  0.05240  0.80216  Biso   1.000  C
  C8       1.0000 0.44940  0.94760  0.19784  Biso   1.000  C
  N7       1.0000 0.47100  0.00580  0.83573  Biso   1.000  N
  N8       1.0000 0.52900  0.99420  0.16427  Biso   1.000  N
  C9       1.0000 0.89890  0.27350  0.74363  Biso   1.000  C
  C10      1.0000 0.10110  0.72650  0.25637  Biso   1.000  C
  N9       1.0000 0.00120  0.34620  0.74259  Biso   1.000  N
  N10      1.0000 0.99880  0.65380  0.25741  Biso   1.000  N
  C11      1.0000 0.72000  0.16010  0.61905  Biso   1.000  C
  C12      1.0000 0.28000  0.83990  0.38095  Biso   1.000  C
  N11      1.0000 0.73350  0.17246  0.55600  Biso   1.000  N
  N12      1.0000 0.26650  0.82754  0.44400  Biso   1.000  N
  C13      1.0000 0.55480  0.25590  0.69309  Biso   1.000  C
  C14      1.0000 0.44520  0.74410  0.30691  Biso   1.000  C
  N13      1.0000 0.47430  0.31450  0.66740  Biso   1.000  N
  N14      1.0000 0.52570  0.68550  0.33260  Biso   1.000  N
  C15      1.0000 0.72170  0.28980  0.83311  Biso   1.000  C
  C16      1.0000 0.27830  0.71020  0.16689  Biso   1.000  C
  N15      1.0000 0.73460  0.36750  0.88411  Biso   1.000  N
  N16      1.0000 0.26540  0.63250  0.11589  Biso   1.000  N
  O1       1.0000 0.19630  0.14241  0.98723  Biso   1.000  O
  O2       1.0000 0.80370  0.85759  0.01277  Biso   1.000  O
  C17      1.0000 0.31830  0.13090  0.01056  Biso   1.000  C
  C18      1.0000 0.68170  0.86910  0.98944  Biso   1.000  C
  N17      1.0000 0.43050  0.20800  0.99501  Biso   1.000  N
  N18      1.0000 0.56950  0.79200  0.00499  Biso   1.000  N
  C19      1.0000 0.57330  0.19180  0.02495  Biso   1.000  C
  C20      1.0000 0.42670  0.80820  0.97505  Biso   1.000  C
  H1       1.0000 0.57060  0.11760  0.05550  Biso   1.000  H
  H2       1.0000 0.42940  0.88240  0.94450  Biso   1.000  H
  H3       1.0000 0.63280  0.27000  0.05950  Biso   1.000  H
  H4       1.0000 0.36720  0.73000  0.94050  Biso   1.000  H
  H5       1.0000 0.61270  0.17700  0.98000  Biso   1.000  H
  H6       1.0000 0.38730  0.82300  0.02000  Biso   1.000  H
  C21      1.0000 0.41340  0.30790  0.94360  Biso   1.000  C
  C22      1.0000 0.58660  0.69210  0.05640  Biso   1.000  C
  H7       1.0000 0.44590  0.29030  0.89630  Biso   1.000  H
  H8       1.0000 0.55410  0.70970  0.10370  Biso   1.000  H
  H9       1.0000 0.46950  0.39190  0.97250  Biso   1.000  H
  H10      1.0000 0.53050  0.60810  0.02750  Biso   1.000  H
  H11      1.0000 0.31340  0.30920  0.92710  Biso   1.000  H
  H12      1.0000 0.68660  0.69080  0.07290  Biso   1.000  H
  O3       1.0000 0.03020  0.86501  0.92576  Biso   1.000  O
  O4       1.0000 0.96980  0.13499  0.07424  Biso   1.000  O
  C23      1.0000 0.05040  0.75920  0.94278  Biso   1.000  C
  C24      1.0000 0.94960  0.24080  0.05722  Biso   1.000  C
  N19      1.0000 0.05550  0.66720  0.89033  Biso   1.000  N
  N20      1.0000 0.94450  0.33280  0.10967  Biso   1.000  N
  C25      1.0000 0.08600  0.54580  0.91432  Biso   1.000  C
  C26      1.0000 0.91400  0.45420  0.08568  Biso   1.000  C
  H13      1.0000 0.11180  0.55100  0.97270  Biso   1.000  H
  H14      1.0000 0.88820  0.44900  0.02730  Biso   1.000  H
  H15      1.0000 0.16460  0.53030  0.89440  Biso   1.000  H
  H16      1.0000 0.83540  0.46970  0.10560  Biso   1.000  H
  H17      1.0000 0.00190  0.47470  0.89200  Biso   1.000  H
  H18      1.0000 0.99810  0.52530  0.10800  Biso   1.000  H
  C27      1.0000 0.03240  0.68260  0.80626  Biso   1.000  C
  C28      1.0000 0.96760  0.31740  0.19374  Biso   1.000  C
  H19      1.0000 0.99660  0.75970  0.79590  Biso   1.000  H
  H20      1.0000 0.00340  0.24030  0.20410  Biso   1.000  H
  H21      1.0000 0.96300  0.60640  0.77450  Biso   1.000  H
  H22      1.0000 0.03700  0.39360  0.22550  Biso   1.000  H
  H23      1.0000 0.12180  0.69220  0.79150  Biso   1.000  H
  H24      1.0000 0.87820  0.30780  0.20850  Biso   1.000  H
  O5       1.0000 0.85958  0.13807  0.40541  Biso   1.000  O
  O6       1.0000 0.14042  0.86193  0.59459  Biso   1.000  O
  C29      1.0000 0.83000  0.08090  0.33522  Biso   1.000  C
  C30      1.0000 0.17000  0.91910  0.66478  Biso   1.000  C
  N21      1.0000 0.86540  0.97410  0.31883  Biso   1.000  N
  N22      1.0000 0.13460  0.02590  0.68117  Biso   1.000  N
  C31      1.0000 0.93810  0.91000  0.38174  Biso   1.000  C
  C32      1.0000 0.06190  0.09000  0.61826  Biso   1.000  C
  H25      1.0000 0.03900  0.92920  0.38400  Biso   1.000  H
  H26      1.0000 0.96100  0.07080  0.61600  Biso   1.000  H
  H27      1.0000 0.89780  0.81650  0.37040  Biso   1.000  H
  H28      1.0000 0.10220  0.18350  0.62960  Biso   1.000  H
  H29      1.0000 0.92630  0.94130  0.43310  Biso   1.000  H
  H30      1.0000 0.07370  0.05870  0.56690  Biso   1.000  H
  C33      1.0000 0.83610  0.91590  0.23616  Biso   1.000  C
  C34      1.0000 0.16390  0.08410  0.76384  Biso   1.000  C
  H31      1.0000 0.78020  0.96350  0.20030  Biso   1.000  H
  H32      1.0000 0.21980  0.03650  0.79970  Biso   1.000  H
  H33      1.0000 0.78300  0.82560  0.23060  Biso   1.000  H
  H34      1.0000 0.21700  0.17440  0.76940  Biso   1.000  H
  H35      1.0000 0.92560  0.91960  0.22230  Biso   1.000  H
  H36      1.0000 0.07440  0.08040  0.77770  Biso   1.000  H
  O7       1.0000 0.68226  0.30101  0.29878  Biso   1.000  O
  O8       1.0000 0.31774  0.69899  0.70122  Biso   1.000  O
  C35      1.0000 0.55530  0.29430  0.26691  Biso   1.000  C
  C36      1.0000 0.44470  0.70570  0.73309  Biso   1.000  C
  N23      1.0000 0.50730  0.37290  0.21719  Biso   1.000  N
  N24      1.0000 0.49270  0.62710  0.78281  Biso   1.000  N
  C37      1.0000 0.60250  0.48170  0.19653  Biso   1.000  C
  C38      1.0000 0.39750  0.51830  0.80347  Biso   1.000  C
  H37      1.0000 0.70060  0.48280  0.22350  Biso   1.000  H
  H38      1.0000 0.29940  0.51720  0.77650  Biso   1.000  H
  H39      1.0000 0.58150  0.56240  0.21350  Biso   1.000  H
  H40      1.0000 0.41850  0.43760  0.78650  Biso   1.000  H
  H41      1.0000 0.58970  0.47290  0.13870  Biso   1.000  H
  H42      1.0000 0.41030  0.52710  0.86130  Biso   1.000  H
  C39      1.0000 0.35610  0.35820  0.18365  Biso   1.000  C
  C40      1.0000 0.64390  0.64180  0.81635  Biso   1.000  C
  H43      1.0000 0.30310  0.28190  0.20140  Biso   1.000  H
  H44      1.0000 0.69690  0.71810  0.79860  Biso   1.000  H
  H45      1.0000 0.33420  0.34750  0.12530  Biso   1.000  H
  H46      1.0000 0.66580  0.65250  0.87470  Biso   1.000  H
  H47      1.0000 0.32930  0.43520  0.20170  Biso   1.000  H
  H48      1.0000 0.67070  0.56480  0.79830  Biso   1.000  H
  O9       1.0000 0.58467  0.33097  0.44316  Biso   1.000  O
  O10      1.0000 0.41533  0.66903  0.55684  Biso   1.000  O
  C41      1.0000 0.47900  0.28470  0.46806  Biso   1.000  C
  C42      1.0000 0.52100  0.71530  0.53194  Biso   1.000  C
  C43      1.0000 0.34420  0.42720  0.40153  Biso   1.000  C
  C44      1.0000 0.65580  0.57280  0.59847  Biso   1.000  C
  H49      1.0000 0.43120  0.45970  0.38540  Biso   1.000  H
  H50      1.0000 0.56880  0.54030  0.61460  Biso   1.000  H
  H51      1.0000 0.32210  0.49830  0.43010  Biso   1.000  H
  H52      1.0000 0.67790  0.50170  0.56990  Biso   1.000  H
  H53      1.0000 0.26600  0.39080  0.35400  Biso   1.000  H
  H54      1.0000 0.73400  0.60920  0.64600  Biso   1.000  H
  C45      1.0000 0.24550  0.27010  0.48574  Biso   1.000  C
  C46      1.0000 0.75450  0.72990  0.51426  Biso   1.000  C
  H55      1.0000 0.26540  0.19600  0.51290  Biso   1.000  H
  H56      1.0000 0.73460  0.80400  0.48710  Biso   1.000  H
  H57      1.0000 0.15890  0.24140  0.44200  Biso   1.000  H
  H58      1.0000 0.84110  0.75860  0.55800  Biso   1.000  H
  H59      1.0000 0.23290  0.33480  0.52380  Biso   1.000  H
  H60      1.0000 0.76710  0.66520  0.47620  Biso   1.000  H
  N25      1.0000 0.36380  0.32710  0.45366  Biso   1.000  N
  N26      1.0000 0.63620  0.67290  0.54634  Biso   1.000  N
  C47      1.0000 0.93070  0.47120  0.42276  Biso   1.000  C
  C48      1.0000 0.06930  0.52880  0.57724  Biso   1.000  C
  H61      1.0000 0.88380  0.45320  0.36740  Biso   1.000  H
  H62      1.0000 0.11620  0.54680  0.63260  Biso   1.000  H
  C49      1.0000 0.95690  0.42110  0.55020  Biso   1.000  C
  C50      1.0000 0.04310  0.57890  0.44980  Biso   1.000  C
  H63      1.0000 0.92880  0.36660  0.58750  Biso   1.000  H
  H64      1.0000 0.07120  0.63340  0.41250  Biso   1.000  H
  N27      1.0000 0.88680  0.39200  0.47315  Biso   1.000  N
  N28      1.0000 0.11320  0.60800  0.52685  Biso   1.000  N
  H65      1.0000 0.77300  0.11100  0.28980  Biso   1.000  H
  H66      1.0000 0.22700  0.88900  0.71020  Biso   1.000  H
  H67      1.0000 0.34500  0.06200  0.04480  Biso   1.000  H
  H68      1.0000 0.65500  0.93800  0.95520  Biso   1.000  H
  H69      1.0000 0.47700  0.23200  0.27750  Biso   1.000  H
  H70      1.0000 0.52300  0.76800  0.72250  Biso   1.000  H
  H71      1.0000 0.47200  0.21500  0.49870  Biso   1.000  H
  H72      1.0000 0.52800  0.78500  0.50130  Biso   1.000  H
  H73      1.0000 0.07100  0.73600  0.00200  Biso   1.000  H
  H74      1.0000 0.92900  0.26400  0.99800  Biso   1.000  H
