data_image0
_cell_length_a       10.067
_cell_length_b       10.714
_cell_length_c       17.449
_cell_angle_alpha    93.286
_cell_angle_beta     104.191
_cell_angle_gamma    102.986

_symmetry_space_group_name_H-M    "P 1"
_symmetry_int_tables_number       1

loop_
  _symmetry_equiv_pos_as_xyz
  'x, y, z'

loop_
  _atom_site_label
  _atom_site_occupancy
  _atom_site_fract_x
  _atom_site_fract_y
  _atom_site_fract_z
  _atom_site_thermal_displace_type
  _atom_site_B_iso_or_equiv
  _atom_site_type_symbol
  W1       1.0000 0.19921  0.63902  0.73853  Biso   1.000  W
  W2       1.0000 0.80079  0.36098  0.26147  Biso   1.000  W
  Cu1      1.0000 0.50000  0.50000  0.00000  Biso   1.000  Cu
  C1       1.0000 0.07210  0.69240  0.02450  Biso   1.000  C
  C2       1.0000 0.92790  0.30760  0.97550  Biso   1.000  C
  H1       1.0000 0.07030  0.61870  0.05530  Biso   1.000  H
  H2       1.0000 0.92970  0.38130  0.94470  Biso   1.000  H
  H3       1.0000 0.13160  0.77090  0.05870  Biso   1.000  H
  H4       1.0000 0.86840  0.22910  0.94130  Biso   1.000  H
  H5       1.0000 0.11090  0.67750  0.97950  Biso   1.000  H
  H6       1.0000 0.88910  0.32250  0.02050  Biso   1.000  H
  C3       1.0000 0.91150  0.80880  0.94470  Biso   1.000  C
  C4       1.0000 0.08850  0.19120  0.05530  Biso   1.000  C
  H7       1.0000 0.81230  0.81280  0.93080  Biso   1.000  H
  H8       1.0000 0.18770  0.18720  0.06920  Biso   1.000  H
  H9       1.0000 0.93920  0.79040  0.89600  Biso   1.000  H
  H10      1.0000 0.06080  0.20960  0.10400  Biso   1.000  H
  H11      1.0000 0.97110  0.89170  0.97320  Biso   1.000  H
  H12      1.0000 0.02890  0.10830  0.02680  Biso   1.000  H
  O1       1.0000 0.69490  0.64170  0.98713  Biso   1.000  O
  O2       1.0000 0.30510  0.35830  0.01287  Biso   1.000  O
  N1       1.0000 0.92910  0.70780  0.99500  Biso   1.000  N
  N2       1.0000 0.07090  0.29220  0.00500  Biso   1.000  N
  C5       1.0000 0.81770  0.63070  0.01020  Biso   1.000  C
  C6       1.0000 0.18230  0.36930  0.98980  Biso   1.000  C
  H13      1.0000 0.83340  0.56250  0.04090  Biso   1.000  H
  H14      1.0000 0.16660  0.43750  0.95910  Biso   1.000  H
  C7       1.0000 0.46750  0.81740  0.19310  Biso   1.000  C
  C8       1.0000 0.53250  0.18260  0.80690  Biso   1.000  C
  H15      1.0000 0.37890  0.80990  0.20840  Biso   1.000  H
  H16      1.0000 0.62110  0.19010  0.79160  Biso   1.000  H
  H17      1.0000 0.53870  0.89260  0.22460  Biso   1.000  H
  H18      1.0000 0.46130  0.10740  0.77540  Biso   1.000  H
  H19      1.0000 0.50120  0.73930  0.20320  Biso   1.000  H
  H20      1.0000 0.49880  0.26070  0.79680  Biso   1.000  H
  C9       1.0000 0.41290  0.95440  0.08570  Biso   1.000  C
  C10      1.0000 0.58710  0.04560  0.91430  Biso   1.000  C
  H21      1.0000 0.49850  0.02470  0.10520  Biso   1.000  H
  H22      1.0000 0.50150  0.97530  0.89480  Biso   1.000  H
  H23      1.0000 0.33830  0.97210  0.10850  Biso   1.000  H
  H24      1.0000 0.66170  0.02790  0.89150  Biso   1.000  H
  H25      1.0000 0.38130  0.94760  0.02750  Biso   1.000  H
  H26      1.0000 0.61870  0.05240  0.97250  Biso   1.000  H
  O3       1.0000 0.46900  0.63530  0.07395  Biso   1.000  O
  O4       1.0000 0.53100  0.36470  0.92605  Biso   1.000  O
  C11      1.0000 0.44910  0.74100  0.05740  Biso   1.000  C
  C12      1.0000 0.55090  0.25900  0.94260  Biso   1.000  C
  H27      1.0000 0.43690  0.75760  0.00350  Biso   1.000  H
  H28      1.0000 0.56310  0.24240  0.99650  Biso   1.000  H
  N3       1.0000 0.44380  0.83270  0.10950  Biso   1.000  N
  N4       1.0000 0.55620  0.16730  0.89050  Biso   1.000  N
  C13      1.0000 0.32910  0.59260  0.84720  Biso   1.000  C
  C14      1.0000 0.67090  0.40740  0.15280  Biso   1.000  C
  N5       1.0000 0.39110  0.56260  0.90372  Biso   1.000  N
  N6       1.0000 0.60890  0.43740  0.09628  Biso   1.000  N
  Cu2      1.0000 0.22411  0.73069  0.43182  Biso   1.000  Cu
  Cu3      1.0000 0.77589  0.26931  0.56818  Biso   1.000  Cu
  C15      1.0000 0.21970  0.66060  0.61880  Biso   1.000  C
  C16      1.0000 0.78030  0.33940  0.38120  Biso   1.000  C
  N7       1.0000 0.23380  0.67300  0.55640  Biso   1.000  N
  N8       1.0000 0.76620  0.32700  0.44360  Biso   1.000  N
  O5       1.0000 0.18250  0.80150  0.29927  Biso   1.000  O
  O6       1.0000 0.81750  0.19850  0.70073  Biso   1.000  O
  N9       1.0000 0.00810  0.87320  0.21760  Biso   1.000  N
  N10      1.0000 0.99190  0.12680  0.78240  Biso   1.000  N
  C17      1.0000 0.85700  0.85800  0.18380  Biso   1.000  C
  C18      1.0000 0.14300  0.14200  0.81620  Biso   1.000  C
  H29      1.0000 0.80420  0.78030  0.20020  Biso   1.000  H
  H30      1.0000 0.19580  0.21970  0.79980  Biso   1.000  H
  H31      1.0000 0.83590  0.84990  0.12560  Biso   1.000  H
  H32      1.0000 0.16410  0.15010  0.87440  Biso   1.000  H
  H33      1.0000 0.82930  0.93360  0.20290  Biso   1.000  H
  H34      1.0000 0.17070  0.06640  0.79710  Biso   1.000  H
  C19      1.0000 0.10320  0.98190  0.19740  Biso   1.000  C
  C20      1.0000 0.89680  0.01810  0.80260  Biso   1.000  C
  H35      1.0000 0.20100  0.98370  0.22510  Biso   1.000  H
  H36      1.0000 0.79900  0.01630  0.77490  Biso   1.000  H
  H37      1.0000 0.08120  0.06220  0.21380  Biso   1.000  H
  H38      1.0000 0.91880  0.93780  0.78620  Biso   1.000  H
  H39      1.0000 0.09160  0.97310  0.13980  Biso   1.000  H
  H40      1.0000 0.90840  0.02690  0.86020  Biso   1.000  H
  C21      1.0000 0.05550  0.79490  0.26700  Biso   1.000  C
  C22      1.0000 0.94450  0.20510  0.73300  Biso   1.000  C
  H41      1.0000 0.98720  0.72770  0.27910  Biso   1.000  H
  H42      1.0000 0.01280  0.27230  0.72090  Biso   1.000  H
  C23      1.0000 0.45810  0.92110  0.55030  Biso   1.000  C
  C24      1.0000 0.54190  0.07890  0.44970  Biso   1.000  C
  H43      1.0000 0.43060  0.86660  0.58770  Biso   1.000  H
  H44      1.0000 0.56940  0.13340  0.41230  Biso   1.000  H
  N11      1.0000 0.38690  0.89210  0.47315  Biso   1.000  N
  N12      1.0000 0.61310  0.10790  0.52685  Biso   1.000  N
  C25      1.0000 0.42950  0.97150  0.42340  Biso   1.000  C
  C26      1.0000 0.57050  0.02850  0.57660  Biso   1.000  C
  H45      1.0000 0.38160  0.95410  0.36830  Biso   1.000  H
  H46      1.0000 0.61840  0.04590  0.63170  Biso   1.000  H
  O7       1.0000 0.08480  0.83150  0.44325  Biso   1.000  O
  O8       1.0000 0.91520  0.16850  0.55675  Biso   1.000  O
  C27      1.0000 0.84490  0.92760  0.40100  Biso   1.000  C
  C28      1.0000 0.15510  0.07240  0.59900  Biso   1.000  C
  H47      1.0000 0.93280  0.96130  0.38620  Biso   1.000  H
  H48      1.0000 0.06720  0.03870  0.61380  Biso   1.000  H
  H49      1.0000 0.82070  0.99780  0.42890  Biso   1.000  H
  H50      1.0000 0.17930  0.00220  0.57110  Biso   1.000  H
  H51      1.0000 0.76850  0.89090  0.35290  Biso   1.000  H
  H52      1.0000 0.23150  0.10910  0.64710  Biso   1.000  H
  C29      1.0000 0.97910  0.78550  0.46800  Biso   1.000  C
  C30      1.0000 0.02090  0.21450  0.53200  Biso   1.000  C
  H53      1.0000 0.98300  0.71600  0.49920  Biso   1.000  H
  H54      1.0000 0.01700  0.28400  0.50080  Biso   1.000  H
  N13      1.0000 0.86380  0.82720  0.45350  Biso   1.000  N
  N14      1.0000 0.13620  0.17280  0.54650  Biso   1.000  N
  C31      1.0000 0.74610  0.77130  0.48510  Biso   1.000  C
  C32      1.0000 0.25390  0.22870  0.51490  Biso   1.000  C
  H55      1.0000 0.76800  0.70060  0.51520  Biso   1.000  H
  H56      1.0000 0.23200  0.29940  0.48480  Biso   1.000  H
  H57      1.0000 0.66090  0.73790  0.44110  Biso   1.000  H
  H58      1.0000 0.33910  0.26210  0.55890  Biso   1.000  H
  H59      1.0000 0.72990  0.83750  0.52040  Biso   1.000  H
  H60      1.0000 0.27010  0.16250  0.47960  Biso   1.000  H
  C33      1.0000 0.33550  0.41720  0.23680  Biso   1.000  C
  C34      1.0000 0.66450  0.58280  0.76320  Biso   1.000  C
  H61      1.0000 0.28230  0.46670  0.20100  Biso   1.000  H
  H62      1.0000 0.71770  0.53330  0.79900  Biso   1.000  H
  H63      1.0000 0.27960  0.32790  0.23080  Biso   1.000  H
  H64      1.0000 0.72040  0.67210  0.76920  Biso   1.000  H
  H65      1.0000 0.42470  0.41830  0.22340  Biso   1.000  H
  H66      1.0000 0.57530  0.58170  0.77660  Biso   1.000  H
  O9       1.0000 0.35970  0.63810  0.40559  Biso   1.000  O
  O10      1.0000 0.64030  0.36190  0.59441  Biso   1.000  O
  N15      1.0000 0.36520  0.47490  0.31920  Biso   1.000  N
  N16      1.0000 0.63480  0.52510  0.68080  Biso   1.000  N
  C35      1.0000 0.43720  0.41090  0.38170  Biso   1.000  C
  C36      1.0000 0.56280  0.58910  0.61830  Biso   1.000  C
  H67      1.0000 0.42500  0.44170  0.43290  Biso   1.000  H
  H68      1.0000 0.57500  0.55830  0.56710  Biso   1.000  H
  H69      1.0000 0.53820  0.43020  0.38420  Biso   1.000  H
  H70      1.0000 0.46180  0.56980  0.61580  Biso   1.000  H
  H71      1.0000 0.39710  0.31750  0.37020  Biso   1.000  H
  H72      1.0000 0.60290  0.68250  0.62980  Biso   1.000  H
  C37      1.0000 0.33030  0.58110  0.33600  Biso   1.000  C
  C38      1.0000 0.66970  0.41890  0.66400  Biso   1.000  C
  H73      1.0000 0.27990  0.61770  0.29340  Biso   1.000  H
  H74      1.0000 0.72010  0.38230  0.70660  Biso   1.000  H
  N17      1.0000 0.06780  0.57560  0.38408  Biso   1.000  N
  N18      1.0000 0.93220  0.42440  0.61592  Biso   1.000  N
  C39      1.0000 0.97710  0.49760  0.34340  Biso   1.000  C
  C40      1.0000 0.02290  0.50240  0.65660  Biso   1.000  C
  C41      1.0000 0.05360  0.75440  0.69240  Biso   1.000  C
  C42      1.0000 0.94640  0.24560  0.30760  Biso   1.000  C
  N19      1.0000 0.97340  0.81220  0.66690  Biso   1.000  N
  N20      1.0000 0.02660  0.18780  0.33310  Biso   1.000  N
  C43      1.0000 0.39900  0.77230  0.74400  Biso   1.000  C
  C44      1.0000 0.60100  0.22770  0.25600  Biso   1.000  C
  N21      1.0000 0.50130  0.84510  0.74310  Biso   1.000  N
  N22      1.0000 0.49870  0.15490  0.25690  Biso   1.000  N
  N23      1.0000 0.23450  0.86750  0.88380  Biso   1.000  N
  N24      1.0000 0.76550  0.13250  0.11620  Biso   1.000  N
  C45      1.0000 0.22190  0.79000  0.83260  Biso   1.000  C
  C46      1.0000 0.77810  0.21000  0.16740  Biso   1.000  C
  C47      1.0000 0.05080  0.55270  0.80230  Biso   1.000  C
  C48      1.0000 0.94920  0.44730  0.19770  Biso   1.000  C
  N25      1.0000 0.97170  0.50560  0.83580  Biso   1.000  N
  N26      1.0000 0.02830  0.49440  0.16420  Biso   1.000  N
  N27      1.0000 0.31590  0.38470  0.69640  Biso   1.000  N
  N28      1.0000 0.68410  0.61530  0.30360  Biso   1.000  N
  C49      1.0000 0.27820  0.47420  0.71130  Biso   1.000  C
  C50      1.0000 0.72180  0.52580  0.28870  Biso   1.000  C
