data_image0
_cell_length_a       10.6246
_cell_length_b       17.8557
_cell_length_c       20.3022
_cell_angle_alpha    90
_cell_angle_beta     90
_cell_angle_gamma    90

_symmetry_space_group_name_H-M    "P 1"
_symmetry_int_tables_number       1

loop_
  _symmetry_equiv_pos_as_xyz
  'x, y, z'

loop_
  _atom_site_label
  _atom_site_occupancy
  _atom_site_fract_x
  _atom_site_fract_y
  _atom_site_fract_z
  _atom_site_thermal_displace_type
  _atom_site_B_iso_or_equiv
  _atom_site_type_symbol
  Cu1      1.0000 0.60004  0.15260  0.31502  Biso   1.000  Cu
  Cu2      1.0000 0.89996  0.84740  0.81502  Biso   1.000  Cu
  Cu3      1.0000 0.39996  0.65260  0.18498  Biso   1.000  Cu
  Cu4      1.0000 0.10004  0.34740  0.68498  Biso   1.000  Cu
  Cu5      1.0000 0.39996  0.84740  0.68498  Biso   1.000  Cu
  Cu6      1.0000 0.10004  0.15260  0.18498  Biso   1.000  Cu
  Cu7      1.0000 0.60004  0.34740  0.81502  Biso   1.000  Cu
  Cu8      1.0000 0.89996  0.65260  0.31502  Biso   1.000  Cu
  N1       1.0000 0.69560  0.27078  0.35546  Biso   1.000  N
  N2       1.0000 0.80440  0.72922  0.85546  Biso   1.000  N
  N3       1.0000 0.30440  0.77078  0.14454  Biso   1.000  N
  N4       1.0000 0.19560  0.22922  0.64454  Biso   1.000  N
  N5       1.0000 0.30440  0.72922  0.64454  Biso   1.000  N
  N6       1.0000 0.19560  0.27078  0.14454  Biso   1.000  N
  N7       1.0000 0.69560  0.22922  0.85546  Biso   1.000  N
  N8       1.0000 0.80440  0.77078  0.35546  Biso   1.000  N
  C1       1.0000 0.76950  0.32320  0.11873  Biso   1.000  C
  C2       1.0000 0.73050  0.67680  0.61873  Biso   1.000  C
  C3       1.0000 0.23050  0.82320  0.38127  Biso   1.000  C
  C4       1.0000 0.26950  0.17680  0.88127  Biso   1.000  C
  C5       1.0000 0.23050  0.67680  0.88127  Biso   1.000  C
  C6       1.0000 0.26950  0.32320  0.38127  Biso   1.000  C
  C7       1.0000 0.76950  0.17680  0.61873  Biso   1.000  C
  C8       1.0000 0.73050  0.82320  0.11873  Biso   1.000  C
  H1       1.0000 0.75020  0.27640  0.10130  Biso   1.000  H
  H2       1.0000 0.74980  0.72360  0.60130  Biso   1.000  H
  H3       1.0000 0.24980  0.77640  0.39870  Biso   1.000  H
  H4       1.0000 0.25020  0.22360  0.89870  Biso   1.000  H
  H5       1.0000 0.24980  0.72360  0.89870  Biso   1.000  H
  H6       1.0000 0.25020  0.27640  0.39870  Biso   1.000  H
  H7       1.0000 0.75020  0.22360  0.60130  Biso   1.000  H
  H8       1.0000 0.74980  0.77640  0.10130  Biso   1.000  H
  C9       1.0000 0.74480  0.38550  0.08130  Biso   1.000  C
  C10      1.0000 0.75520  0.61450  0.58130  Biso   1.000  C
  C11      1.0000 0.25520  0.88550  0.41870  Biso   1.000  C
  C12      1.0000 0.24480  0.11450  0.91870  Biso   1.000  C
  C13      1.0000 0.25520  0.61450  0.91870  Biso   1.000  C
  C14      1.0000 0.24480  0.38550  0.41870  Biso   1.000  C
  C15      1.0000 0.74480  0.11450  0.58130  Biso   1.000  C
  C16      1.0000 0.75520  0.88550  0.08130  Biso   1.000  C
  H9       1.0000 0.70910  0.38140  0.03960  Biso   1.000  H
  H10      1.0000 0.79090  0.61860  0.53960  Biso   1.000  H
  H11      1.0000 0.29090  0.88140  0.46040  Biso   1.000  H
  H12      1.0000 0.20910  0.11860  0.96040  Biso   1.000  H
  H13      1.0000 0.29090  0.61860  0.96040  Biso   1.000  H
  H14      1.0000 0.20910  0.38140  0.46040  Biso   1.000  H
  H15      1.0000 0.70910  0.11860  0.53960  Biso   1.000  H
  H16      1.0000 0.79090  0.88140  0.03960  Biso   1.000  H
  C17      1.0000 0.77460  0.45390  0.10740  Biso   1.000  C
  C18      1.0000 0.72540  0.54610  0.60740  Biso   1.000  C
  C19      1.0000 0.22540  0.95390  0.39260  Biso   1.000  C
  C20      1.0000 0.27460  0.04610  0.89260  Biso   1.000  C
  C21      1.0000 0.22540  0.54610  0.89260  Biso   1.000  C
  C22      1.0000 0.27460  0.45390  0.39260  Biso   1.000  C
  C23      1.0000 0.77460  0.04610  0.60740  Biso   1.000  C
  C24      1.0000 0.72540  0.95390  0.10740  Biso   1.000  C
  H17      1.0000 0.75970  0.49730  0.08330  Biso   1.000  H
  H18      1.0000 0.74030  0.50270  0.58330  Biso   1.000  H
  H19      1.0000 0.24030  0.99730  0.41670  Biso   1.000  H
  H20      1.0000 0.25970  0.00270  0.91670  Biso   1.000  H
  H21      1.0000 0.24030  0.50270  0.91670  Biso   1.000  H
  H22      1.0000 0.25970  0.49730  0.41670  Biso   1.000  H
  H23      1.0000 0.75970  0.00270  0.58330  Biso   1.000  H
  H24      1.0000 0.74030  0.99730  0.08330  Biso   1.000  H
  C25      1.0000 0.82680  0.45870  0.16940  Biso   1.000  C
  C26      1.0000 0.67320  0.54130  0.66940  Biso   1.000  C
  C27      1.0000 0.17320  0.95870  0.33060  Biso   1.000  C
  C28      1.0000 0.32680  0.04130  0.83060  Biso   1.000  C
  C29      1.0000 0.17320  0.54130  0.83060  Biso   1.000  C
  C30      1.0000 0.32680  0.45870  0.33060  Biso   1.000  C
  C31      1.0000 0.82680  0.04130  0.66940  Biso   1.000  C
  C32      1.0000 0.67320  0.95870  0.16940  Biso   1.000  C
  H25      1.0000 0.84760  0.50500  0.18730  Biso   1.000  H
  H26      1.0000 0.65240  0.49500  0.68730  Biso   1.000  H
  H27      1.0000 0.15240  0.00500  0.31270  Biso   1.000  H
  H28      1.0000 0.34760  0.99500  0.81270  Biso   1.000  H
  H29      1.0000 0.15240  0.49500  0.81270  Biso   1.000  H
  H30      1.0000 0.34760  0.50500  0.31270  Biso   1.000  H
  H31      1.0000 0.84760  0.99500  0.68730  Biso   1.000  H
  H32      1.0000 0.65240  0.00500  0.18730  Biso   1.000  H
  C33      1.0000 0.84760  0.39411  0.20438  Biso   1.000  C
  C34      1.0000 0.65240  0.60589  0.70438  Biso   1.000  C
  C35      1.0000 0.15240  0.89411  0.29562  Biso   1.000  C
  C36      1.0000 0.34760  0.10589  0.79562  Biso   1.000  C
  C37      1.0000 0.15240  0.60589  0.79562  Biso   1.000  C
  C38      1.0000 0.34760  0.39411  0.29562  Biso   1.000  C
  C39      1.0000 0.84760  0.10589  0.70438  Biso   1.000  C
  C40      1.0000 0.65240  0.89411  0.20438  Biso   1.000  C
  C41      1.0000 0.90000  0.39516  0.27294  Biso   1.000  C
  C42      1.0000 0.60000  0.60484  0.77294  Biso   1.000  C
  C43      1.0000 0.10000  0.89516  0.22706  Biso   1.000  C
  C44      1.0000 0.40000  0.10484  0.72706  Biso   1.000  C
  C45      1.0000 0.10000  0.60484  0.72706  Biso   1.000  C
  C46      1.0000 0.40000  0.39516  0.22706  Biso   1.000  C
  C47      1.0000 0.90000  0.10484  0.77294  Biso   1.000  C
  C48      1.0000 0.60000  0.89516  0.27294  Biso   1.000  C
  H33      1.0000 0.91550  0.44650  0.28620  Biso   1.000  H
  H34      1.0000 0.58450  0.55350  0.78620  Biso   1.000  H
  H35      1.0000 0.08450  0.94650  0.21380  Biso   1.000  H
  H36      1.0000 0.41550  0.05350  0.71380  Biso   1.000  H
  H37      1.0000 0.08450  0.55350  0.71380  Biso   1.000  H
  H38      1.0000 0.41550  0.44650  0.21380  Biso   1.000  H
  H39      1.0000 0.91550  0.05350  0.78620  Biso   1.000  H
  H40      1.0000 0.58450  0.94650  0.28620  Biso   1.000  H
  H41      1.0000 0.97950  0.36860  0.27370  Biso   1.000  H
  H42      1.0000 0.52050  0.63140  0.77370  Biso   1.000  H
  H43      1.0000 0.02050  0.86860  0.22630  Biso   1.000  H
  H44      1.0000 0.47950  0.13140  0.72630  Biso   1.000  H
  H45      1.0000 0.02050  0.63140  0.72630  Biso   1.000  H
  H46      1.0000 0.47950  0.36860  0.22630  Biso   1.000  H
  H47      1.0000 0.97950  0.13140  0.77370  Biso   1.000  H
  H48      1.0000 0.52050  0.86860  0.27370  Biso   1.000  H
  C49      1.0000 0.75560  0.38720  0.37340  Biso   1.000  C
  C50      1.0000 0.74440  0.61280  0.87340  Biso   1.000  C
  C51      1.0000 0.24440  0.88720  0.12660  Biso   1.000  C
  C52      1.0000 0.25560  0.11280  0.62660  Biso   1.000  C
  C53      1.0000 0.24440  0.61280  0.62660  Biso   1.000  C
  C54      1.0000 0.25560  0.38720  0.12660  Biso   1.000  C
  C55      1.0000 0.75560  0.11280  0.87340  Biso   1.000  C
  C56      1.0000 0.74440  0.88720  0.37340  Biso   1.000  C
  H49      1.0000 0.76510  0.43470  0.39150  Biso   1.000  H
  H50      1.0000 0.73490  0.56530  0.89150  Biso   1.000  H
  H51      1.0000 0.23490  0.93470  0.10850  Biso   1.000  H
  H52      1.0000 0.26510  0.06530  0.60850  Biso   1.000  H
  H53      1.0000 0.23490  0.56530  0.60850  Biso   1.000  H
  H54      1.0000 0.26510  0.43470  0.10850  Biso   1.000  H
  H55      1.0000 0.76510  0.06530  0.89150  Biso   1.000  H
  H56      1.0000 0.73490  0.93470  0.39150  Biso   1.000  H
  C57      1.0000 0.68060  0.33017  0.39637  Biso   1.000  C
  C58      1.0000 0.81940  0.66983  0.89637  Biso   1.000  C
  C59      1.0000 0.31940  0.83017  0.10363  Biso   1.000  C
  C60      1.0000 0.18060  0.16983  0.60363  Biso   1.000  C
  C61      1.0000 0.31940  0.66983  0.60363  Biso   1.000  C
  C62      1.0000 0.18060  0.33017  0.10363  Biso   1.000  C
  C63      1.0000 0.68060  0.16983  0.89637  Biso   1.000  C
  C64      1.0000 0.81940  0.83017  0.39637  Biso   1.000  C
  C65      1.0000 0.59670  0.32798  0.45386  Biso   1.000  C
  C66      1.0000 0.90330  0.67202  0.95386  Biso   1.000  C
  C67      1.0000 0.40330  0.82798  0.04614  Biso   1.000  C
  C68      1.0000 0.09670  0.17202  0.54614  Biso   1.000  C
  C69      1.0000 0.40330  0.67202  0.54614  Biso   1.000  C
  C70      1.0000 0.09670  0.32798  0.04614  Biso   1.000  C
  C71      1.0000 0.59670  0.17202  0.95386  Biso   1.000  C
  C72      1.0000 0.90330  0.82798  0.45386  Biso   1.000  C
  C73      1.0000 0.56450  0.39354  0.48582  Biso   1.000  C
  C74      1.0000 0.93550  0.60646  0.98582  Biso   1.000  C
  C75      1.0000 0.43550  0.89354  0.01418  Biso   1.000  C
  C76      1.0000 0.06450  0.10646  0.51418  Biso   1.000  C
  C77      1.0000 0.43550  0.60646  0.51418  Biso   1.000  C
  C78      1.0000 0.06450  0.39354  0.01418  Biso   1.000  C
  C79      1.0000 0.56450  0.10646  0.98582  Biso   1.000  C
  C80      1.0000 0.93550  0.89354  0.48582  Biso   1.000  C
  H57      1.0000 0.59690  0.43900  0.47130  Biso   1.000  H
  H58      1.0000 0.90310  0.56100  0.97130  Biso   1.000  H
  H59      1.0000 0.40310  0.93900  0.02870  Biso   1.000  H
  H60      1.0000 0.09690  0.06100  0.52870  Biso   1.000  H
  H61      1.0000 0.40310  0.56100  0.52870  Biso   1.000  H
  H62      1.0000 0.09690  0.43900  0.02870  Biso   1.000  H
  H63      1.0000 0.59690  0.06100  0.97130  Biso   1.000  H
  H64      1.0000 0.90310  0.93900  0.47130  Biso   1.000  H
  C81      1.0000 0.48380  0.39160  0.53945  Biso   1.000  C
  C82      1.0000 0.01620  0.60840  0.03945  Biso   1.000  C
  C83      1.0000 0.51620  0.89160  0.96055  Biso   1.000  C
  C84      1.0000 0.98380  0.10840  0.46055  Biso   1.000  C
  C85      1.0000 0.51620  0.60840  0.46055  Biso   1.000  C
  C86      1.0000 0.98380  0.39160  0.96055  Biso   1.000  C
  C87      1.0000 0.48380  0.10840  0.03945  Biso   1.000  C
  C88      1.0000 0.01620  0.89160  0.53945  Biso   1.000  C
  H65      1.0000 0.46160  0.43590  0.56050  Biso   1.000  H
  H66      1.0000 0.03840  0.56410  0.06050  Biso   1.000  H
  H67      1.0000 0.53840  0.93590  0.93950  Biso   1.000  H
  H68      1.0000 0.96160  0.06410  0.43950  Biso   1.000  H
  H69      1.0000 0.53840  0.56410  0.43950  Biso   1.000  H
  H70      1.0000 0.96160  0.43590  0.93950  Biso   1.000  H
  H71      1.0000 0.46160  0.06410  0.06050  Biso   1.000  H
  H72      1.0000 0.03840  0.93590  0.56050  Biso   1.000  H
  C89      1.0000 0.43710  0.32550  0.56152  Biso   1.000  C
  C90      1.0000 0.06290  0.67450  0.06152  Biso   1.000  C
  C91      1.0000 0.56290  0.82550  0.93848  Biso   1.000  C
  C92      1.0000 0.93710  0.17450  0.43848  Biso   1.000  C
  C93      1.0000 0.56290  0.67450  0.43848  Biso   1.000  C
  C94      1.0000 0.93710  0.32550  0.93848  Biso   1.000  C
  C95      1.0000 0.43710  0.17450  0.06152  Biso   1.000  C
  C96      1.0000 0.06290  0.82550  0.56152  Biso   1.000  C
  H73      1.0000 0.38320  0.32450  0.59760  Biso   1.000  H
  H74      1.0000 0.11680  0.67550  0.09760  Biso   1.000  H
  H75      1.0000 0.61680  0.82450  0.90240  Biso   1.000  H
  H76      1.0000 0.88320  0.17550  0.40240  Biso   1.000  H
  H77      1.0000 0.61680  0.67550  0.40240  Biso   1.000  H
  H78      1.0000 0.88320  0.32450  0.90240  Biso   1.000  H
  H79      1.0000 0.38320  0.17550  0.09760  Biso   1.000  H
  H80      1.0000 0.11680  0.82450  0.59760  Biso   1.000  H
  C97      1.0000 0.46950  0.26060  0.53048  Biso   1.000  C
  C98      1.0000 0.03050  0.73940  0.03048  Biso   1.000  C
  C99      1.0000 0.53050  0.76060  0.96952  Biso   1.000  C
  C100     1.0000 0.96950  0.23940  0.46952  Biso   1.000  C
  C101     1.0000 0.53050  0.73940  0.46952  Biso   1.000  C
  C102     1.0000 0.96950  0.26060  0.96952  Biso   1.000  C
  C103     1.0000 0.46950  0.23940  0.03048  Biso   1.000  C
  C104     1.0000 0.03050  0.76060  0.53048  Biso   1.000  C
  H81      1.0000 0.43670  0.21530  0.54530  Biso   1.000  H
  H82      1.0000 0.06330  0.78470  0.04530  Biso   1.000  H
  H83      1.0000 0.56330  0.71530  0.95470  Biso   1.000  H
  H84      1.0000 0.93670  0.28470  0.45470  Biso   1.000  H
  H85      1.0000 0.56330  0.78470  0.45470  Biso   1.000  H
  H86      1.0000 0.93670  0.21530  0.95470  Biso   1.000  H
  H87      1.0000 0.43670  0.28470  0.04530  Biso   1.000  H
  H88      1.0000 0.06330  0.71530  0.54530  Biso   1.000  H
  C105     1.0000 0.55060  0.26113  0.47714  Biso   1.000  C
  C106     1.0000 0.94940  0.73887  0.97714  Biso   1.000  C
  C107     1.0000 0.44940  0.76113  0.02286  Biso   1.000  C
  C108     1.0000 0.05060  0.23887  0.52286  Biso   1.000  C
  C109     1.0000 0.44940  0.73887  0.52286  Biso   1.000  C
  C110     1.0000 0.05060  0.26113  0.02286  Biso   1.000  C
  C111     1.0000 0.55060  0.23887  0.97714  Biso   1.000  C
  C112     1.0000 0.94940  0.76113  0.47714  Biso   1.000  C
  H89      1.0000 0.57390  0.21640  0.45710  Biso   1.000  H
  H90      1.0000 0.92610  0.78360  0.95710  Biso   1.000  H
  H91      1.0000 0.42610  0.71640  0.04290  Biso   1.000  H
  H92      1.0000 0.07390  0.28360  0.54290  Biso   1.000  H
  H93      1.0000 0.42610  0.78360  0.54290  Biso   1.000  H
  H94      1.0000 0.07390  0.21640  0.04290  Biso   1.000  H
  H95      1.0000 0.57390  0.28360  0.95710  Biso   1.000  H
  H96      1.0000 0.92610  0.71640  0.45710  Biso   1.000  H
  Cl1      1.0000 0.56036  0.21633  0.21670  Biso   1.000  Cl
  Cl2      1.0000 0.93964  0.78367  0.71670  Biso   1.000  Cl
  Cl3      1.0000 0.43964  0.71633  0.28330  Biso   1.000  Cl
  Cl4      1.0000 0.06036  0.28367  0.78330  Biso   1.000  Cl
  Cl5      1.0000 0.43964  0.78367  0.78330  Biso   1.000  Cl
  Cl6      1.0000 0.06036  0.21633  0.28330  Biso   1.000  Cl
  Cl7      1.0000 0.56036  0.28367  0.71670  Biso   1.000  Cl
  Cl8      1.0000 0.93964  0.71633  0.21670  Biso   1.000  Cl
  Cl9      1.0000 0.62463  0.06676  0.39377  Biso   1.000  Cl
  Cl10     1.0000 0.87537  0.93324  0.89377  Biso   1.000  Cl
  Cl11     1.0000 0.37537  0.56676  0.10623  Biso   1.000  Cl
  Cl12     1.0000 0.12463  0.43324  0.60623  Biso   1.000  Cl
  Cl13     1.0000 0.37537  0.93324  0.60623  Biso   1.000  Cl
  Cl14     1.0000 0.12463  0.06676  0.10623  Biso   1.000  Cl
  Cl15     1.0000 0.62463  0.43324  0.89377  Biso   1.000  Cl
  Cl16     1.0000 0.87537  0.56676  0.39377  Biso   1.000  Cl
  Cu9      1.0000 0.32903  0.22965  0.26881  Biso   1.000  Cu
  Cu10     1.0000 0.17097  0.77035  0.76881  Biso   1.000  Cu
  Cu11     1.0000 0.67097  0.72965  0.23119  Biso   1.000  Cu
  Cu12     1.0000 0.82903  0.27035  0.73119  Biso   1.000  Cu
  Cu13     1.0000 0.67097  0.77035  0.73119  Biso   1.000  Cu
  Cu14     1.0000 0.82903  0.22965  0.23119  Biso   1.000  Cu
  Cu15     1.0000 0.32903  0.27035  0.76881  Biso   1.000  Cu
  Cu16     1.0000 0.17097  0.72965  0.26881  Biso   1.000  Cu
  N9       1.0000 0.81220  0.35998  0.31956  Biso   1.000  N
  N10      1.0000 0.68780  0.64002  0.81956  Biso   1.000  N
  N11      1.0000 0.18780  0.85998  0.18044  Biso   1.000  N
  N12      1.0000 0.31220  0.14002  0.68044  Biso   1.000  N
  N13      1.0000 0.18780  0.64002  0.68044  Biso   1.000  N
  N14      1.0000 0.31220  0.35998  0.18044  Biso   1.000  N
  N15      1.0000 0.81220  0.14002  0.81956  Biso   1.000  N
  N16      1.0000 0.68780  0.85998  0.31956  Biso   1.000  N
  N17      1.0000 0.77600  0.28951  0.30962  Biso   1.000  N
  N18      1.0000 0.72400  0.71049  0.80962  Biso   1.000  N
  N19      1.0000 0.22400  0.78951  0.19038  Biso   1.000  N
  N20      1.0000 0.27600  0.21049  0.69038  Biso   1.000  N
  N21      1.0000 0.22400  0.71049  0.69038  Biso   1.000  N
  N22      1.0000 0.27600  0.28951  0.19038  Biso   1.000  N
  N23      1.0000 0.77600  0.21049  0.80962  Biso   1.000  N
  N24      1.0000 0.72400  0.78951  0.30962  Biso   1.000  N
  N25      1.0000 0.81960  0.32640  0.17874  Biso   1.000  N
  N26      1.0000 0.68040  0.67360  0.67874  Biso   1.000  N
  N27      1.0000 0.18040  0.82640  0.32126  Biso   1.000  N
  N28      1.0000 0.31960  0.17360  0.82126  Biso   1.000  N
  N29      1.0000 0.18040  0.67360  0.82126  Biso   1.000  N
  N30      1.0000 0.31960  0.32640  0.32126  Biso   1.000  N
  N31      1.0000 0.81960  0.17360  0.67874  Biso   1.000  N
  N32      1.0000 0.68040  0.82640  0.17874  Biso   1.000  N
  N33      1.0000 0.41920  0.17274  0.33908  Biso   1.000  N
  N34      1.0000 0.08080  0.82726  0.83908  Biso   1.000  N
  N35      1.0000 0.58080  0.67274  0.16092  Biso   1.000  N
  N36      1.0000 0.91920  0.32726  0.66092  Biso   1.000  N
  N37      1.0000 0.58080  0.82726  0.66092  Biso   1.000  N
  N38      1.0000 0.91920  0.17274  0.16092  Biso   1.000  N
  N39      1.0000 0.41920  0.32726  0.83908  Biso   1.000  N
  N40      1.0000 0.08080  0.67274  0.33908  Biso   1.000  N
  N41      1.0000 0.37200  0.14897  0.38382  Biso   1.000  N
  N42      1.0000 0.12800  0.85103  0.88382  Biso   1.000  N
  N43      1.0000 0.62800  0.64897  0.11618  Biso   1.000  N
  N44      1.0000 0.87200  0.35103  0.61618  Biso   1.000  N
  N45      1.0000 0.62800  0.85103  0.61618  Biso   1.000  N
  N46      1.0000 0.87200  0.14897  0.11618  Biso   1.000  N
  N47      1.0000 0.37200  0.35103  0.88382  Biso   1.000  N
  N48      1.0000 0.12800  0.64897  0.38382  Biso   1.000  N
  N49      1.0000 0.32540  0.12540  0.43260  Biso   1.000  N
  N50      1.0000 0.17460  0.87460  0.93260  Biso   1.000  N
  N51      1.0000 0.67460  0.62540  0.06740  Biso   1.000  N
  N52      1.0000 0.82540  0.37460  0.56740  Biso   1.000  N
  N53      1.0000 0.67460  0.87460  0.56740  Biso   1.000  N
  N54      1.0000 0.82540  0.12540  0.06740  Biso   1.000  N
  N55      1.0000 0.32540  0.37460  0.93260  Biso   1.000  N
  N56      1.0000 0.17460  0.62540  0.43260  Biso   1.000  N
  N57      1.0000 0.77170  0.13783  0.27851  Biso   1.000  N
  N58      1.0000 0.72830  0.86217  0.77851  Biso   1.000  N
  N59      1.0000 0.22830  0.63783  0.22149  Biso   1.000  N
  N60      1.0000 0.27170  0.36217  0.72149  Biso   1.000  N
  N61      1.0000 0.22830  0.86217  0.72149  Biso   1.000  N
  N62      1.0000 0.27170  0.13783  0.22149  Biso   1.000  N
  N63      1.0000 0.77170  0.36217  0.77851  Biso   1.000  N
  N64      1.0000 0.72830  0.63783  0.27851  Biso   1.000  N
  N65      1.0000 0.83310  0.08116  0.28287  Biso   1.000  N
  N66      1.0000 0.66690  0.91884  0.78287  Biso   1.000  N
  N67      1.0000 0.16690  0.58116  0.21713  Biso   1.000  N
  N68      1.0000 0.33310  0.41884  0.71713  Biso   1.000  N
  N69      1.0000 0.16690  0.91884  0.71713  Biso   1.000  N
  N70      1.0000 0.33310  0.08116  0.21713  Biso   1.000  N
  N71      1.0000 0.83310  0.41884  0.78287  Biso   1.000  N
  N72      1.0000 0.66690  0.58116  0.28287  Biso   1.000  N
  N73      1.0000 0.89110  0.02815  0.28660  Biso   1.000  N
  N74      1.0000 0.60890  0.97185  0.78660  Biso   1.000  N
  N75      1.0000 0.10890  0.52815  0.21340  Biso   1.000  N
  N76      1.0000 0.39110  0.47185  0.71340  Biso   1.000  N
  N77      1.0000 0.10890  0.97185  0.71340  Biso   1.000  N
  N78      1.0000 0.39110  0.02815  0.21340  Biso   1.000  N
  N79      1.0000 0.89110  0.47185  0.78660  Biso   1.000  N
  N80      1.0000 0.60890  0.52815  0.28660  Biso   1.000  N
