data_image0
_cell_length_a       12.611
_cell_length_b       10.087
_cell_length_c       16.9
_cell_angle_alpha    90
_cell_angle_beta     105.89
_cell_angle_gamma    90

_symmetry_space_group_name_H-M    "P 1"
_symmetry_int_tables_number       1

loop_
  _symmetry_equiv_pos_as_xyz
  'x, y, z'

loop_
  _atom_site_label
  _atom_site_occupancy
  _atom_site_fract_x
  _atom_site_fract_y
  _atom_site_fract_z
  _atom_site_thermal_displace_type
  _atom_site_B_iso_or_equiv
  _atom_site_type_symbol
  Cu1      1.0000 0.30358  0.90963  0.14020  Biso   1.000  Cu
  Cu2      1.0000 0.69642  0.40963  0.35980  Biso   1.000  Cu
  Cu3      1.0000 0.69642  0.09037  0.85980  Biso   1.000  Cu
  Cu4      1.0000 0.30358  0.59037  0.64020  Biso   1.000  Cu
  C1       1.0000 0.25490  0.16540  0.17500  Biso   1.000  C
  C2       1.0000 0.74510  0.66540  0.32500  Biso   1.000  C
  C3       1.0000 0.74510  0.83460  0.82500  Biso   1.000  C
  C4       1.0000 0.25490  0.33460  0.67500  Biso   1.000  C
  C5       1.0000 0.37660  0.16690  0.17257  Biso   1.000  C
  C6       1.0000 0.62340  0.66690  0.32743  Biso   1.000  C
  C7       1.0000 0.62340  0.83310  0.82743  Biso   1.000  C
  C8       1.0000 0.37660  0.33310  0.67257  Biso   1.000  C
  C9       1.0000 0.09080  0.83160  0.03470  Biso   1.000  C
  C10      1.0000 0.90920  0.33160  0.46530  Biso   1.000  C
  C11      1.0000 0.90920  0.16840  0.96530  Biso   1.000  C
  C12      1.0000 0.09080  0.66840  0.53470  Biso   1.000  C
  H1       1.0000 0.10360  0.90680  0.00470  Biso   1.000  H
  H2       1.0000 0.89640  0.40680  0.49530  Biso   1.000  H
  H3       1.0000 0.89640  0.09320  0.99530  Biso   1.000  H
  H4       1.0000 0.10360  0.59320  0.50470  Biso   1.000  H
  C13      1.0000 0.99180  0.76620  0.00790  Biso   1.000  C
  C14      1.0000 0.00820  0.26620  0.49210  Biso   1.000  C
  C15      1.0000 0.00820  0.23380  0.99210  Biso   1.000  C
  C16      1.0000 0.99180  0.73380  0.50790  Biso   1.000  C
  H5       1.0000 0.93820  0.79630  0.96010  Biso   1.000  H
  H6       1.0000 0.06180  0.29630  0.53990  Biso   1.000  H
  H7       1.0000 0.06180  0.20370  0.03990  Biso   1.000  H
  H8       1.0000 0.93820  0.70370  0.46010  Biso   1.000  H
  C17      1.0000 0.96970  0.65700  0.05010  Biso   1.000  C
  C18      1.0000 0.03030  0.15700  0.44990  Biso   1.000  C
  C19      1.0000 0.03030  0.34300  0.94990  Biso   1.000  C
  C20      1.0000 0.96970  0.84300  0.55010  Biso   1.000  C
  C21      1.0000 0.05360  0.61610  0.11770  Biso   1.000  C
  C22      1.0000 0.94640  0.11610  0.38230  Biso   1.000  C
  C23      1.0000 0.94640  0.38390  0.88230  Biso   1.000  C
  C24      1.0000 0.05360  0.88390  0.61770  Biso   1.000  C
  H9       1.0000 0.04360  0.53960  0.14770  Biso   1.000  H
  H10      1.0000 0.95640  0.03960  0.35230  Biso   1.000  H
  H11      1.0000 0.95640  0.46040  0.85230  Biso   1.000  H
  H12      1.0000 0.04360  0.96040  0.64770  Biso   1.000  H
  C25      1.0000 0.15120  0.68590  0.14150  Biso   1.000  C
  C26      1.0000 0.84880  0.18590  0.35850  Biso   1.000  C
  C27      1.0000 0.84880  0.31410  0.85850  Biso   1.000  C
  C28      1.0000 0.15120  0.81410  0.64150  Biso   1.000  C
  H13      1.0000 0.20700  0.65610  0.18810  Biso   1.000  H
  H14      1.0000 0.79300  0.15610  0.31190  Biso   1.000  H
  H15      1.0000 0.79300  0.34390  0.81190  Biso   1.000  H
  H16      1.0000 0.20700  0.84390  0.68810  Biso   1.000  H
  C29      1.0000 0.86020  0.58750  0.02360  Biso   1.000  C
  C30      1.0000 0.13980  0.08750  0.47640  Biso   1.000  C
  C31      1.0000 0.13980  0.41250  0.97640  Biso   1.000  C
  C32      1.0000 0.86020  0.91250  0.52360  Biso   1.000  C
  H17      1.0000 0.86900  0.49510  0.04400  Biso   1.000  H
  H18      1.0000 0.13100  0.99510  0.45600  Biso   1.000  H
  H19      1.0000 0.13100  0.50490  0.95600  Biso   1.000  H
  H20      1.0000 0.86900  0.00490  0.54400  Biso   1.000  H
  H21      1.0000 0.83520  0.58450  0.96280  Biso   1.000  H
  H22      1.0000 0.16480  0.08450  0.53720  Biso   1.000  H
  H23      1.0000 0.16480  0.41550  0.03720  Biso   1.000  H
  H24      1.0000 0.83520  0.91550  0.46280  Biso   1.000  H
  C33      1.0000 0.77240  0.65670  0.05590  Biso   1.000  C
  C34      1.0000 0.22760  0.15670  0.44410  Biso   1.000  C
  C35      1.0000 0.22760  0.34330  0.94410  Biso   1.000  C
  C36      1.0000 0.77240  0.84330  0.55590  Biso   1.000  C
  H25      1.0000 0.79450  0.65440  0.11680  Biso   1.000  H
  H26      1.0000 0.20550  0.15440  0.38320  Biso   1.000  H
  H27      1.0000 0.20550  0.34560  0.88320  Biso   1.000  H
  H28      1.0000 0.79450  0.84560  0.61680  Biso   1.000  H
  H29      1.0000 0.76630  0.75060  0.03830  Biso   1.000  H
  H30      1.0000 0.23370  0.25060  0.46170  Biso   1.000  H
  H31      1.0000 0.23370  0.24940  0.96170  Biso   1.000  H
  H32      1.0000 0.76630  0.74940  0.53830  Biso   1.000  H
  C37      1.0000 0.44330  0.83990  0.03670  Biso   1.000  C
  C38      1.0000 0.55670  0.33990  0.46330  Biso   1.000  C
  C39      1.0000 0.55670  0.16010  0.96330  Biso   1.000  C
  C40      1.0000 0.44330  0.66010  0.53670  Biso   1.000  C
  H33      1.0000 0.41340  0.91960  0.00970  Biso   1.000  H
  H34      1.0000 0.58660  0.41960  0.49030  Biso   1.000  H
  H35      1.0000 0.58660  0.08040  0.99030  Biso   1.000  H
  H36      1.0000 0.41340  0.58040  0.50970  Biso   1.000  H
  C41      1.0000 0.52320  0.77500  0.01090  Biso   1.000  C
  C42      1.0000 0.47680  0.27500  0.48910  Biso   1.000  C
  C43      1.0000 0.47680  0.22500  0.98910  Biso   1.000  C
  C44      1.0000 0.52320  0.72500  0.51090  Biso   1.000  C
  H37      1.0000 0.54690  0.80980  0.96630  Biso   1.000  H
  H38      1.0000 0.45310  0.30980  0.53370  Biso   1.000  H
  H39      1.0000 0.45310  0.19020  0.03370  Biso   1.000  H
  H40      1.0000 0.54690  0.69020  0.46630  Biso   1.000  H
  C45      1.0000 0.57000  0.65910  0.04908  Biso   1.000  C
  C46      1.0000 0.43000  0.15910  0.45092  Biso   1.000  C
  C47      1.0000 0.43000  0.34090  0.95092  Biso   1.000  C
  C48      1.0000 0.57000  0.84090  0.54908  Biso   1.000  C
  C49      1.0000 0.52920  0.61260  0.11180  Biso   1.000  C
  C50      1.0000 0.47080  0.11260  0.38820  Biso   1.000  C
  C51      1.0000 0.47080  0.38740  0.88820  Biso   1.000  C
  C52      1.0000 0.52920  0.88740  0.61180  Biso   1.000  C
  H41      1.0000 0.55780  0.53300  0.13960  Biso   1.000  H
  H42      1.0000 0.44220  0.03300  0.36040  Biso   1.000  H
  H43      1.0000 0.44220  0.46700  0.86040  Biso   1.000  H
  H44      1.0000 0.55780  0.96700  0.63960  Biso   1.000  H
  C53      1.0000 0.44760  0.68080  0.13442  Biso   1.000  C
  C54      1.0000 0.55240  0.18080  0.36558  Biso   1.000  C
  C55      1.0000 0.55240  0.31920  0.86558  Biso   1.000  C
  C56      1.0000 0.44760  0.81920  0.63442  Biso   1.000  C
  H45      1.0000 0.41990  0.64560  0.17700  Biso   1.000  H
  H46      1.0000 0.58010  0.14560  0.32300  Biso   1.000  H
  H47      1.0000 0.58010  0.35440  0.82300  Biso   1.000  H
  H48      1.0000 0.41990  0.85440  0.67700  Biso   1.000  H
  C57      1.0000 0.66070  0.58850  0.02320  Biso   1.000  C
  C58      1.0000 0.33930  0.08850  0.47680  Biso   1.000  C
  C59      1.0000 0.33930  0.41150  0.97680  Biso   1.000  C
  C60      1.0000 0.66070  0.91150  0.52320  Biso   1.000  C
  H49      1.0000 0.64160  0.58520  0.96240  Biso   1.000  H
  H50      1.0000 0.35840  0.08520  0.53760  Biso   1.000  H
  H51      1.0000 0.35840  0.41480  0.03760  Biso   1.000  H
  H52      1.0000 0.64160  0.91480  0.46240  Biso   1.000  H
  H53      1.0000 0.66620  0.49610  0.04380  Biso   1.000  H
  H54      1.0000 0.33380  0.99610  0.45620  Biso   1.000  H
  H55      1.0000 0.33380  0.50390  0.95620  Biso   1.000  H
  H56      1.0000 0.66620  0.00390  0.54380  Biso   1.000  H
  N1       1.0000 0.17044  0.79370  0.10170  Biso   1.000  N
  N2       1.0000 0.82956  0.29370  0.39830  Biso   1.000  N
  N3       1.0000 0.82956  0.20630  0.89830  Biso   1.000  N
  N4       1.0000 0.17044  0.70630  0.60170  Biso   1.000  N
  N5       1.0000 0.40582  0.79490  0.09863  Biso   1.000  N
  N6       1.0000 0.59418  0.29490  0.40137  Biso   1.000  N
  N7       1.0000 0.59418  0.20510  0.90137  Biso   1.000  N
  N8       1.0000 0.40582  0.70510  0.59863  Biso   1.000  N
  O1       1.0000 0.20593  0.05370  0.15687  Biso   1.000  O
  O2       1.0000 0.79407  0.55370  0.34313  Biso   1.000  O
  O3       1.0000 0.79407  0.94630  0.84313  Biso   1.000  O
  O4       1.0000 0.20593  0.44630  0.65687  Biso   1.000  O
  O5       1.0000 0.35245  0.84050  0.26926  Biso   1.000  O
  O6       1.0000 0.64755  0.34050  0.23074  Biso   1.000  O
  O7       1.0000 0.64755  0.15950  0.73074  Biso   1.000  O
  O8       1.0000 0.35245  0.65950  0.76926  Biso   1.000  O
  H57      1.0000 0.31760  0.82110  0.30420  Biso   1.000  H
  H58      1.0000 0.68240  0.32110  0.19580  Biso   1.000  H
  H59      1.0000 0.68240  0.17890  0.69580  Biso   1.000  H
  H60      1.0000 0.31760  0.67890  0.80420  Biso   1.000  H
  H61      1.0000 0.41910  0.81590  0.28810  Biso   1.000  H
  H62      1.0000 0.58090  0.31590  0.21190  Biso   1.000  H
  H63      1.0000 0.58090  0.18410  0.71190  Biso   1.000  H
  H64      1.0000 0.41910  0.68410  0.78810  Biso   1.000  H
  O9       1.0000 0.41356  0.05420  0.15719  Biso   1.000  O
  O10      1.0000 0.58644  0.55420  0.34281  Biso   1.000  O
  O11      1.0000 0.58644  0.94580  0.84281  Biso   1.000  O
  O12      1.0000 0.41356  0.44580  0.65719  Biso   1.000  O
  O13      1.0000 0.21350  0.26720  0.19200  Biso   1.000  O
  O14      1.0000 0.78650  0.76720  0.30800  Biso   1.000  O
  O15      1.0000 0.78650  0.73280  0.80800  Biso   1.000  O
  O16      1.0000 0.21350  0.23280  0.69200  Biso   1.000  O
  O17      1.0000 0.42776  0.27100  0.18459  Biso   1.000  O
  O18      1.0000 0.57224  0.77100  0.31541  Biso   1.000  O
  O19      1.0000 0.57224  0.72900  0.81541  Biso   1.000  O
  O20      1.0000 0.42776  0.22900  0.68459  Biso   1.000  O
  O21      1.0000 0.23260  0.99060  0.90510  Biso   1.000  O
  O22      1.0000 0.76740  0.49060  0.59490  Biso   1.000  O
  O23      1.0000 0.76740  0.00940  0.09490  Biso   1.000  O
  O24      1.0000 0.23260  0.50940  0.40510  Biso   1.000  O
  H65      1.0000 0.16440  0.98810  0.87960  Biso   1.000  H
  H66      1.0000 0.83560  0.48810  0.62040  Biso   1.000  H
  H67      1.0000 0.83560  0.01190  0.12040  Biso   1.000  H
  H68      1.0000 0.16440  0.51190  0.37960  Biso   1.000  H
  H69      1.0000 0.26920  0.99740  0.87000  Biso   1.000  H
  H70      1.0000 0.73080  0.49740  0.63000  Biso   1.000  H
  H71      1.0000 0.73080  0.00260  0.13000  Biso   1.000  H
  H72      1.0000 0.26920  0.50260  0.37000  Biso   1.000  H
  O25      1.0000 0.35000  0.01340  0.78700  Biso   1.000  O
  O26      1.0000 0.65000  0.51340  0.71300  Biso   1.000  O
  O27      1.0000 0.65000  0.98660  0.21300  Biso   1.000  O
  O28      1.0000 0.35000  0.48660  0.28700  Biso   1.000  O
  H73      1.0000 0.41990  0.01130  0.79720  Biso   1.000  H
  H74      1.0000 0.58010  0.51130  0.70280  Biso   1.000  H
  H75      1.0000 0.58010  0.98870  0.20280  Biso   1.000  H
  H76      1.0000 0.41990  0.48870  0.29720  Biso   1.000  H
  H77      1.0000 0.32620  0.08300  0.75960  Biso   1.000  H
  H78      1.0000 0.67380  0.58300  0.74040  Biso   1.000  H
  H79      1.0000 0.67380  0.91700  0.24040  Biso   1.000  H
  H80      1.0000 0.32620  0.41700  0.25960  Biso   1.000  H
  O29      1.0000 0.99190  0.79570  0.28350  Biso   1.000  O
  O30      1.0000 0.00810  0.29570  0.21650  Biso   1.000  O
  O31      1.0000 0.00810  0.20430  0.71650  Biso   1.000  O
  O32      1.0000 0.99190  0.70430  0.78350  Biso   1.000  O
  H81      1.0000 0.92790  0.78830  0.29050  Biso   1.000  H
  H82      1.0000 0.07210  0.28830  0.20950  Biso   1.000  H
  H83      1.0000 0.07210  0.21170  0.70950  Biso   1.000  H
  H84      1.0000 0.92790  0.71170  0.79050  Biso   1.000  H
  H85      1.0000 0.99240  0.86310  0.25340  Biso   1.000  H
  H86      1.0000 0.00760  0.36310  0.24660  Biso   1.000  H
  H87      1.0000 0.00760  0.13690  0.74660  Biso   1.000  H
  H88      1.0000 0.99240  0.63690  0.75340  Biso   1.000  H
  O33      1.0000 0.99810  0.01670  0.18430  Biso   1.000  O
  O34      1.0000 0.00190  0.51670  0.31570  Biso   1.000  O
  O35      1.0000 0.00190  0.98330  0.81570  Biso   1.000  O
  O36      1.0000 0.99810  0.48330  0.68430  Biso   1.000  O
  H89      1.0000 0.06030  0.01100  0.17400  Biso   1.000  H
  H90      1.0000 0.93970  0.51100  0.32600  Biso   1.000  H
  H91      1.0000 0.93970  0.98900  0.82600  Biso   1.000  H
  H92      1.0000 0.06030  0.48900  0.67400  Biso   1.000  H
  H93      1.0000 0.98830  0.09710  0.19550  Biso   1.000  H
  H94      1.0000 0.01170  0.59710  0.30450  Biso   1.000  H
  H95      1.0000 0.01170  0.90290  0.80450  Biso   1.000  H
  H96      1.0000 0.98830  0.40290  0.69550  Biso   1.000  H
  O37      1.0000 0.22050  0.78850  0.37100  Biso   1.000  O
  O38      1.0000 0.77950  0.28850  0.12900  Biso   1.000  O
  O39      1.0000 0.77950  0.21150  0.62900  Biso   1.000  O
  O40      1.0000 0.22050  0.71150  0.87100  Biso   1.000  O
  H97      1.0000 0.23070  0.70690  0.38330  Biso   1.000  H
  H98      1.0000 0.76930  0.20690  0.11670  Biso   1.000  H
  H99      1.0000 0.76930  0.29310  0.61670  Biso   1.000  H
  H100     1.0000 0.23070  0.79310  0.88330  Biso   1.000  H
  H101     1.0000 0.15330  0.79900  0.34440  Biso   1.000  H
  H102     1.0000 0.84670  0.29900  0.15560  Biso   1.000  H
  H103     1.0000 0.84670  0.20100  0.65560  Biso   1.000  H
  H104     1.0000 0.15330  0.70100  0.84440  Biso   1.000  H
