data_image0
_cell_length_a       8.5791
_cell_length_b       11.5009
_cell_length_c       11.7865
_cell_angle_alpha    70.723
_cell_angle_beta     78.236
_cell_angle_gamma    68.62

_symmetry_space_group_name_H-M    "P 1"
_symmetry_int_tables_number       1

loop_
  _symmetry_equiv_pos_as_xyz
  'x, y, z'

loop_
  _atom_site_label
  _atom_site_occupancy
  _atom_site_fract_x
  _atom_site_fract_y
  _atom_site_fract_z
  _atom_site_thermal_displace_type
  _atom_site_B_iso_or_equiv
  _atom_site_type_symbol
  C1       1.0000 0.95270  0.21410  0.26680  Biso   1.000  C
  C2       1.0000 0.04730  0.78590  0.73320  Biso   1.000  C
  C3       1.0000 0.83900  0.30560  0.32330  Biso   1.000  C
  C4       1.0000 0.16100  0.69440  0.67670  Biso   1.000  C
  H1       1.0000 0.82750  0.39360  0.29300  Biso   1.000  H
  H2       1.0000 0.17250  0.60640  0.70700  Biso   1.000  H
  C5       1.0000 0.74550  0.25950  0.42530  Biso   1.000  C
  C6       1.0000 0.25450  0.74050  0.57470  Biso   1.000  C
  H3       1.0000 0.66790  0.31480  0.46790  Biso   1.000  H
  H4       1.0000 0.33210  0.68520  0.53210  Biso   1.000  H
  C7       1.0000 0.77110  0.12660  0.46263  Biso   1.000  C
  C8       1.0000 0.22890  0.87340  0.53737  Biso   1.000  C
  C9       1.0000 0.59520  0.13010  0.65522  Biso   1.000  C
  C10      1.0000 0.40480  0.86990  0.34478  Biso   1.000  C
  H5       1.0000 0.59290  0.21200  0.65390  Biso   1.000  H
  H6       1.0000 0.40710  0.78800  0.34610  Biso   1.000  H
  C11      1.0000 0.65530  0.94960  0.60145  Biso   1.000  C
  C12      1.0000 0.34470  0.05040  0.39855  Biso   1.000  C
  C13      1.0000 0.71150  0.84720  0.54940  Biso   1.000  C
  C14      1.0000 0.28850  0.15280  0.45060  Biso   1.000  C
  H7       1.0000 0.78150  0.85000  0.47770  Biso   1.000  H
  H8       1.0000 0.21850  0.15000  0.52230  Biso   1.000  H
  C15      1.0000 0.65820  0.74140  0.60960  Biso   1.000  C
  C16      1.0000 0.34180  0.25860  0.39040  Biso   1.000  C
  H9       1.0000 0.69350  0.67100  0.57760  Biso   1.000  H
  H10      1.0000 0.30650  0.32900  0.42240  Biso   1.000  H
  C17      1.0000 0.55210  0.73650  0.71760  Biso   1.000  C
  C18      1.0000 0.44790  0.26350  0.28240  Biso   1.000  C
  H11      1.0000 0.51910  0.66320  0.75560  Biso   1.000  H
  H12      1.0000 0.48090  0.33680  0.24440  Biso   1.000  H
  C19      1.0000 0.49630  0.83790  0.76843  Biso   1.000  C
  C20      1.0000 0.50370  0.16210  0.23157  Biso   1.000  C
  H13      1.0000 0.42490  0.83520  0.83950  Biso   1.000  H
  H14      1.0000 0.57510  0.16480  0.16050  Biso   1.000  H
  C21      1.0000 0.55070  0.94510  0.70940  Biso   1.000  C
  C22      1.0000 0.44930  0.05490  0.29060  Biso   1.000  C
  C23      1.0000 0.13000  0.17270  0.08455  Biso   1.000  C
  C24      1.0000 0.87000  0.82730  0.91545  Biso   1.000  C
  H15      1.0000 0.10880  0.09630  0.09360  Biso   1.000  H
  H16      1.0000 0.89120  0.90370  0.90640  Biso   1.000  H
  C25      1.0000 0.22830  0.33380  0.01484  Biso   1.000  C
  C26      1.0000 0.77170  0.66620  0.98516  Biso   1.000  C
  C27      1.0000 0.11860  0.35550  0.11706  Biso   1.000  C
  C28      1.0000 0.88140  0.64450  0.88294  Biso   1.000  C
  C29      1.0000 0.09230  0.46310  0.15660  Biso   1.000  C
  C30      1.0000 0.90770  0.53690  0.84340  Biso   1.000  C
  H17      1.0000 0.01980  0.47720  0.22460  Biso   1.000  H
  H18      1.0000 0.98020  0.52280  0.77540  Biso   1.000  H
  C31      1.0000 0.17870  0.54770  0.09020  Biso   1.000  C
  C32      1.0000 0.82130  0.45230  0.90980  Biso   1.000  C
  H19      1.0000 0.16480  0.62040  0.11430  Biso   1.000  H
  H20      1.0000 0.83520  0.37960  0.88570  Biso   1.000  H
  C33      1.0000 0.28670  0.52730  0.98740  Biso   1.000  C
  C34      1.0000 0.71330  0.47270  0.01260  Biso   1.000  C
  H21      1.0000 0.34190  0.58720  0.94460  Biso   1.000  H
  H22      1.0000 0.65810  0.41280  0.05540  Biso   1.000  H
  C35      1.0000 0.31360  0.42070  0.94790  Biso   1.000  C
  C36      1.0000 0.68640  0.57930  0.05210  Biso   1.000  C
  H23      1.0000 0.38560  0.40740  0.87950  Biso   1.000  H
  H24      1.0000 0.61440  0.59260  0.12050  Biso   1.000  H
  C37      1.0000 0.32370  0.83970  0.08550  Biso   1.000  C
  C38      1.0000 0.67630  0.16030  0.91450  Biso   1.000  C
  H25      1.0000 0.23050  0.86170  0.04450  Biso   1.000  H
  H26      1.0000 0.76950  0.13830  0.95550  Biso   1.000  H
  C39      1.0000 0.09860  0.16640  0.76890  Biso   1.000  C
  C40      1.0000 0.90140  0.83360  0.23110  Biso   1.000  C
  H27      1.0000 0.01120  0.14630  0.75280  Biso   1.000  H
  H28      1.0000 0.98880  0.85370  0.24720  Biso   1.000  H
  Cu1      1.0000 0.37924  0.11186  0.88628  Biso   1.000  Cu
  Cu2      1.0000 0.62076  0.88814  0.11372  Biso   1.000  Cu
  N1       1.0000 0.96910  0.08943  0.30417  Biso   1.000  N
  N2       1.0000 0.03090  0.91057  0.69583  Biso   1.000  N
  N3       1.0000 0.87620  0.04448  0.40370  Biso   1.000  N
  N4       1.0000 0.12380  0.95552  0.59630  Biso   1.000  N
  N5       1.0000 0.67990  0.07070  0.56750  Biso   1.000  N
  N6       1.0000 0.32010  0.92930  0.43250  Biso   1.000  N
  N7       1.0000 0.51750  0.05924  0.74135  Biso   1.000  N
  N8       1.0000 0.48250  0.94076  0.25865  Biso   1.000  N
  N9       1.0000 0.23210  0.21789  0.99764  Biso   1.000  N
  N10      1.0000 0.76790  0.78211  0.00236  Biso   1.000  N
  N11      1.0000 0.05730  0.24916  0.16084  Biso   1.000  N
  N12      1.0000 0.94270  0.75084  0.83916  Biso   1.000  N
  O1       1.0000 0.42027  0.90980  0.04193  Biso   1.000  O
  O2       1.0000 0.57973  0.09020  0.95807  Biso   1.000  O
  O3       1.0000 0.34210  0.74695  0.17545  Biso   1.000  O
  O4       1.0000 0.65790  0.25305  0.82455  Biso   1.000  O
  O5       1.0000 0.18550  0.08459  0.85090  Biso   1.000  O
  O6       1.0000 0.81450  0.91541  0.14910  Biso   1.000  O
  O7       1.0000 0.11690  0.27140  0.70680  Biso   1.000  O
  O8       1.0000 0.88310  0.72860  0.29320  Biso   1.000  O
  O9       1.0000 0.33310  0.42270  0.61510  Biso   1.000  O
  O10      1.0000 0.66690  0.57730  0.38490  Biso   1.000  O
  H29      1.0000 0.28200  0.36800  0.65300  Biso   1.000  H
  H30      1.0000 0.71800  0.63200  0.34700  Biso   1.000  H
  H31      1.0000 0.31100  0.47200  0.54700  Biso   1.000  H
  H32      1.0000 0.68900  0.52800  0.45300  Biso   1.000  H
  O11      1.0000 0.20770  0.59150  0.38990  Biso   1.000  O
  O12      1.0000 0.79230  0.40850  0.61010  Biso   1.000  O
  C41      1.0000 0.41710  0.54350  0.37710  Biso   1.000  C
  C42      1.0000 0.58290  0.45650  0.62290  Biso   1.000  C
  H33      1.0000 0.10800  0.62800  0.36200  Biso   1.000  H
  H34      1.0000 0.89200  0.37200  0.63800  Biso   1.000  H
  C43      1.0000 0.09500  0.53800  0.51800  Biso   1.000  C
  C44      1.0000 0.90500  0.46200  0.48200  Biso   1.000  C
  H35      1.0000 0.26000  0.63000  0.32500  Biso   1.000  H
  H36      1.0000 0.74000  0.37000  0.67500  Biso   1.000  H
