data_image0
_cell_length_a       8.1152
_cell_length_b       17.8383
_cell_length_c       13.4938
_cell_angle_alpha    90
_cell_angle_beta     98.74
_cell_angle_gamma    90

_symmetry_space_group_name_H-M    "P 1"
_symmetry_int_tables_number       1

loop_
  _symmetry_equiv_pos_as_xyz
  'x, y, z'

loop_
  _atom_site_label
  _atom_site_occupancy
  _atom_site_fract_x
  _atom_site_fract_y
  _atom_site_fract_z
  _atom_site_thermal_displace_type
  _atom_site_B_iso_or_equiv
  _atom_site_type_symbol
  Cu1      1.0000 0.83495  0.30580  0.79285  Biso   1.000  Cu
  Cu2      1.0000 0.66505  0.30580  0.20715  Biso   1.000  Cu
  Cu3      1.0000 0.33495  0.80580  0.29285  Biso   1.000  Cu
  Cu4      1.0000 0.16505  0.80580  0.70715  Biso   1.000  Cu
  Cu5      1.0000 0.16505  0.69420  0.20715  Biso   1.000  Cu
  Cu6      1.0000 0.33495  0.69420  0.79285  Biso   1.000  Cu
  Cu7      1.0000 0.66505  0.19420  0.70715  Biso   1.000  Cu
  Cu8      1.0000 0.83495  0.19420  0.29285  Biso   1.000  Cu
  Na1      1.0000 0.75000  0.39532  0.00000  Biso   1.000  Na
  Na2      1.0000 0.25000  0.89532  0.50000  Biso   1.000  Na
  Na3      1.0000 0.25000  0.60468  0.00000  Biso   1.000  Na
  Na4      1.0000 0.75000  0.10468  0.50000  Biso   1.000  Na
  O1       1.0000 0.94239  0.40054  0.88050  Biso   1.000  O
  O2       1.0000 0.55761  0.40054  0.11950  Biso   1.000  O
  O3       1.0000 0.44239  0.90054  0.38050  Biso   1.000  O
  O4       1.0000 0.05761  0.90054  0.61950  Biso   1.000  O
  O5       1.0000 0.05761  0.59946  0.11950  Biso   1.000  O
  O6       1.0000 0.44239  0.59946  0.88050  Biso   1.000  O
  O7       1.0000 0.55761  0.09946  0.61950  Biso   1.000  O
  O8       1.0000 0.94239  0.09946  0.38050  Biso   1.000  O
  O9       1.0000 0.06860  0.50679  0.92569  Biso   1.000  O
  O10      1.0000 0.43140  0.50679  0.07431  Biso   1.000  O
  O11      1.0000 0.56860  0.00679  0.42569  Biso   1.000  O
  O12      1.0000 0.93140  0.00679  0.57431  Biso   1.000  O
  O13      1.0000 0.93140  0.49321  0.07431  Biso   1.000  O
  O14      1.0000 0.56860  0.49321  0.92569  Biso   1.000  O
  O15      1.0000 0.43140  0.99321  0.57431  Biso   1.000  O
  O16      1.0000 0.06860  0.99321  0.42569  Biso   1.000  O
  C1       1.0000 0.03110  0.45380  0.86267  Biso   1.000  C
  C2       1.0000 0.46890  0.45380  0.13733  Biso   1.000  C
  C3       1.0000 0.53110  0.95380  0.36267  Biso   1.000  C
  C4       1.0000 0.96890  0.95380  0.63733  Biso   1.000  C
  C5       1.0000 0.96890  0.54620  0.13733  Biso   1.000  C
  C6       1.0000 0.53110  0.54620  0.86267  Biso   1.000  C
  C7       1.0000 0.46890  0.04620  0.63733  Biso   1.000  C
  C8       1.0000 0.03110  0.04620  0.36267  Biso   1.000  C
  C9       1.0000 0.09760  0.46040  0.76550  Biso   1.000  C
  C10      1.0000 0.40240  0.46040  0.23450  Biso   1.000  C
  C11      1.0000 0.59760  0.96040  0.26550  Biso   1.000  C
  C12      1.0000 0.90240  0.96040  0.73450  Biso   1.000  C
  C13      1.0000 0.90240  0.53960  0.23450  Biso   1.000  C
  C14      1.0000 0.59760  0.53960  0.76550  Biso   1.000  C
  C15      1.0000 0.40240  0.03960  0.73450  Biso   1.000  C
  C16      1.0000 0.09760  0.03960  0.26550  Biso   1.000  C
  H1       1.0000 0.13850  0.51150  0.75830  Biso   1.000  H
  H2       1.0000 0.36150  0.51150  0.24170  Biso   1.000  H
  H3       1.0000 0.63850  0.01150  0.25830  Biso   1.000  H
  H4       1.0000 0.86150  0.01150  0.74170  Biso   1.000  H
  H5       1.0000 0.86150  0.48850  0.24170  Biso   1.000  H
  H6       1.0000 0.63850  0.48850  0.75830  Biso   1.000  H
  H7       1.0000 0.36150  0.98850  0.74170  Biso   1.000  H
  H8       1.0000 0.13850  0.98850  0.25830  Biso   1.000  H
  H9       1.0000 0.00850  0.44930  0.70990  Biso   1.000  H
  H10      1.0000 0.49150  0.44930  0.29010  Biso   1.000  H
  H11      1.0000 0.50850  0.94930  0.20990  Biso   1.000  H
  H12      1.0000 0.99150  0.94930  0.79010  Biso   1.000  H
  H13      1.0000 0.99150  0.55070  0.29010  Biso   1.000  H
  H14      1.0000 0.50850  0.55070  0.70990  Biso   1.000  H
  H15      1.0000 0.49150  0.05070  0.79010  Biso   1.000  H
  H16      1.0000 0.00850  0.05070  0.20990  Biso   1.000  H
  H17      1.0000 0.18920  0.42470  0.76470  Biso   1.000  H
  H18      1.0000 0.31080  0.42470  0.23530  Biso   1.000  H
  H19      1.0000 0.68920  0.92470  0.26470  Biso   1.000  H
  H20      1.0000 0.81080  0.92470  0.73530  Biso   1.000  H
  H21      1.0000 0.81080  0.57530  0.23530  Biso   1.000  H
  H22      1.0000 0.68920  0.57530  0.76470  Biso   1.000  H
  H23      1.0000 0.31080  0.07530  0.73530  Biso   1.000  H
  H24      1.0000 0.18920  0.07530  0.26470  Biso   1.000  H
  O17      1.0000 0.72130  0.36528  0.68028  Biso   1.000  O
  O18      1.0000 0.77870  0.36528  0.31972  Biso   1.000  O
  O19      1.0000 0.22130  0.86528  0.18028  Biso   1.000  O
  O20      1.0000 0.27870  0.86528  0.81972  Biso   1.000  O
  O21      1.0000 0.27870  0.63472  0.31972  Biso   1.000  O
  O22      1.0000 0.22130  0.63472  0.68028  Biso   1.000  O
  O23      1.0000 0.77870  0.13472  0.81972  Biso   1.000  O
  O24      1.0000 0.72130  0.13472  0.18028  Biso   1.000  O
  O25      1.0000 0.57350  0.26931  0.60723  Biso   1.000  O
  O26      1.0000 0.92650  0.26931  0.39277  Biso   1.000  O
  O27      1.0000 0.07350  0.76931  0.10723  Biso   1.000  O
  O28      1.0000 0.42650  0.76931  0.89277  Biso   1.000  O
  O29      1.0000 0.42650  0.73069  0.39277  Biso   1.000  O
  O30      1.0000 0.07350  0.73069  0.60723  Biso   1.000  O
  O31      1.0000 0.92650  0.23069  0.89277  Biso   1.000  O
  O32      1.0000 0.57350  0.23069  0.10723  Biso   1.000  O
  C17      1.0000 0.61520  0.33708  0.61315  Biso   1.000  C
  C18      1.0000 0.88480  0.33708  0.38685  Biso   1.000  C
  C19      1.0000 0.11520  0.83708  0.11315  Biso   1.000  C
  C20      1.0000 0.38480  0.83708  0.88685  Biso   1.000  C
  C21      1.0000 0.38480  0.66292  0.38685  Biso   1.000  C
  C22      1.0000 0.11520  0.66292  0.61315  Biso   1.000  C
  C23      1.0000 0.88480  0.16292  0.88685  Biso   1.000  C
  C24      1.0000 0.61520  0.16292  0.11315  Biso   1.000  C
  C25      1.0000 0.52930  0.38910  0.53370  Biso   1.000  C
  C26      1.0000 0.97070  0.38910  0.46630  Biso   1.000  C
  C27      1.0000 0.02930  0.88910  0.03370  Biso   1.000  C
  C28      1.0000 0.47070  0.88910  0.96630  Biso   1.000  C
  C29      1.0000 0.47070  0.61090  0.46630  Biso   1.000  C
  C30      1.0000 0.02930  0.61090  0.53370  Biso   1.000  C
  C31      1.0000 0.97070  0.11090  0.96630  Biso   1.000  C
  C32      1.0000 0.52930  0.11090  0.03370  Biso   1.000  C
  O33      1.0000 0.49303  0.22248  0.78688  Biso   1.000  O
  O34      1.0000 0.00697  0.22248  0.21312  Biso   1.000  O
  O35      1.0000 0.99303  0.72248  0.28688  Biso   1.000  O
  O36      1.0000 0.50697  0.72248  0.71312  Biso   1.000  O
  O37      1.0000 0.50697  0.77752  0.21312  Biso   1.000  O
  O38      1.0000 0.99303  0.77752  0.78688  Biso   1.000  O
  O39      1.0000 0.00697  0.27752  0.71312  Biso   1.000  O
  O40      1.0000 0.49303  0.27752  0.28688  Biso   1.000  O
  O41      1.0000 0.63950  0.31758  0.86303  Biso   1.000  O
  O42      1.0000 0.86050  0.31758  0.13697  Biso   1.000  O
  O43      1.0000 0.13950  0.81758  0.36303  Biso   1.000  O
  O44      1.0000 0.36050  0.81758  0.63697  Biso   1.000  O
  O45      1.0000 0.36050  0.68242  0.13697  Biso   1.000  O
  O46      1.0000 0.13950  0.68242  0.86303  Biso   1.000  O
  O47      1.0000 0.86050  0.18242  0.63697  Biso   1.000  O
  O48      1.0000 0.63950  0.18242  0.36303  Biso   1.000  O
  C33      1.0000 0.50930  0.27791  0.84517  Biso   1.000  C
  C34      1.0000 0.99070  0.27791  0.15483  Biso   1.000  C
  C35      1.0000 0.00930  0.77791  0.34517  Biso   1.000  C
  C36      1.0000 0.49070  0.77791  0.65483  Biso   1.000  C
  C37      1.0000 0.49070  0.72209  0.15483  Biso   1.000  C
  C38      1.0000 0.00930  0.72209  0.84517  Biso   1.000  C
  C39      1.0000 0.99070  0.22209  0.65483  Biso   1.000  C
  C40      1.0000 0.50930  0.22209  0.34517  Biso   1.000  C
  C41      1.0000 0.36520  0.29830  0.89680  Biso   1.000  C
  C42      1.0000 0.13480  0.29830  0.10320  Biso   1.000  C
  C43      1.0000 0.86520  0.79830  0.39680  Biso   1.000  C
  C44      1.0000 0.63480  0.79830  0.60320  Biso   1.000  C
  C45      1.0000 0.63480  0.70170  0.10320  Biso   1.000  C
  C46      1.0000 0.86520  0.70170  0.89680  Biso   1.000  C
  C47      1.0000 0.13480  0.20170  0.60320  Biso   1.000  C
  C48      1.0000 0.36520  0.20170  0.39680  Biso   1.000  C
  H25      1.0000 0.43000  0.39200  0.53900  Biso   1.000  H
  H26      1.0000 0.07000  0.39200  0.46100  Biso   1.000  H
  H27      1.0000 0.93000  0.89200  0.03900  Biso   1.000  H
  H28      1.0000 0.57000  0.89200  0.96100  Biso   1.000  H
  H29      1.0000 0.57000  0.60800  0.46100  Biso   1.000  H
  H30      1.0000 0.93000  0.60800  0.53900  Biso   1.000  H
  H31      1.0000 0.07000  0.10800  0.96100  Biso   1.000  H
  H32      1.0000 0.43000  0.10800  0.03900  Biso   1.000  H
  H33      1.0000 0.57000  0.42800  0.53400  Biso   1.000  H
  H34      1.0000 0.93000  0.42800  0.46600  Biso   1.000  H
  H35      1.0000 0.07000  0.92800  0.03400  Biso   1.000  H
  H36      1.0000 0.43000  0.92800  0.96600  Biso   1.000  H
  H37      1.0000 0.43000  0.57200  0.46600  Biso   1.000  H
  H38      1.0000 0.07000  0.57200  0.53400  Biso   1.000  H
  H39      1.0000 0.93000  0.07200  0.96600  Biso   1.000  H
  H40      1.0000 0.57000  0.07200  0.03400  Biso   1.000  H
  H41      1.0000 0.52600  0.36900  0.47100  Biso   1.000  H
  H42      1.0000 0.97400  0.36900  0.52900  Biso   1.000  H
  H43      1.0000 0.02600  0.86900  0.97100  Biso   1.000  H
  H44      1.0000 0.47400  0.86900  0.02900  Biso   1.000  H
  H45      1.0000 0.47400  0.63100  0.52900  Biso   1.000  H
  H46      1.0000 0.02600  0.63100  0.47100  Biso   1.000  H
  H47      1.0000 0.97400  0.13100  0.02900  Biso   1.000  H
  H48      1.0000 0.52600  0.13100  0.97100  Biso   1.000  H
  H49      1.0000 0.37300  0.27700  0.94900  Biso   1.000  H
  H50      1.0000 0.12700  0.27700  0.05100  Biso   1.000  H
  H51      1.0000 0.87300  0.77700  0.44900  Biso   1.000  H
  H52      1.0000 0.62700  0.77700  0.55100  Biso   1.000  H
  H53      1.0000 0.62700  0.72300  0.05100  Biso   1.000  H
  H54      1.0000 0.87300  0.72300  0.94900  Biso   1.000  H
  H55      1.0000 0.12700  0.22300  0.55100  Biso   1.000  H
  H56      1.0000 0.37300  0.22300  0.44900  Biso   1.000  H
  H57      1.0000 0.36800  0.34400  0.90700  Biso   1.000  H
  H58      1.0000 0.13200  0.34400  0.09300  Biso   1.000  H
  H59      1.0000 0.86800  0.84400  0.40700  Biso   1.000  H
  H60      1.0000 0.63200  0.84400  0.59300  Biso   1.000  H
  H61      1.0000 0.63200  0.65600  0.09300  Biso   1.000  H
  H62      1.0000 0.86800  0.65600  0.90700  Biso   1.000  H
  H63      1.0000 0.13200  0.15600  0.59300  Biso   1.000  H
  H64      1.0000 0.36800  0.15600  0.40700  Biso   1.000  H
  H65      1.0000 0.26800  0.28170  0.86300  Biso   1.000  H
  H66      1.0000 0.23200  0.28170  0.13700  Biso   1.000  H
  H67      1.0000 0.76800  0.78170  0.36300  Biso   1.000  H
  H68      1.0000 0.73200  0.78170  0.63700  Biso   1.000  H
  H69      1.0000 0.73200  0.71830  0.13700  Biso   1.000  H
  H70      1.0000 0.76800  0.71830  0.86300  Biso   1.000  H
  H71      1.0000 0.23200  0.21830  0.63700  Biso   1.000  H
  H72      1.0000 0.26800  0.21830  0.36300  Biso   1.000  H
  H73      1.0000 0.00000  0.50000  0.00000  Biso   1.000  H
  H74      1.0000 0.50000  0.50000  0.00000  Biso   1.000  H
  H75      1.0000 0.50000  0.00000  0.50000  Biso   1.000  H
  H76      1.0000 0.00000  0.00000  0.50000  Biso   1.000  H
