data_image0
_cell_length_a       7.321
_cell_length_b       9.682
_cell_length_c       22.817
_cell_angle_alpha    90
_cell_angle_beta     96.54
_cell_angle_gamma    90

_symmetry_space_group_name_H-M    "P 1"
_symmetry_int_tables_number       1

loop_
  _symmetry_equiv_pos_as_xyz
  'x, y, z'

loop_
  _atom_site_label
  _atom_site_occupancy
  _atom_site_fract_x
  _atom_site_fract_y
  _atom_site_fract_z
  _atom_site_thermal_displace_type
  _atom_site_B_iso_or_equiv
  _atom_site_type_symbol
  I1       1.0000 0.34144  0.41155  0.90383  Biso   1.000  I
  I2       1.0000 0.34144  0.08845  0.40383  Biso   1.000  I
  I3       1.0000 0.65856  0.58845  0.09617  Biso   1.000  I
  I4       1.0000 0.65856  0.91155  0.59617  Biso   1.000  I
  Cu1      1.0000 0.88551  0.08434  0.14709  Biso   1.000  Cu
  Cu2      1.0000 0.88551  0.41566  0.64709  Biso   1.000  Cu
  Cu3      1.0000 0.11449  0.91566  0.85291  Biso   1.000  Cu
  Cu4      1.0000 0.11449  0.58434  0.35291  Biso   1.000  Cu
  S1       1.0000 0.40517  0.15508  0.13030  Biso   1.000  S
  S2       1.0000 0.40517  0.34492  0.63030  Biso   1.000  S
  S3       1.0000 0.59483  0.84492  0.86970  Biso   1.000  S
  S4       1.0000 0.59483  0.65508  0.36970  Biso   1.000  S
  O1       1.0000 0.55480  0.05960  0.14827  Biso   1.000  O
  O2       1.0000 0.55480  0.44040  0.64827  Biso   1.000  O
  O3       1.0000 0.44520  0.94040  0.85173  Biso   1.000  O
  O4       1.0000 0.44520  0.55960  0.35173  Biso   1.000  O
  O5       1.0000 0.93480  0.02820  0.22977  Biso   1.000  O
  O6       1.0000 0.93480  0.47180  0.72977  Biso   1.000  O
  O7       1.0000 0.06520  0.97180  0.77023  Biso   1.000  O
  O8       1.0000 0.06520  0.52820  0.27023  Biso   1.000  O
  O9       1.0000 0.45710  0.29960  0.13827  Biso   1.000  O
  O10      1.0000 0.45710  0.20040  0.63827  Biso   1.000  O
  O11      1.0000 0.54290  0.70040  0.86173  Biso   1.000  O
  O12      1.0000 0.54290  0.79960  0.36173  Biso   1.000  O
  O13      1.0000 0.89290  0.28030  0.16990  Biso   1.000  O
  O14      1.0000 0.89290  0.21970  0.66990  Biso   1.000  O
  O15      1.0000 0.10710  0.71970  0.83010  Biso   1.000  O
  O16      1.0000 0.10710  0.78030  0.33010  Biso   1.000  O
  O17      1.0000 0.24170  0.12090  0.15911  Biso   1.000  O
  O18      1.0000 0.24170  0.37910  0.65911  Biso   1.000  O
  O19      1.0000 0.75830  0.87910  0.84089  Biso   1.000  O
  O20      1.0000 0.75830  0.62090  0.34089  Biso   1.000  O
  O21      1.0000 0.14820  0.11090  0.87477  Biso   1.000  O
  O22      1.0000 0.14820  0.38910  0.37477  Biso   1.000  O
  O23      1.0000 0.85180  0.88910  0.12523  Biso   1.000  O
  O24      1.0000 0.85180  0.61090  0.62523  Biso   1.000  O
  N1       1.0000 0.14850  0.88510  0.93935  Biso   1.000  N
  N2       1.0000 0.14850  0.61490  0.43935  Biso   1.000  N
  N3       1.0000 0.85150  0.11490  0.06065  Biso   1.000  N
  N4       1.0000 0.85150  0.38510  0.56065  Biso   1.000  N
  C1       1.0000 0.13710  0.76960  0.97036  Biso   1.000  C
  C2       1.0000 0.13710  0.73040  0.47036  Biso   1.000  C
  C3       1.0000 0.86290  0.23040  0.02964  Biso   1.000  C
  C4       1.0000 0.86290  0.26960  0.52964  Biso   1.000  C
  C5       1.0000 0.18970  0.76500  0.03078  Biso   1.000  C
  C6       1.0000 0.18970  0.73500  0.53078  Biso   1.000  C
  C7       1.0000 0.81030  0.23500  0.96922  Biso   1.000  C
  C8       1.0000 0.81030  0.26500  0.46922  Biso   1.000  C
  C9       1.0000 0.25910  0.88110  0.06010  Biso   1.000  C
  C10      1.0000 0.25910  0.61890  0.56010  Biso   1.000  C
  C11      1.0000 0.74090  0.11890  0.93990  Biso   1.000  C
  C12      1.0000 0.74090  0.38110  0.43990  Biso   1.000  C
  C13      1.0000 0.34220  0.13440  0.05364  Biso   1.000  C
  C14      1.0000 0.34220  0.36560  0.55364  Biso   1.000  C
  C15      1.0000 0.65780  0.86560  0.94636  Biso   1.000  C
  C16      1.0000 0.65780  0.63440  0.44636  Biso   1.000  C
  C17      1.0000 0.35600  0.24700  0.01727  Biso   1.000  C
  C18      1.0000 0.35600  0.25300  0.51727  Biso   1.000  C
  C19      1.0000 0.64400  0.75300  0.98273  Biso   1.000  C
  C20      1.0000 0.64400  0.74700  0.48273  Biso   1.000  C
  C21      1.0000 0.29800  0.24030  0.95601  Biso   1.000  C
  C22      1.0000 0.29800  0.25970  0.45601  Biso   1.000  C
  C23      1.0000 0.70200  0.75970  0.04399  Biso   1.000  C
  C24      1.0000 0.70200  0.74030  0.54399  Biso   1.000  C
  C25      1.0000 0.21860  0.12230  0.93067  Biso   1.000  C
  C26      1.0000 0.21860  0.37770  0.43067  Biso   1.000  C
  C27      1.0000 0.78140  0.87770  0.06933  Biso   1.000  C
  C28      1.0000 0.78140  0.62230  0.56933  Biso   1.000  C
  C29      1.0000 0.27240  0.00600  0.02887  Biso   1.000  C
  C30      1.0000 0.27240  0.49400  0.52887  Biso   1.000  C
  C31      1.0000 0.72760  0.99400  0.97113  Biso   1.000  C
  C32      1.0000 0.72760  0.50600  0.47113  Biso   1.000  C
  C33      1.0000 0.21390  0.00310  0.96804  Biso   1.000  C
  C34      1.0000 0.21390  0.49690  0.46804  Biso   1.000  C
  C35      1.0000 0.78610  0.99690  0.03196  Biso   1.000  C
  C36      1.0000 0.78610  0.50310  0.53196  Biso   1.000  C
  O25      1.0000 0.88830  0.21000  0.31770  Biso   1.000  O
  O26      1.0000 0.88830  0.29000  0.81770  Biso   1.000  O
  O27      1.0000 0.11170  0.79000  0.68230  Biso   1.000  O
  O28      1.0000 0.11170  0.71000  0.18230  Biso   1.000  O
  O29      1.0000 0.13200  0.45340  0.12729  Biso   1.000  O
  O30      1.0000 0.13200  0.04660  0.62729  Biso   1.000  O
  O31      1.0000 0.86800  0.54660  0.87271  Biso   1.000  O
  O32      1.0000 0.86800  0.95340  0.37271  Biso   1.000  O
  O33      1.0000 0.66970  0.39830  0.25235  Biso   1.000  O
  O34      1.0000 0.66970  0.10170  0.75235  Biso   1.000  O
  O35      1.0000 0.33030  0.60170  0.74765  Biso   1.000  O
  O36      1.0000 0.33030  0.89830  0.24765  Biso   1.000  O
  O37      1.0000 0.70480  0.81060  0.23890  Biso   1.000  O
  O38      1.0000 0.70480  0.68940  0.73890  Biso   1.000  O
  O39      1.0000 0.29520  0.18940  0.76110  Biso   1.000  O
  O40      1.0000 0.29520  0.31060  0.26110  Biso   1.000  O
  H1       1.0000 0.91240  0.08760  0.25220  Biso   1.000  H
  H2       1.0000 0.91240  0.41240  0.75220  Biso   1.000  H
  H3       1.0000 0.08760  0.91240  0.74780  Biso   1.000  H
  H4       1.0000 0.08760  0.58760  0.24780  Biso   1.000  H
  H5       1.0000 0.09270  0.68980  0.95100  Biso   1.000  H
  H6       1.0000 0.09270  0.81020  0.45100  Biso   1.000  H
  H7       1.0000 0.90730  0.31020  0.04900  Biso   1.000  H
  H8       1.0000 0.90730  0.18980  0.54900  Biso   1.000  H
  H9       1.0000 0.86620  0.96620  0.23430  Biso   1.000  H
  H10      1.0000 0.86620  0.53380  0.73430  Biso   1.000  H
  H11      1.0000 0.13380  0.03380  0.76570  Biso   1.000  H
  H12      1.0000 0.13380  0.46620  0.26570  Biso   1.000  H
  H13      1.0000 0.17800  0.68330  0.05140  Biso   1.000  H
  H14      1.0000 0.17800  0.81670  0.55140  Biso   1.000  H
  H15      1.0000 0.82200  0.31670  0.94860  Biso   1.000  H
  H16      1.0000 0.82200  0.18330  0.44860  Biso   1.000  H
  H17      1.0000 0.95520  0.33960  0.15630  Biso   1.000  H
  H18      1.0000 0.95520  0.16040  0.65630  Biso   1.000  H
  H19      1.0000 0.04480  0.66040  0.84370  Biso   1.000  H
  H20      1.0000 0.04480  0.83960  0.34370  Biso   1.000  H
  H21      1.0000 0.29720  0.87740  0.10040  Biso   1.000  H
  H22      1.0000 0.29720  0.62260  0.60040  Biso   1.000  H
  H23      1.0000 0.70280  0.12260  0.89960  Biso   1.000  H
  H24      1.0000 0.70280  0.37740  0.39960  Biso   1.000  H
  H25      1.0000 0.81400  0.31770  0.18590  Biso   1.000  H
  H26      1.0000 0.81400  0.18230  0.68590  Biso   1.000  H
  H27      1.0000 0.18600  0.68230  0.81410  Biso   1.000  H
  H28      1.0000 0.18600  0.81770  0.31410  Biso   1.000  H
  H29      1.0000 0.40450  0.32910  0.03340  Biso   1.000  H
  H30      1.0000 0.40450  0.17090  0.53340  Biso   1.000  H
  H31      1.0000 0.59550  0.67090  0.96660  Biso   1.000  H
  H32      1.0000 0.59550  0.82910  0.46660  Biso   1.000  H
  H33      1.0000 0.81620  0.26030  0.30080  Biso   1.000  H
  H34      1.0000 0.81620  0.23970  0.80080  Biso   1.000  H
  H35      1.0000 0.18380  0.73970  0.69920  Biso   1.000  H
  H36      1.0000 0.18380  0.76030  0.19920  Biso   1.000  H
  H37      1.0000 0.96350  0.26370  0.33390  Biso   1.000  H
  H38      1.0000 0.96350  0.23630  0.83390  Biso   1.000  H
  H39      1.0000 0.03650  0.73630  0.66610  Biso   1.000  H
  H40      1.0000 0.03650  0.76370  0.16610  Biso   1.000  H
  H41      1.0000 0.14120  0.53060  0.14080  Biso   1.000  H
  H42      1.0000 0.14120  0.96940  0.64080  Biso   1.000  H
  H43      1.0000 0.85880  0.46940  0.85920  Biso   1.000  H
  H44      1.0000 0.85880  0.03060  0.35920  Biso   1.000  H
  H45      1.0000 0.23310  0.41880  0.13460  Biso   1.000  H
  H46      1.0000 0.23310  0.08120  0.63460  Biso   1.000  H
  H47      1.0000 0.76690  0.58120  0.86540  Biso   1.000  H
  H48      1.0000 0.76690  0.91880  0.36540  Biso   1.000  H
  H49      1.0000 0.56370  0.38990  0.25890  Biso   1.000  H
  H50      1.0000 0.56370  0.11010  0.75890  Biso   1.000  H
  H51      1.0000 0.43630  0.61010  0.74110  Biso   1.000  H
  H52      1.0000 0.43630  0.88990  0.24110  Biso   1.000  H
  H53      1.0000 0.69750  0.47040  0.27640  Biso   1.000  H
  H54      1.0000 0.69750  0.02960  0.77640  Biso   1.000  H
  H55      1.0000 0.30250  0.52960  0.72360  Biso   1.000  H
  H56      1.0000 0.30250  0.97040  0.22360  Biso   1.000  H
  H57      1.0000 0.73320  0.74960  0.26220  Biso   1.000  H
  H58      1.0000 0.73320  0.75040  0.76220  Biso   1.000  H
  H59      1.0000 0.26680  0.25040  0.73780  Biso   1.000  H
  H60      1.0000 0.26680  0.24960  0.23780  Biso   1.000  H
  H61      1.0000 0.68270  0.77660  0.20640  Biso   1.000  H
  H62      1.0000 0.68270  0.72340  0.70640  Biso   1.000  H
  H63      1.0000 0.31730  0.22340  0.79360  Biso   1.000  H
  H64      1.0000 0.31730  0.27660  0.29360  Biso   1.000  H
