data_image0
_cell_length_a       11.151
_cell_length_b       7.1698
_cell_length_c       12.796
_cell_angle_alpha    90
_cell_angle_beta     114.393
_cell_angle_gamma    90

_symmetry_space_group_name_H-M    "P 1"
_symmetry_int_tables_number       1

loop_
  _symmetry_equiv_pos_as_xyz
  'x, y, z'

loop_
  _atom_site_label
  _atom_site_occupancy
  _atom_site_fract_x
  _atom_site_fract_y
  _atom_site_fract_z
  _atom_site_thermal_displace_type
  _atom_site_B_iso_or_equiv
  _atom_site_type_symbol
  Cu1      1.0000 0.51098  0.25235  0.35486  Biso   1.000  Cu
  Cu2      1.0000 0.48902  0.75235  0.64514  Biso   1.000  Cu
  O1       1.0000 0.50940  0.10050  0.48120  Biso   1.000  O
  O2       1.0000 0.49060  0.60050  0.51880  Biso   1.000  O
  O3       1.0000 0.38510  0.02320  0.57250  Biso   1.000  O
  O4       1.0000 0.61490  0.52320  0.42750  Biso   1.000  O
  O5       1.0000 0.43850  0.30230  0.18780  Biso   1.000  O
  O6       1.0000 0.56150  0.80230  0.81220  Biso   1.000  O
  O7       1.0000 0.25080  0.36480  0.03840  Biso   1.000  O
  O8       1.0000 0.74920  0.86480  0.96160  Biso   1.000  O
  O9       1.0000 0.77620  0.22190  0.62960  Biso   1.000  O
  O10      1.0000 0.22380  0.72190  0.37040  Biso   1.000  O
  O11      1.0000 0.94550  0.23820  0.19120  Biso   1.000  O
  O12      1.0000 0.05450  0.73820  0.80880  Biso   1.000  O
  O13      1.0000 0.93920  0.63060  0.11590  Biso   1.000  O
  O14      1.0000 0.06080  0.13060  0.88410  Biso   1.000  O
  H1       1.0000 0.89500  0.74230  0.07600  Biso   1.000  H
  H2       1.0000 0.10500  0.24230  0.92400  Biso   1.000  H
  N1       1.0000 0.33820  0.34560  0.34340  Biso   1.000  N
  N2       1.0000 0.66180  0.84560  0.65660  Biso   1.000  N
  H3       1.0000 0.35880  0.46260  0.36820  Biso   1.000  H
  H4       1.0000 0.64120  0.96260  0.63180  Biso   1.000  H
  N3       1.0000 0.97980  0.15390  0.63950  Biso   1.000  N
  N4       1.0000 0.02020  0.65390  0.36050  Biso   1.000  N
  H5       1.0000 0.01960  0.13630  0.71660  Biso   1.000  H
  H6       1.0000 0.98040  0.63630  0.28340  Biso   1.000  H
  N5       1.0000 0.19470  0.09940  0.66530  Biso   1.000  N
  N6       1.0000 0.80530  0.59940  0.33470  Biso   1.000  N
  H7       1.0000 0.22670  0.14250  0.74140  Biso   1.000  H
  H8       1.0000 0.77330  0.64250  0.25860  Biso   1.000  H
  H9       1.0000 0.25330  0.08310  0.63910  Biso   1.000  H
  H10      1.0000 0.74670  0.58310  0.36090  Biso   1.000  H
  N7       1.0000 0.03380  0.10070  0.48130  Biso   1.000  N
  N8       1.0000 0.96620  0.60070  0.51870  Biso   1.000  N
  N9       1.0000 0.68470  0.16840  0.36430  Biso   1.000  N
  N10      1.0000 0.31530  0.66840  0.63570  Biso   1.000  N
  N11      1.0000 0.84090  0.10610  0.30310  Biso   1.000  N
  N12      1.0000 0.15910  0.60610  0.69690  Biso   1.000  N
  C1       1.0000 0.29390  0.23570  0.41690  Biso   1.000  C
  C2       1.0000 0.70610  0.73570  0.58310  Biso   1.000  C
  H11      1.0000 0.22580  0.15460  0.37180  Biso   1.000  H
  H12      1.0000 0.77420  0.65460  0.62820  Biso   1.000  H
  H13      1.0000 0.26160  0.31970  0.45870  Biso   1.000  H
  H14      1.0000 0.73840  0.81970  0.54130  Biso   1.000  H
  C3       1.0000 0.40290  0.10990  0.49640  Biso   1.000  C
  C4       1.0000 0.59710  0.60990  0.50360  Biso   1.000  C
  C5       1.0000 0.24580  0.36200  0.22110  Biso   1.000  C
  C6       1.0000 0.75420  0.86200  0.77890  Biso   1.000  C
  H15      1.0000 0.18530  0.48420  0.20090  Biso   1.000  H
  H16      1.0000 0.81470  0.98420  0.79910  Biso   1.000  H
  H17      1.0000 0.18090  0.24850  0.20940  Biso   1.000  H
  H18      1.0000 0.81910  0.74850  0.79060  Biso   1.000  H
  C7       1.0000 0.31660  0.34230  0.14310  Biso   1.000  C
  C8       1.0000 0.68340  0.84230  0.85690  Biso   1.000  C
  C9       1.0000 0.06930  0.11910  0.59280  Biso   1.000  C
  C10      1.0000 0.93070  0.61910  0.40720  Biso   1.000  C
  C11      1.0000 0.90370  0.12150  0.42010  Biso   1.000  C
  C12      1.0000 0.09630  0.62150  0.57990  Biso   1.000  C
  C13      1.0000 0.80650  0.15940  0.45820  Biso   1.000  C
  C14      1.0000 0.19350  0.65940  0.54180  Biso   1.000  C
  C15      1.0000 0.84480  0.18430  0.57790  Biso   1.000  C
  C16      1.0000 0.15520  0.68430  0.42210  Biso   1.000  C
  C17      1.0000 0.70950  0.13530  0.27400  Biso   1.000  C
  C18      1.0000 0.29050  0.63530  0.72600  Biso   1.000  C
  H19      1.0000 0.64090  0.11830  0.20300  Biso   1.000  H
  H20      1.0000 0.35910  0.61830  0.79700  Biso   1.000  H
  C19      1.0000 0.90730  0.07390  0.22680  Biso   1.000  C
  C20      1.0000 0.09270  0.57390  0.77320  Biso   1.000  C
  H21      1.0000 0.99520  0.99850  0.27620  Biso   1.000  H
  H22      1.0000 0.00480  0.49850  0.72380  Biso   1.000  H
  H23      1.0000 0.84840  0.00560  0.16370  Biso   1.000  H
  H24      1.0000 0.15160  0.50560  0.83630  Biso   1.000  H
  C21      1.0000 0.84590  0.31820  0.09080  Biso   1.000  C
  C22      1.0000 0.15410  0.81820  0.90920  Biso   1.000  C
  H25      1.0000 0.79890  0.23010  0.03090  Biso   1.000  H
  H26      1.0000 0.20110  0.73010  0.96910  Biso   1.000  H
  H27      1.0000 0.76860  0.37070  0.09970  Biso   1.000  H
  H28      1.0000 0.23140  0.87070  0.90030  Biso   1.000  H
  C23      1.0000 0.90390  0.46750  0.04450  Biso   1.000  C
  C24      1.0000 0.09610  0.96750  0.95550  Biso   1.000  C
  H29      1.0000 0.98530  0.41250  0.04280  Biso   1.000  H
  H30      1.0000 0.01470  0.91250  0.95720  Biso   1.000  H
  H31      1.0000 0.84190  0.50100  0.97530  Biso   1.000  H
  H32      1.0000 0.15810  0.00100  0.02470  Biso   1.000  H
  O15      1.0000 0.64430  0.75690  0.10840  Biso   1.000  O
  O16      1.0000 0.35570  0.25690  0.89160  Biso   1.000  O
  H33      1.0000 0.66520  0.78990  0.06340  Biso   1.000  H
  H34      1.0000 0.33480  0.28990  0.93660  Biso   1.000  H
  C25      1.0000 0.54370  0.62260  0.05570  Biso   1.000  C
  C26      1.0000 0.45630  0.12260  0.94430  Biso   1.000  C
  H35      1.0000 0.53830  0.53960  0.11450  Biso   1.000  H
  H36      1.0000 0.46170  0.03960  0.88550  Biso   1.000  H
  H37      1.0000 0.56410  0.54920  0.00050  Biso   1.000  H
  H38      1.0000 0.43590  0.04920  0.99950  Biso   1.000  H
  H39      1.0000 0.45920  0.68630  0.01570  Biso   1.000  H
  H40      1.0000 0.54080  0.18630  0.98430  Biso   1.000  H
  O17      1.0000 0.30360  0.93770  0.23390  Biso   1.000  O
  O18      1.0000 0.69640  0.43770  0.76610  Biso   1.000  O
  H41      1.0000 0.27530  0.87110  0.27210  Biso   1.000  H
  H42      1.0000 0.72470  0.37110  0.72790  Biso   1.000  H
  C27      1.0000 0.40770  0.83510  0.22510  Biso   1.000  C
  C28      1.0000 0.59230  0.33510  0.77490  Biso   1.000  C
  H43      1.0000 0.43950  0.90130  0.17450  Biso   1.000  H
  H44      1.0000 0.56050  0.40130  0.82550  Biso   1.000  H
  H45      1.0000 0.37580  0.71130  0.19330  Biso   1.000  H
  H46      1.0000 0.62420  0.21130  0.80670  Biso   1.000  H
  H47      1.0000 0.47990  0.82180  0.30140  Biso   1.000  H
  H48      1.0000 0.52010  0.32180  0.69860  Biso   1.000  H
