data_image0
_cell_length_a       15.4591
_cell_length_b       10.8105
_cell_length_c       14.6639
_cell_angle_alpha    90
_cell_angle_beta     101.994
_cell_angle_gamma    90

_symmetry_space_group_name_H-M    "P 1"
_symmetry_int_tables_number       1

loop_
  _symmetry_equiv_pos_as_xyz
  'x, y, z'

loop_
  _atom_site_label
  _atom_site_occupancy
  _atom_site_fract_x
  _atom_site_fract_y
  _atom_site_fract_z
  _atom_site_thermal_displace_type
  _atom_site_B_iso_or_equiv
  _atom_site_type_symbol
  Cu1      1.0000 0.70321  0.24213  0.21042  Biso   1.000  Cu
  Cu2      1.0000 0.29679  0.74213  0.28958  Biso   1.000  Cu
  Cu3      1.0000 0.29679  0.75787  0.78958  Biso   1.000  Cu
  Cu4      1.0000 0.70321  0.25787  0.71042  Biso   1.000  Cu
  Cu5      1.0000 0.88225  0.29054  0.08230  Biso   1.000  Cu
  Cu6      1.0000 0.11775  0.79054  0.41770  Biso   1.000  Cu
  Cu7      1.0000 0.11775  0.70946  0.91770  Biso   1.000  Cu
  Cu8      1.0000 0.88225  0.20946  0.58230  Biso   1.000  Cu
  N1       1.0000 0.64393  0.07380  0.16837  Biso   1.000  N
  N2       1.0000 0.35607  0.57380  0.33163  Biso   1.000  N
  N3       1.0000 0.35607  0.92620  0.83163  Biso   1.000  N
  N4       1.0000 0.64393  0.42620  0.66837  Biso   1.000  N
  N5       1.0000 0.50933  0.26180  0.17176  Biso   1.000  N
  N6       1.0000 0.49067  0.76180  0.32824  Biso   1.000  N
  N7       1.0000 0.49067  0.73820  0.82824  Biso   1.000  N
  N8       1.0000 0.50933  0.23820  0.67176  Biso   1.000  N
  N9       1.0000 0.58492  0.32170  0.16789  Biso   1.000  N
  N10      1.0000 0.41508  0.82170  0.33211  Biso   1.000  N
  N11      1.0000 0.41508  0.67830  0.83211  Biso   1.000  N
  N12      1.0000 0.58492  0.17830  0.66789  Biso   1.000  N
  N13      1.0000 0.90303  0.10370  0.08036  Biso   1.000  N
  N14      1.0000 0.09697  0.60370  0.41964  Biso   1.000  N
  N15      1.0000 0.09697  0.89630  0.91964  Biso   1.000  N
  N16      1.0000 0.90303  0.39630  0.58036  Biso   1.000  N
  N17      1.0000 0.05968  0.22270  0.19255  Biso   1.000  N
  N18      1.0000 0.94032  0.72270  0.30745  Biso   1.000  N
  N19      1.0000 0.94032  0.77730  0.80745  Biso   1.000  N
  N20      1.0000 0.05968  0.27730  0.69255  Biso   1.000  N
  N21      1.0000 0.01271  0.30760  0.13507  Biso   1.000  N
  N22      1.0000 0.98729  0.80760  0.36493  Biso   1.000  N
  N23      1.0000 0.98729  0.69240  0.86493  Biso   1.000  N
  N24      1.0000 0.01271  0.19240  0.63507  Biso   1.000  N
  N25      1.0000 0.75302  0.26300  0.07097  Biso   1.000  N
  N26      1.0000 0.24698  0.76300  0.42903  Biso   1.000  N
  N27      1.0000 0.24698  0.73700  0.92903  Biso   1.000  N
  N28      1.0000 0.75302  0.23700  0.57097  Biso   1.000  N
  N29      1.0000 0.70188  0.26970  0.99835  Biso   1.000  N
  N30      1.0000 0.29812  0.76970  0.50165  Biso   1.000  N
  N31      1.0000 0.29812  0.73030  0.00165  Biso   1.000  N
  N32      1.0000 0.70188  0.23030  0.49835  Biso   1.000  N
  N33      1.0000 0.65083  0.27370  0.92990  Biso   1.000  N
  N34      1.0000 0.34917  0.77370  0.57010  Biso   1.000  N
  N35      1.0000 0.34917  0.72630  0.07010  Biso   1.000  N
  N36      1.0000 0.65083  0.22630  0.42990  Biso   1.000  N
  N37      1.0000 0.75929  0.39700  0.26551  Biso   1.000  N
  N38      1.0000 0.24071  0.89700  0.23449  Biso   1.000  N
  N39      1.0000 0.24071  0.60300  0.73449  Biso   1.000  N
  N40      1.0000 0.75929  0.10300  0.76551  Biso   1.000  N
  N41      1.0000 0.72279  0.47950  0.29315  Biso   1.000  N
  N42      1.0000 0.27721  0.97950  0.20685  Biso   1.000  N
  N43      1.0000 0.27721  0.52050  0.70685  Biso   1.000  N
  N44      1.0000 0.72279  0.02050  0.79315  Biso   1.000  N
  N45      1.0000 0.69205  0.56230  0.32360  Biso   1.000  N
  N46      1.0000 0.30795  0.06230  0.17640  Biso   1.000  N
  N47      1.0000 0.30795  0.43770  0.67640  Biso   1.000  N
  N48      1.0000 0.69205  0.93770  0.82360  Biso   1.000  N
  N49      1.0000 0.80817  0.35070  0.77425  Biso   1.000  N
  N50      1.0000 0.19183  0.85070  0.72575  Biso   1.000  N
  N51      1.0000 0.19183  0.64930  0.22575  Biso   1.000  N
  N52      1.0000 0.80817  0.14930  0.27425  Biso   1.000  N
  N53      1.0000 0.84596  0.32170  0.85020  Biso   1.000  N
  N54      1.0000 0.15404  0.82170  0.64980  Biso   1.000  N
  N55      1.0000 0.15404  0.67830  0.14980  Biso   1.000  N
  N56      1.0000 0.84596  0.17830  0.35020  Biso   1.000  N
  N57      1.0000 0.88673  0.29730  0.92281  Biso   1.000  N
  N58      1.0000 0.11327  0.79730  0.57719  Biso   1.000  N
  N59      1.0000 0.11327  0.70270  0.07719  Biso   1.000  N
  N60      1.0000 0.88673  0.20270  0.42281  Biso   1.000  N
  N61      1.0000 0.87351  0.47230  0.08757  Biso   1.000  N
  N62      1.0000 0.12649  0.97230  0.41243  Biso   1.000  N
  N63      1.0000 0.12649  0.52770  0.91243  Biso   1.000  N
  N64      1.0000 0.87351  0.02770  0.58757  Biso   1.000  N
  N65      1.0000 0.80542  0.52650  0.06879  Biso   1.000  N
  N66      1.0000 0.19458  0.02650  0.43121  Biso   1.000  N
  N67      1.0000 0.19458  0.47350  0.93121  Biso   1.000  N
  N68      1.0000 0.80542  0.97350  0.56879  Biso   1.000  N
  N69      1.0000 0.74190  0.58440  0.05110  Biso   1.000  N
  N70      1.0000 0.25810  0.08440  0.44890  Biso   1.000  N
  N71      1.0000 0.25810  0.41560  0.94890  Biso   1.000  N
  N72      1.0000 0.74190  0.91560  0.55110  Biso   1.000  N
  C1       1.0000 0.68910  0.98900  0.13060  Biso   1.000  C
  C2       1.0000 0.31090  0.48900  0.36940  Biso   1.000  C
  C3       1.0000 0.31090  0.01100  0.86940  Biso   1.000  C
  C4       1.0000 0.68910  0.51100  0.63060  Biso   1.000  C
  H1       1.0000 0.74800  0.00450  0.12960  Biso   1.000  H
  H2       1.0000 0.25200  0.50450  0.37040  Biso   1.000  H
  H3       1.0000 0.25200  0.99550  0.87040  Biso   1.000  H
  H4       1.0000 0.74800  0.49550  0.62960  Biso   1.000  H
  C5       1.0000 0.65160  0.87960  0.09320  Biso   1.000  C
  C6       1.0000 0.34840  0.37960  0.40680  Biso   1.000  C
  C7       1.0000 0.34840  0.12040  0.90680  Biso   1.000  C
  C8       1.0000 0.65160  0.62040  0.59320  Biso   1.000  C
  H5       1.0000 0.68450  0.82280  0.06700  Biso   1.000  H
  H6       1.0000 0.31550  0.32280  0.43300  Biso   1.000  H
  H7       1.0000 0.31550  0.17720  0.93300  Biso   1.000  H
  H8       1.0000 0.68450  0.67720  0.56700  Biso   1.000  H
  C9       1.0000 0.56510  0.85600  0.09550  Biso   1.000  C
  C10      1.0000 0.43490  0.35600  0.40450  Biso   1.000  C
  C11      1.0000 0.43490  0.14400  0.90450  Biso   1.000  C
  C12      1.0000 0.56510  0.64400  0.59550  Biso   1.000  C
  H9       1.0000 0.53810  0.78340  0.07000  Biso   1.000  H
  H10      1.0000 0.46190  0.28340  0.43000  Biso   1.000  H
  H11      1.0000 0.46190  0.21660  0.93000  Biso   1.000  H
  H12      1.0000 0.53810  0.71660  0.57000  Biso   1.000  H
  C13      1.0000 0.51900  0.94070  0.13560  Biso   1.000  C
  C14      1.0000 0.48100  0.44070  0.36440  Biso   1.000  C
  C15      1.0000 0.48100  0.05930  0.86440  Biso   1.000  C
  C16      1.0000 0.51900  0.55930  0.63560  Biso   1.000  C
  H13      1.0000 0.46030  0.92570  0.13830  Biso   1.000  H
  H14      1.0000 0.53970  0.42570  0.36170  Biso   1.000  H
  H15      1.0000 0.53970  0.07430  0.86170  Biso   1.000  H
  H16      1.0000 0.46030  0.57430  0.63830  Biso   1.000  H
  C17      1.0000 0.55968  0.04840  0.17208  Biso   1.000  C
  C18      1.0000 0.44032  0.54840  0.32792  Biso   1.000  C
  C19      1.0000 0.44032  0.95160  0.82792  Biso   1.000  C
  C20      1.0000 0.55968  0.45160  0.67208  Biso   1.000  C
  C21      1.0000 0.51367  0.14310  0.21886  Biso   1.000  C
  C22      1.0000 0.48633  0.64310  0.28114  Biso   1.000  C
  C23      1.0000 0.48633  0.85690  0.78114  Biso   1.000  C
  C24      1.0000 0.51367  0.35690  0.71886  Biso   1.000  C
  H17      1.0000 0.45420  0.11490  0.21930  Biso   1.000  H
  H18      1.0000 0.54580  0.61490  0.28070  Biso   1.000  H
  H19      1.0000 0.54580  0.88510  0.78070  Biso   1.000  H
  H20      1.0000 0.45420  0.38510  0.71930  Biso   1.000  H
  H21      1.0000 0.54490  0.15280  0.28300  Biso   1.000  H
  H22      1.0000 0.45510  0.65280  0.21700  Biso   1.000  H
  H23      1.0000 0.45510  0.84720  0.71700  Biso   1.000  H
  H24      1.0000 0.54490  0.34720  0.78300  Biso   1.000  H
  C25      1.0000 0.43856  0.32770  0.13076  Biso   1.000  C
  C26      1.0000 0.56144  0.82770  0.36924  Biso   1.000  C
  C27      1.0000 0.56144  0.67230  0.86924  Biso   1.000  C
  C28      1.0000 0.43856  0.17230  0.63076  Biso   1.000  C
  H25      1.0000 0.37970  0.30480  0.12500  Biso   1.000  H
  H26      1.0000 0.62030  0.80480  0.37500  Biso   1.000  H
  H27      1.0000 0.62030  0.69520  0.87500  Biso   1.000  H
  H28      1.0000 0.37970  0.19520  0.62500  Biso   1.000  H
  C29      1.0000 0.46877  0.43460  0.09890  Biso   1.000  C
  C30      1.0000 0.53123  0.93460  0.40110  Biso   1.000  C
  C31      1.0000 0.53123  0.56540  0.90110  Biso   1.000  C
  C32      1.0000 0.46877  0.06540  0.59890  Biso   1.000  C
  H29      1.0000 0.43500  0.49880  0.06760  Biso   1.000  H
  H30      1.0000 0.56500  0.99880  0.43240  Biso   1.000  H
  H31      1.0000 0.56500  0.50120  0.93240  Biso   1.000  H
  H32      1.0000 0.43500  0.00120  0.56760  Biso   1.000  H
  C33      1.0000 0.56044  0.42760  0.12304  Biso   1.000  C
  C34      1.0000 0.43956  0.92760  0.37696  Biso   1.000  C
  C35      1.0000 0.43956  0.57240  0.87696  Biso   1.000  C
  C36      1.0000 0.56044  0.07240  0.62304  Biso   1.000  C
  H33      1.0000 0.59910  0.48780  0.10990  Biso   1.000  H
  H34      1.0000 0.40090  0.98780  0.39010  Biso   1.000  H
  H35      1.0000 0.40090  0.51220  0.89010  Biso   1.000  H
  H36      1.0000 0.59910  0.01220  0.60990  Biso   1.000  H
  C37      1.0000 0.85766  0.03500  0.01054  Biso   1.000  C
  C38      1.0000 0.14234  0.53500  0.48946  Biso   1.000  C
  C39      1.0000 0.14234  0.96500  0.98946  Biso   1.000  C
  C40      1.0000 0.85766  0.46500  0.51054  Biso   1.000  C
  H37      1.0000 0.81670  0.07410  0.96400  Biso   1.000  H
  H38      1.0000 0.18330  0.57410  0.53600  Biso   1.000  H
  H39      1.0000 0.18330  0.92590  0.03600  Biso   1.000  H
  H40      1.0000 0.81670  0.42590  0.46400  Biso   1.000  H
  C41      1.0000 0.86880  0.91060  0.00450  Biso   1.000  C
  C42      1.0000 0.13120  0.41060  0.49550  Biso   1.000  C
  C43      1.0000 0.13120  0.08940  0.99550  Biso   1.000  C
  C44      1.0000 0.86880  0.58940  0.50450  Biso   1.000  C
  H41      1.0000 0.83430  0.86560  0.95620  Biso   1.000  H
  H42      1.0000 0.16570  0.36560  0.54380  Biso   1.000  H
  H43      1.0000 0.16570  0.13440  0.04380  Biso   1.000  H
  H44      1.0000 0.83430  0.63440  0.45620  Biso   1.000  H
  C45      1.0000 0.93000  0.85340  0.06920  Biso   1.000  C
  C46      1.0000 0.07000  0.35340  0.43080  Biso   1.000  C
  C47      1.0000 0.07000  0.14660  0.93080  Biso   1.000  C
  C48      1.0000 0.93000  0.64660  0.56920  Biso   1.000  C
  H45      1.0000 0.93830  0.76840  0.06600  Biso   1.000  H
  H46      1.0000 0.06170  0.26840  0.43400  Biso   1.000  H
  H47      1.0000 0.06170  0.23160  0.93400  Biso   1.000  H
  H48      1.0000 0.93830  0.73160  0.56600  Biso   1.000  H
  C49      1.0000 0.97950  0.92000  0.13900  Biso   1.000  C
  C50      1.0000 0.02050  0.42000  0.36100  Biso   1.000  C
  C51      1.0000 0.02050  0.08000  0.86100  Biso   1.000  C
  C52      1.0000 0.97950  0.58000  0.63900  Biso   1.000  C
  H49      1.0000 0.02380  0.88200  0.18250  Biso   1.000  H
  H50      1.0000 0.97620  0.38200  0.31750  Biso   1.000  H
  H51      1.0000 0.97620  0.11800  0.81750  Biso   1.000  H
  H52      1.0000 0.02380  0.61800  0.68250  Biso   1.000  H
  C53      1.0000 0.96364  0.04400  0.14496  Biso   1.000  C
  C54      1.0000 0.03636  0.54400  0.35504  Biso   1.000  C
  C55      1.0000 0.03636  0.95600  0.85504  Biso   1.000  C
  C56      1.0000 0.96364  0.45600  0.64496  Biso   1.000  C
  C57      1.0000 0.01320  0.11900  0.22453  Biso   1.000  C
  C58      1.0000 0.98680  0.61900  0.27547  Biso   1.000  C
  C59      1.0000 0.98680  0.88100  0.77547  Biso   1.000  C
  C60      1.0000 0.01320  0.38100  0.72453  Biso   1.000  C
  H53      1.0000 0.97210  0.15030  0.26080  Biso   1.000  H
  H54      1.0000 0.02790  0.65030  0.23920  Biso   1.000  H
  H55      1.0000 0.02790  0.84970  0.73920  Biso   1.000  H
  H56      1.0000 0.97210  0.34970  0.76080  Biso   1.000  H
  H57      1.0000 0.05560  0.06640  0.26480  Biso   1.000  H
  H58      1.0000 0.94440  0.56640  0.23520  Biso   1.000  H
  H59      1.0000 0.94440  0.93360  0.73520  Biso   1.000  H
  H60      1.0000 0.05560  0.43360  0.76480  Biso   1.000  H
  C61      1.0000 0.14670  0.24970  0.21260  Biso   1.000  C
  C62      1.0000 0.85330  0.74970  0.28740  Biso   1.000  C
  C63      1.0000 0.85330  0.75030  0.78740  Biso   1.000  C
  C64      1.0000 0.14670  0.25030  0.71260  Biso   1.000  C
  H61      1.0000 0.19140  0.20520  0.25120  Biso   1.000  H
  H62      1.0000 0.80860  0.70520  0.24880  Biso   1.000  H
  H63      1.0000 0.80860  0.79480  0.74880  Biso   1.000  H
  H64      1.0000 0.19140  0.29480  0.75120  Biso   1.000  H
  C65      1.0000 0.15640  0.36100  0.16230  Biso   1.000  C
  C66      1.0000 0.84360  0.86100  0.33770  Biso   1.000  C
  C67      1.0000 0.84360  0.63900  0.83770  Biso   1.000  C
  C68      1.0000 0.15640  0.13900  0.66230  Biso   1.000  C
  H65      1.0000 0.20830  0.40370  0.16050  Biso   1.000  H
  H66      1.0000 0.79170  0.90370  0.33950  Biso   1.000  H
  H67      1.0000 0.79170  0.59630  0.83950  Biso   1.000  H
  H68      1.0000 0.20830  0.09630  0.66050  Biso   1.000  H
  C69      1.0000 0.07024  0.39060  0.11660  Biso   1.000  C
  C70      1.0000 0.92976  0.89060  0.38340  Biso   1.000  C
  C71      1.0000 0.92976  0.60940  0.88340  Biso   1.000  C
  C72      1.0000 0.07024  0.10940  0.61660  Biso   1.000  C
  H69      1.0000 0.05510  0.45920  0.07830  Biso   1.000  H
  H70      1.0000 0.94490  0.95920  0.42170  Biso   1.000  H
  H71      1.0000 0.94490  0.54080  0.92170  Biso   1.000  H
  H72      1.0000 0.05510  0.04080  0.57830  Biso   1.000  H
