data_image0
_cell_length_a       11.3117
_cell_length_b       7.495
_cell_length_c       20.9408
_cell_angle_alpha    90
_cell_angle_beta     98.8996
_cell_angle_gamma    90

_symmetry_space_group_name_H-M    "P 1"
_symmetry_int_tables_number       1

loop_
  _symmetry_equiv_pos_as_xyz
  'x, y, z'

loop_
  _atom_site_label
  _atom_site_occupancy
  _atom_site_fract_x
  _atom_site_fract_y
  _atom_site_fract_z
  _atom_site_thermal_displace_type
  _atom_site_B_iso_or_equiv
  _atom_site_type_symbol
  Cu1      1.0000 0.90519  0.57285  0.10114  Biso   1.000  Cu
  Cu2      1.0000 0.40519  0.92715  0.60114  Biso   1.000  Cu
  Cu3      1.0000 0.09481  0.42715  0.89886  Biso   1.000  Cu
  Cu4      1.0000 0.59481  0.07285  0.39886  Biso   1.000  Cu
  Cu5      1.0000 0.99352  0.77845  0.98798  Biso   1.000  Cu
  Cu6      1.0000 0.49352  0.72155  0.48798  Biso   1.000  Cu
  Cu7      1.0000 0.00648  0.22155  0.01202  Biso   1.000  Cu
  Cu8      1.0000 0.50648  0.27845  0.51202  Biso   1.000  Cu
  N1       1.0000 0.75130  0.56730  0.13500  Biso   1.000  N
  N2       1.0000 0.25130  0.93270  0.63500  Biso   1.000  N
  N3       1.0000 0.24870  0.43270  0.86500  Biso   1.000  N
  N4       1.0000 0.74870  0.06730  0.36500  Biso   1.000  N
  N5       1.0000 0.74260  0.63050  0.19340  Biso   1.000  N
  N6       1.0000 0.24260  0.86950  0.69340  Biso   1.000  N
  N7       1.0000 0.25740  0.36950  0.80660  Biso   1.000  N
  N8       1.0000 0.75740  0.13050  0.30660  Biso   1.000  N
  N9       1.0000 0.84600  0.73110  0.02720  Biso   1.000  N
  N10      1.0000 0.34600  0.76890  0.52720  Biso   1.000  N
  N11      1.0000 0.15400  0.26890  0.97280  Biso   1.000  N
  N12      1.0000 0.65400  0.23110  0.47280  Biso   1.000  N
  N13      1.0000 0.75090  0.79610  0.01030  Biso   1.000  N
  N14      1.0000 0.25090  0.70390  0.51030  Biso   1.000  N
  N15      1.0000 0.24910  0.20390  0.98970  Biso   1.000  N
  N16      1.0000 0.74910  0.29610  0.48970  Biso   1.000  N
  N17      1.0000 0.66190  0.85890  0.99320  Biso   1.000  N
  N18      1.0000 0.16190  0.64110  0.49320  Biso   1.000  N
  N19      1.0000 0.33810  0.14110  0.00680  Biso   1.000  N
  N20      1.0000 0.83810  0.35890  0.50680  Biso   1.000  N
  N21      1.0000 0.05440  0.60680  0.06130  Biso   1.000  N
  N22      1.0000 0.55440  0.89320  0.56130  Biso   1.000  N
  N23      1.0000 0.94560  0.39320  0.93870  Biso   1.000  N
  N24      1.0000 0.44560  0.10680  0.43870  Biso   1.000  N
  N25      1.0000 0.16000  0.59730  0.08330  Biso   1.000  N
  N26      1.0000 0.66000  0.90270  0.58330  Biso   1.000  N
  N27      1.0000 0.84000  0.40270  0.91670  Biso   1.000  N
  N28      1.0000 0.34000  0.09730  0.41670  Biso   1.000  N
  N29      1.0000 0.25840  0.58680  0.10290  Biso   1.000  N
  N30      1.0000 0.75840  0.91320  0.60290  Biso   1.000  N
  N31      1.0000 0.74160  0.41320  0.89710  Biso   1.000  N
  N32      1.0000 0.24160  0.08680  0.39710  Biso   1.000  N
  N33      1.0000 0.91980  0.97400  0.93390  Biso   1.000  N
  N34      1.0000 0.41980  0.52600  0.43390  Biso   1.000  N
  N35      1.0000 0.08020  0.02600  0.06610  Biso   1.000  N
  N36      1.0000 0.58020  0.47400  0.56610  Biso   1.000  N
  N37      1.0000 0.93280  0.00800  0.87930  Biso   1.000  N
  N38      1.0000 0.43280  0.49200  0.37930  Biso   1.000  N
  N39      1.0000 0.06720  0.99200  0.12070  Biso   1.000  N
  N40      1.0000 0.56720  0.50800  0.62070  Biso   1.000  N
  N41      1.0000 0.94170  0.04870  0.82820  Biso   1.000  N
  N42      1.0000 0.44170  0.45130  0.32820  Biso   1.000  N
  N43      1.0000 0.05830  0.95130  0.17180  Biso   1.000  N
  N44      1.0000 0.55830  0.54870  0.67180  Biso   1.000  N
  N45      1.0000 0.88060  0.28550  0.06320  Biso   1.000  N
  N46      1.0000 0.38060  0.21450  0.56320  Biso   1.000  N
  N47      1.0000 0.11940  0.71450  0.93680  Biso   1.000  N
  N48      1.0000 0.61940  0.78550  0.43680  Biso   1.000  N
  N49      1.0000 0.83330  0.18480  0.09510  Biso   1.000  N
  N50      1.0000 0.33330  0.31520  0.59510  Biso   1.000  N
  N51      1.0000 0.16670  0.81520  0.90490  Biso   1.000  N
  N52      1.0000 0.66670  0.68480  0.40490  Biso   1.000  N
  N53      1.0000 0.78370  0.09660  0.12590  Biso   1.000  N
  N54      1.0000 0.28370  0.40340  0.62590  Biso   1.000  N
  N55      1.0000 0.21630  0.90340  0.87410  Biso   1.000  N
  N56      1.0000 0.71630  0.59660  0.37410  Biso   1.000  N
  N57      1.0000 0.98660  0.51140  0.19060  Biso   1.000  N
  N58      1.0000 0.48660  0.98860  0.69060  Biso   1.000  N
  N59      1.0000 0.01340  0.48860  0.80940  Biso   1.000  N
  N60      1.0000 0.51340  0.01140  0.30940  Biso   1.000  N
  C1       1.0000 0.08670  0.40160  0.20050  Biso   1.000  C
  C2       1.0000 0.58670  0.09840  0.70050  Biso   1.000  C
  C3       1.0000 0.91330  0.59840  0.79950  Biso   1.000  C
  C4       1.0000 0.41330  0.90160  0.29950  Biso   1.000  C
  H1       1.0000 0.11360  0.34730  0.16550  Biso   1.000  H
  H2       1.0000 0.61360  0.15270  0.66550  Biso   1.000  H
  H3       1.0000 0.88640  0.65270  0.83450  Biso   1.000  H
  H4       1.0000 0.38640  0.84730  0.33450  Biso   1.000  H
  C5       1.0000 0.14670  0.37290  0.26270  Biso   1.000  C
  C6       1.0000 0.64670  0.12710  0.76270  Biso   1.000  C
  C7       1.0000 0.85330  0.62710  0.73730  Biso   1.000  C
  C8       1.0000 0.35330  0.87290  0.23730  Biso   1.000  C
  H5       1.0000 0.21370  0.29940  0.26940  Biso   1.000  H
  H6       1.0000 0.71370  0.20060  0.76940  Biso   1.000  H
  H7       1.0000 0.78630  0.70060  0.73060  Biso   1.000  H
  H8       1.0000 0.28630  0.79940  0.23060  Biso   1.000  H
  C9       1.0000 0.10650  0.45400  0.31510  Biso   1.000  C
  C10      1.0000 0.60650  0.04600  0.81510  Biso   1.000  C
  C11      1.0000 0.89350  0.54600  0.68490  Biso   1.000  C
  C12      1.0000 0.39350  0.95400  0.18490  Biso   1.000  C
  H9       1.0000 0.14670  0.43470  0.35670  Biso   1.000  H
  H10      1.0000 0.64670  0.06530  0.85670  Biso   1.000  H
  H11      1.0000 0.85330  0.56530  0.64330  Biso   1.000  H
  H12      1.0000 0.35330  0.93470  0.14330  Biso   1.000  H
  C13      1.0000 0.00630  0.56380  0.30520  Biso   1.000  C
  C14      1.0000 0.50630  0.93620  0.80520  Biso   1.000  C
  C15      1.0000 0.99370  0.43620  0.69480  Biso   1.000  C
  C16      1.0000 0.49370  0.06380  0.19480  Biso   1.000  C
  H13      1.0000 0.97950  0.61810  0.34020  Biso   1.000  H
  H14      1.0000 0.47950  0.88190  0.84020  Biso   1.000  H
  H15      1.0000 0.02050  0.38190  0.65980  Biso   1.000  H
  H16      1.0000 0.52050  0.11810  0.15980  Biso   1.000  H
  C17      1.0000 0.94640  0.59250  0.24290  Biso   1.000  C
  C18      1.0000 0.44640  0.90750  0.74290  Biso   1.000  C
  C19      1.0000 0.05360  0.40750  0.75710  Biso   1.000  C
  C20      1.0000 0.55360  0.09250  0.25710  Biso   1.000  C
  C21      1.0000 0.84860  0.70880  0.23140  Biso   1.000  C
  C22      1.0000 0.34860  0.79120  0.73140  Biso   1.000  C
  C23      1.0000 0.15140  0.29120  0.76860  Biso   1.000  C
  C24      1.0000 0.65140  0.20880  0.26860  Biso   1.000  C
  H17      1.0000 0.87180  0.81320  0.20890  Biso   1.000  H
  H18      1.0000 0.37180  0.68680  0.70890  Biso   1.000  H
  H19      1.0000 0.12820  0.18680  0.79110  Biso   1.000  H
  H20      1.0000 0.62820  0.31320  0.29110  Biso   1.000  H
  H21      1.0000 0.82870  0.74820  0.27250  Biso   1.000  H
  H22      1.0000 0.32870  0.75180  0.77250  Biso   1.000  H
  H23      1.0000 0.17130  0.25180  0.72750  Biso   1.000  H
  H24      1.0000 0.67130  0.24820  0.22750  Biso   1.000  H
  C25      1.0000 0.62900  0.62650  0.21060  Biso   1.000  C
  C26      1.0000 0.12900  0.87350  0.71060  Biso   1.000  C
  C27      1.0000 0.37100  0.37350  0.78940  Biso   1.000  C
  C28      1.0000 0.87100  0.12650  0.28940  Biso   1.000  C
  H25      1.0000 0.60760  0.66330  0.24970  Biso   1.000  H
  H26      1.0000 0.10760  0.83670  0.74970  Biso   1.000  H
  H27      1.0000 0.39240  0.33670  0.75030  Biso   1.000  H
  H28      1.0000 0.89240  0.16330  0.25030  Biso   1.000  H
  C29      1.0000 0.55020  0.55330  0.15540  Biso   1.000  C
  C30      1.0000 0.05020  0.94670  0.65540  Biso   1.000  C
  C31      1.0000 0.44980  0.44670  0.84460  Biso   1.000  C
  C32      1.0000 0.94980  0.05330  0.34460  Biso   1.000  C
  H29      1.0000 0.46810  0.53280  0.14930  Biso   1.000  H
  H30      1.0000 0.96810  0.96720  0.64930  Biso   1.000  H
  H31      1.0000 0.53190  0.46720  0.85070  Biso   1.000  H
  H32      1.0000 0.03190  0.03280  0.35070  Biso   1.000  H
  C33      1.0000 0.64420  0.51910  0.10910  Biso   1.000  C
  C34      1.0000 0.14420  0.98090  0.60910  Biso   1.000  C
  C35      1.0000 0.35580  0.48090  0.89090  Biso   1.000  C
  C36      1.0000 0.85580  0.01910  0.39090  Biso   1.000  C
  C37      1.0000 0.61680  0.43500  0.05380  Biso   1.000  C
  C38      1.0000 0.11680  0.06500  0.55380  Biso   1.000  C
  C39      1.0000 0.38320  0.56500  0.94620  Biso   1.000  C
  C40      1.0000 0.88320  0.93500  0.44620  Biso   1.000  C
  H33      1.0000 0.68620  0.42840  0.03270  Biso   1.000  H
  H34      1.0000 0.18620  0.07160  0.53270  Biso   1.000  H
  H35      1.0000 0.31380  0.57160  0.96730  Biso   1.000  H
  H36      1.0000 0.81380  0.92840  0.46730  Biso   1.000  H
  H37      1.0000 0.55450  0.49890  0.02680  Biso   1.000  H
  H38      1.0000 0.05450  0.00110  0.52680  Biso   1.000  H
  H39      1.0000 0.44550  0.50110  0.97320  Biso   1.000  H
  H40      1.0000 0.94550  0.99890  0.47320  Biso   1.000  H
  H41      1.0000 0.58970  0.31690  0.06140  Biso   1.000  H
  H42      1.0000 0.08970  0.18310  0.56140  Biso   1.000  H
  H43      1.0000 0.41030  0.68310  0.93860  Biso   1.000  H
  H44      1.0000 0.91030  0.81690  0.43860  Biso   1.000  H
