data_image0
_cell_length_a       10.9736
_cell_length_b       9.2296
_cell_length_c       14.4314
_cell_angle_alpha    90
_cell_angle_beta     110.973
_cell_angle_gamma    90

_symmetry_space_group_name_H-M    "P 1"
_symmetry_int_tables_number       1

loop_
  _symmetry_equiv_pos_as_xyz
  'x, y, z'

loop_
  _atom_site_label
  _atom_site_occupancy
  _atom_site_fract_x
  _atom_site_fract_y
  _atom_site_fract_z
  _atom_site_thermal_displace_type
  _atom_site_B_iso_or_equiv
  _atom_site_type_symbol
  Cu1      1.0000 0.50000  0.00000  0.00000  Biso   1.000  Cu
  Cu2      1.0000 0.00000  0.50000  0.50000  Biso   1.000  Cu
  N1       1.0000 0.44650  0.63210  0.15470  Biso   1.000  N
  N2       1.0000 0.94650  0.86790  0.65470  Biso   1.000  N
  N3       1.0000 0.55350  0.36790  0.84530  Biso   1.000  N
  N4       1.0000 0.05350  0.13210  0.34530  Biso   1.000  N
  N5       1.0000 0.34480  0.71810  0.14400  Biso   1.000  N
  N6       1.0000 0.84480  0.78190  0.64400  Biso   1.000  N
  N7       1.0000 0.65520  0.28190  0.85600  Biso   1.000  N
  N8       1.0000 0.15520  0.21810  0.35600  Biso   1.000  N
  N9       1.0000 0.34490  0.84010  0.09760  Biso   1.000  N
  N10      1.0000 0.84490  0.65990  0.59760  Biso   1.000  N
  N11      1.0000 0.65510  0.15990  0.90240  Biso   1.000  N
  N12      1.0000 0.15510  0.34010  0.40240  Biso   1.000  N
  N13      1.0000 0.45320  0.83550  0.07570  Biso   1.000  N
  N14      1.0000 0.95320  0.66450  0.57570  Biso   1.000  N
  N15      1.0000 0.54680  0.16450  0.92430  Biso   1.000  N
  N16      1.0000 0.04680  0.33550  0.42430  Biso   1.000  N
  N17      1.0000 0.40060  0.56250  0.58190  Biso   1.000  N
  N18      1.0000 0.90060  0.93750  0.08190  Biso   1.000  N
  N19      1.0000 0.59940  0.43750  0.41810  Biso   1.000  N
  N20      1.0000 0.09940  0.06250  0.91810  Biso   1.000  N
  N21      1.0000 0.34350  0.65420  0.50800  Biso   1.000  N
  N22      1.0000 0.84350  0.84580  0.00800  Biso   1.000  N
  N23      1.0000 0.65650  0.34580  0.49200  Biso   1.000  N
  N24      1.0000 0.15650  0.15420  0.99200  Biso   1.000  N
  N25      1.0000 0.21680  0.66140  0.48150  Biso   1.000  N
  N26      1.0000 0.71680  0.83860  0.98150  Biso   1.000  N
  N27      1.0000 0.78320  0.33860  0.51850  Biso   1.000  N
  N28      1.0000 0.28320  0.16140  0.01850  Biso   1.000  N
  N29      1.0000 0.18690  0.56920  0.54100  Biso   1.000  N
  N30      1.0000 0.68690  0.93080  0.04100  Biso   1.000  N
  N31      1.0000 0.81310  0.43080  0.45900  Biso   1.000  N
  N32      1.0000 0.31310  0.06920  0.95900  Biso   1.000  N
  O1       1.0000 0.56740  0.13520  0.14350  Biso   1.000  O
  O2       1.0000 0.06740  0.36480  0.64350  Biso   1.000  O
  O3       1.0000 0.43260  0.86480  0.85650  Biso   1.000  O
  O4       1.0000 0.93260  0.63520  0.35650  Biso   1.000  O
  C1       1.0000 0.55510  0.28720  0.16300  Biso   1.000  C
  C2       1.0000 0.05510  0.21280  0.66300  Biso   1.000  C
  C3       1.0000 0.44490  0.71280  0.83700  Biso   1.000  C
  C4       1.0000 0.94490  0.78720  0.33700  Biso   1.000  C
  C5       1.0000 0.41690  0.74050  0.45900  Biso   1.000  C
  C6       1.0000 0.91690  0.75950  0.95900  Biso   1.000  C
  C7       1.0000 0.58310  0.25950  0.54100  Biso   1.000  C
  C8       1.0000 0.08310  0.24050  0.04100  Biso   1.000  C
  C9       1.0000 0.33360  0.77270  0.35160  Biso   1.000  C
  C10      1.0000 0.83360  0.72730  0.85160  Biso   1.000  C
  C11      1.0000 0.66640  0.22730  0.64840  Biso   1.000  C
  C12      1.0000 0.16640  0.27270  0.14840  Biso   1.000  C
  C13      1.0000 0.28670  0.63880  0.28660  Biso   1.000  C
  C14      1.0000 0.78670  0.86120  0.78660  Biso   1.000  C
  C15      1.0000 0.71330  0.36120  0.71340  Biso   1.000  C
  C16      1.0000 0.21330  0.13880  0.21340  Biso   1.000  C
  C17      1.0000 0.23660  0.67610  0.17650  Biso   1.000  C
  C18      1.0000 0.73660  0.82390  0.67650  Biso   1.000  C
  C19      1.0000 0.76340  0.32390  0.82350  Biso   1.000  C
  C20      1.0000 0.26340  0.17610  0.32350  Biso   1.000  C
  C21      1.0000 0.51250  0.70890  0.11140  Biso   1.000  C
  C22      1.0000 0.01250  0.79110  0.61140  Biso   1.000  C
  C23      1.0000 0.48750  0.29110  0.88860  Biso   1.000  C
  C24      1.0000 0.98750  0.20890  0.38860  Biso   1.000  C
  C25      1.0000 0.29980  0.51050  0.60090  Biso   1.000  C
  C26      1.0000 0.79980  0.98950  0.10090  Biso   1.000  C
  C27      1.0000 0.70020  0.48950  0.39910  Biso   1.000  C
  C28      1.0000 0.20020  0.01050  0.89910  Biso   1.000  C
  B1       1.0000 0.85050  0.46520  0.12470  Biso   1.000  B
  B2       1.0000 0.35050  0.03480  0.62470  Biso   1.000  B
  B3       1.0000 0.14950  0.53480  0.87530  Biso   1.000  B
  B4       1.0000 0.64950  0.96520  0.37530  Biso   1.000  B
  F1       1.0000 0.96950  0.54490  0.17500  Biso   1.000  F
  F2       1.0000 0.46950  0.95510  0.67500  Biso   1.000  F
  F3       1.0000 0.03050  0.45510  0.82500  Biso   1.000  F
  F4       1.0000 0.53050  0.04490  0.32500  Biso   1.000  F
  F5       1.0000 0.86450  0.32180  0.13930  Biso   1.000  F
  F6       1.0000 0.36450  0.17820  0.63930  Biso   1.000  F
  F7       1.0000 0.13550  0.67820  0.86070  Biso   1.000  F
  F8       1.0000 0.63550  0.82180  0.36070  Biso   1.000  F
  F9       1.0000 0.78000  0.52900  0.18170  Biso   1.000  F
  F10      1.0000 0.28000  0.97100  0.68170  Biso   1.000  F
  F11      1.0000 0.22000  0.47100  0.81830  Biso   1.000  F
  F12      1.0000 0.72000  0.02900  0.31830  Biso   1.000  F
  F13      1.0000 0.76530  0.49320  0.02590  Biso   1.000  F
  F14      1.0000 0.26530  0.00680  0.52590  Biso   1.000  F
  F15      1.0000 0.23470  0.50680  0.97410  Biso   1.000  F
  F16      1.0000 0.73470  0.99320  0.47410  Biso   1.000  F
  F17      1.0000 0.96240  0.54260  0.13980  Biso   1.000  F
  F18      1.0000 0.46240  0.95740  0.63980  Biso   1.000  F
  F19      1.0000 0.03760  0.45740  0.86020  Biso   1.000  F
  F20      1.0000 0.53760  0.04260  0.36020  Biso   1.000  F
  F21      1.0000 0.86890  0.34010  0.18740  Biso   1.000  F
  F22      1.0000 0.36890  0.15990  0.68740  Biso   1.000  F
  F23      1.0000 0.13110  0.65990  0.81260  Biso   1.000  F
  F24      1.0000 0.63110  0.84010  0.31260  Biso   1.000  F
  F25      1.0000 0.74910  0.54470  0.11570  Biso   1.000  F
  F26      1.0000 0.24910  0.95530  0.61570  Biso   1.000  F
  F27      1.0000 0.25090  0.45530  0.88430  Biso   1.000  F
  F28      1.0000 0.75090  0.04470  0.38430  Biso   1.000  F
  F29      1.0000 0.85090  0.41660  0.03610  Biso   1.000  F
  F30      1.0000 0.35090  0.08340  0.53610  Biso   1.000  F
  F31      1.0000 0.14910  0.58340  0.96390  Biso   1.000  F
  F32      1.0000 0.64910  0.91660  0.46390  Biso   1.000  F
  H1       1.0000 0.64500  0.31300  0.21100  Biso   1.000  H
  H2       1.0000 0.14500  0.18700  0.71100  Biso   1.000  H
  H3       1.0000 0.35500  0.68700  0.78900  Biso   1.000  H
  H4       1.0000 0.85500  0.81300  0.28900  Biso   1.000  H
  H5       1.0000 0.50500  0.33200  0.10300  Biso   1.000  H
  H6       1.0000 0.00500  0.16800  0.60300  Biso   1.000  H
  H7       1.0000 0.49500  0.66800  0.89700  Biso   1.000  H
  H8       1.0000 0.99500  0.83200  0.39700  Biso   1.000  H
  H9       1.0000 0.50100  0.29700  0.19800  Biso   1.000  H
  H10      1.0000 0.00100  0.20300  0.69800  Biso   1.000  H
  H11      1.0000 0.49900  0.70300  0.80200  Biso   1.000  H
  H12      1.0000 0.99900  0.79700  0.30200  Biso   1.000  H
  H13      1.0000 0.58600  0.67600  0.10300  Biso   1.000  H
  H14      1.0000 0.08600  0.82400  0.60300  Biso   1.000  H
  H15      1.0000 0.41400  0.32400  0.89700  Biso   1.000  H
  H16      1.0000 0.91400  0.17600  0.39700  Biso   1.000  H
  H17      1.0000 0.30300  0.44000  0.64800  Biso   1.000  H
  H18      1.0000 0.80300  0.06000  0.14800  Biso   1.000  H
  H19      1.0000 0.69700  0.56000  0.35200  Biso   1.000  H
  H20      1.0000 0.19700  0.94000  0.85200  Biso   1.000  H
  H21      1.0000 0.44700  0.83400  0.50300  Biso   1.000  H
  H22      1.0000 0.94700  0.66600  0.00300  Biso   1.000  H
  H23      1.0000 0.55300  0.16600  0.49700  Biso   1.000  H
  H24      1.0000 0.05300  0.33400  0.99700  Biso   1.000  H
  H25      1.0000 0.49400  0.69300  0.46400  Biso   1.000  H
  H26      1.0000 0.99400  0.80700  0.96400  Biso   1.000  H
  H27      1.0000 0.50600  0.30700  0.53600  Biso   1.000  H
  H28      1.0000 0.00600  0.19300  0.03600  Biso   1.000  H
  H29      1.0000 0.38800  0.83400  0.32900  Biso   1.000  H
  H30      1.0000 0.88800  0.66600  0.82900  Biso   1.000  H
  H31      1.0000 0.61200  0.16600  0.67100  Biso   1.000  H
  H32      1.0000 0.11200  0.33400  0.17100  Biso   1.000  H
  H33      1.0000 0.26200  0.83100  0.34400  Biso   1.000  H
  H34      1.0000 0.76200  0.66900  0.84400  Biso   1.000  H
  H35      1.0000 0.73800  0.16900  0.65600  Biso   1.000  H
  H36      1.0000 0.23800  0.33100  0.15600  Biso   1.000  H
  H37      1.0000 0.36100  0.57400  0.30200  Biso   1.000  H
  H38      1.0000 0.86100  0.92600  0.80200  Biso   1.000  H
  H39      1.0000 0.63900  0.42600  0.69800  Biso   1.000  H
  H40      1.0000 0.13900  0.07400  0.19800  Biso   1.000  H
  H41      1.0000 0.22100  0.59500  0.30500  Biso   1.000  H
  H42      1.0000 0.72100  0.90500  0.80500  Biso   1.000  H
  H43      1.0000 0.77900  0.40500  0.69500  Biso   1.000  H
  H44      1.0000 0.27900  0.09500  0.19500  Biso   1.000  H
  H45      1.0000 0.17900  0.74600  0.16300  Biso   1.000  H
  H46      1.0000 0.67900  0.75400  0.66300  Biso   1.000  H
  H47      1.0000 0.82100  0.25400  0.83700  Biso   1.000  H
  H48      1.0000 0.32100  0.24600  0.33700  Biso   1.000  H
  H49      1.0000 0.19000  0.59300  0.13700  Biso   1.000  H
  H50      1.0000 0.69000  0.90700  0.63700  Biso   1.000  H
  H51      1.0000 0.81000  0.40700  0.86300  Biso   1.000  H
  H52      1.0000 0.31000  0.09300  0.36300  Biso   1.000  H
  H53      1.0000 0.58200  0.10600  0.18900  Biso   1.000  H
  H54      1.0000 0.08200  0.39400  0.68900  Biso   1.000  H
  H55      1.0000 0.41800  0.89400  0.81100  Biso   1.000  H
  H56      1.0000 0.91800  0.60600  0.31100  Biso   1.000  H
