data_image0
_cell_length_a       10.5593
_cell_length_b       11.3897
_cell_length_c       14.6978
_cell_angle_alpha    90
_cell_angle_beta     103.731
_cell_angle_gamma    90

_symmetry_space_group_name_H-M    "P 1"
_symmetry_int_tables_number       1

loop_
  _symmetry_equiv_pos_as_xyz
  'x, y, z'

loop_
  _atom_site_label
  _atom_site_occupancy
  _atom_site_fract_x
  _atom_site_fract_y
  _atom_site_fract_z
  _atom_site_thermal_displace_type
  _atom_site_B_iso_or_equiv
  _atom_site_type_symbol
  Cu1      1.0000 0.00000  0.50000  0.00000  Biso   1.000  Cu
  Cu2      1.0000 0.50000  0.00000  0.50000  Biso   1.000  Cu
  N1       1.0000 0.96686  0.56232  0.30781  Biso   1.000  N
  N2       1.0000 0.46686  0.93768  0.80781  Biso   1.000  N
  N3       1.0000 0.03314  0.43768  0.69219  Biso   1.000  N
  N4       1.0000 0.53314  0.06232  0.19219  Biso   1.000  N
  N5       1.0000 0.86669  0.49328  0.27017  Biso   1.000  N
  N6       1.0000 0.36669  0.00672  0.77017  Biso   1.000  N
  N7       1.0000 0.13331  0.50672  0.72983  Biso   1.000  N
  N8       1.0000 0.63331  0.99328  0.22983  Biso   1.000  N
  N9       1.0000 0.86374  0.45950  0.18471  Biso   1.000  N
  N10      1.0000 0.36374  0.04050  0.68471  Biso   1.000  N
  N11      1.0000 0.13626  0.54050  0.81529  Biso   1.000  N
  N12      1.0000 0.63626  0.95950  0.31529  Biso   1.000  N
  N13      1.0000 0.96714  0.50760  0.16288  Biso   1.000  N
  N14      1.0000 0.46714  0.99240  0.66288  Biso   1.000  N
  N15      1.0000 0.03286  0.49240  0.83712  Biso   1.000  N
  N16      1.0000 0.53286  0.00760  0.33712  Biso   1.000  N
  C1       1.0000 0.02772  0.56969  0.23847  Biso   1.000  C
  C2       1.0000 0.52772  0.93031  0.73847  Biso   1.000  C
  C3       1.0000 0.97228  0.43031  0.76153  Biso   1.000  C
  C4       1.0000 0.47228  0.06969  0.26153  Biso   1.000  C
  N17      1.0000 0.24931  0.78861  0.01193  Biso   1.000  N
  N18      1.0000 0.74931  0.71139  0.51193  Biso   1.000  N
  N19      1.0000 0.75069  0.21139  0.98807  Biso   1.000  N
  N20      1.0000 0.25069  0.28861  0.48807  Biso   1.000  N
  N21      1.0000 0.15963  0.82082  0.05772  Biso   1.000  N
  N22      1.0000 0.65963  0.67918  0.55772  Biso   1.000  N
  N23      1.0000 0.84037  0.17918  0.94228  Biso   1.000  N
  N24      1.0000 0.34037  0.32082  0.44228  Biso   1.000  N
  N25      1.0000 0.07416  0.73933  0.06373  Biso   1.000  N
  N26      1.0000 0.57416  0.76067  0.56373  Biso   1.000  N
  N27      1.0000 0.92584  0.26067  0.93627  Biso   1.000  N
  N28      1.0000 0.42584  0.23933  0.43627  Biso   1.000  N
  N29      1.0000 0.10913  0.64667  0.02015  Biso   1.000  N
  N30      1.0000 0.60913  0.85333  0.52015  Biso   1.000  N
  N31      1.0000 0.89087  0.35333  0.97985  Biso   1.000  N
  N32      1.0000 0.39087  0.14667  0.47985  Biso   1.000  N
  C5       1.0000 0.21582  0.67837  0.99053  Biso   1.000  C
  C6       1.0000 0.71582  0.82163  0.49053  Biso   1.000  C
  C7       1.0000 0.78418  0.32163  0.00947  Biso   1.000  C
  C8       1.0000 0.28418  0.17837  0.50947  Biso   1.000  C
  N33      1.0000 0.80362  0.22616  0.62501  Biso   1.000  N
  N34      1.0000 0.30362  0.27384  0.12501  Biso   1.000  N
  N35      1.0000 0.19638  0.77384  0.37499  Biso   1.000  N
  N36      1.0000 0.69638  0.72616  0.87499  Biso   1.000  N
  N37      1.0000 0.83277  0.19063  0.54589  Biso   1.000  N
  N38      1.0000 0.33277  0.30937  0.04589  Biso   1.000  N
  N39      1.0000 0.16723  0.80937  0.45411  Biso   1.000  N
  N40      1.0000 0.66723  0.69063  0.95411  Biso   1.000  N
  N41      1.0000 0.75014  0.11462  0.49755  Biso   1.000  N
  N42      1.0000 0.25014  0.38538  0.99755  Biso   1.000  N
  N43      1.0000 0.24986  0.88538  0.50245  Biso   1.000  N
  N44      1.0000 0.74986  0.61462  0.00245  Biso   1.000  N
  N45      1.0000 0.66132  0.09809  0.54662  Biso   1.000  N
  N46      1.0000 0.16132  0.40191  0.04662  Biso   1.000  N
  N47      1.0000 0.33868  0.90191  0.45338  Biso   1.000  N
  N48      1.0000 0.83868  0.59809  0.95338  Biso   1.000  N
  C9       1.0000 0.69568  0.16591  0.62360  Biso   1.000  C
  C10      1.0000 0.19568  0.33409  0.12360  Biso   1.000  C
  C11      1.0000 0.30432  0.83409  0.37640  Biso   1.000  C
  C12      1.0000 0.80432  0.66591  0.87640  Biso   1.000  C
  C13      1.0000 0.76488  0.45787  0.31810  Biso   1.000  C
  C14      1.0000 0.26488  0.04213  0.81810  Biso   1.000  C
  C15      1.0000 0.23512  0.54213  0.68190  Biso   1.000  C
  C16      1.0000 0.73512  0.95787  0.18190  Biso   1.000  C
  C17      1.0000 0.79587  0.34259  0.37132  Biso   1.000  C
  C18      1.0000 0.29587  0.15741  0.87132  Biso   1.000  C
  C19      1.0000 0.20413  0.65741  0.62868  Biso   1.000  C
  C20      1.0000 0.70413  0.84259  0.12868  Biso   1.000  C
  C21      1.0000 0.15071  0.94031  0.09243  Biso   1.000  C
  C22      1.0000 0.65071  0.55969  0.59243  Biso   1.000  C
  C23      1.0000 0.84929  0.05969  0.90757  Biso   1.000  C
  C24      1.0000 0.34929  0.44031  0.40757  Biso   1.000  C
  C25      1.0000 0.07174  0.01810  0.01503  Biso   1.000  C
  C26      1.0000 0.57174  0.48190  0.51503  Biso   1.000  C
  C27      1.0000 0.92826  0.98190  0.98497  Biso   1.000  C
  C28      1.0000 0.42826  0.51810  0.48497  Biso   1.000  C
  C29      1.0000 0.94264  0.23868  0.51180  Biso   1.000  C
  C30      1.0000 0.44264  0.26132  0.01180  Biso   1.000  C
  C31      1.0000 0.05736  0.76132  0.48820  Biso   1.000  C
  C32      1.0000 0.55736  0.73868  0.98820  Biso   1.000  C
  C33      1.0000 0.90607  0.35359  0.45920  Biso   1.000  C
  C34      1.0000 0.40607  0.14641  0.95920  Biso   1.000  C
  C35      1.0000 0.09393  0.64641  0.54080  Biso   1.000  C
  C36      1.0000 0.59393  0.85359  0.04080  Biso   1.000  C
  Cl1      1.0000 0.55449  0.35547  0.77457  Biso   1.000  Cl
  Cl2      1.0000 0.05449  0.14453  0.27457  Biso   1.000  Cl
  Cl3      1.0000 0.44551  0.64453  0.22543  Biso   1.000  Cl
  Cl4      1.0000 0.94551  0.85547  0.72543  Biso   1.000  Cl
  O1       1.0000 0.47716  0.36762  0.68020  Biso   1.000  O
  O2       1.0000 0.97716  0.13238  0.18020  Biso   1.000  O
  O3       1.0000 0.52284  0.63238  0.31980  Biso   1.000  O
  O4       1.0000 0.02284  0.86762  0.81980  Biso   1.000  O
  O5       1.0000 0.56293  0.23317  0.80004  Biso   1.000  O
  O6       1.0000 0.06293  0.26683  0.30004  Biso   1.000  O
  O7       1.0000 0.43707  0.76683  0.19996  Biso   1.000  O
  O8       1.0000 0.93707  0.73317  0.69996  Biso   1.000  O
  O9       1.0000 0.68362  0.40000  0.77967  Biso   1.000  O
  O10      1.0000 0.18362  0.10000  0.27967  Biso   1.000  O
  O11      1.0000 0.31638  0.60000  0.22033  Biso   1.000  O
  O12      1.0000 0.81638  0.90000  0.72033  Biso   1.000  O
  O13      1.0000 0.49497  0.42027  0.83737  Biso   1.000  O
  O14      1.0000 0.99497  0.07973  0.33737  Biso   1.000  O
  O15      1.0000 0.50503  0.57973  0.16263  Biso   1.000  O
  O16      1.0000 0.00503  0.92027  0.66263  Biso   1.000  O
  H1       1.0000 0.10700  0.61850  0.24290  Biso   1.000  H
  H2       1.0000 0.60700  0.88150  0.74290  Biso   1.000  H
  H3       1.0000 0.89300  0.38150  0.75710  Biso   1.000  H
  H4       1.0000 0.39300  0.11850  0.25710  Biso   1.000  H
  H5       1.0000 0.25900  0.62790  0.95890  Biso   1.000  H
  H6       1.0000 0.75900  0.87210  0.45890  Biso   1.000  H
  H7       1.0000 0.74100  0.37210  0.04110  Biso   1.000  H
  H8       1.0000 0.24100  0.12790  0.54110  Biso   1.000  H
  H9       1.0000 0.65100  0.16790  0.67150  Biso   1.000  H
  H10      1.0000 0.15100  0.33210  0.17150  Biso   1.000  H
  H11      1.0000 0.34900  0.83210  0.32850  Biso   1.000  H
  H12      1.0000 0.84900  0.66790  0.82850  Biso   1.000  H
  H13      1.0000 0.75800  0.52000  0.35630  Biso   1.000  H
  H14      1.0000 0.25800  0.98000  0.85630  Biso   1.000  H
  H15      1.0000 0.24200  0.48000  0.64370  Biso   1.000  H
  H16      1.0000 0.74200  0.02000  0.14370  Biso   1.000  H
  H17      1.0000 0.68950  0.45510  0.27190  Biso   1.000  H
  H18      1.0000 0.18950  0.04490  0.77190  Biso   1.000  H
  H19      1.0000 0.31050  0.54490  0.72810  Biso   1.000  H
  H20      1.0000 0.81050  0.95510  0.22810  Biso   1.000  H
  H21      1.0000 0.71930  0.31590  0.38680  Biso   1.000  H
  H22      1.0000 0.21930  0.18410  0.88680  Biso   1.000  H
  H23      1.0000 0.28070  0.68410  0.61320  Biso   1.000  H
  H24      1.0000 0.78070  0.81590  0.11320  Biso   1.000  H
  H25      1.0000 0.81800  0.28350  0.33280  Biso   1.000  H
  H26      1.0000 0.31800  0.21650  0.83280  Biso   1.000  H
  H27      1.0000 0.18200  0.71650  0.66720  Biso   1.000  H
  H28      1.0000 0.68200  0.78350  0.16720  Biso   1.000  H
  H29      1.0000 0.11000  0.93700  0.14220  Biso   1.000  H
  H30      1.0000 0.61000  0.56300  0.64220  Biso   1.000  H
  H31      1.0000 0.89000  0.06300  0.85780  Biso   1.000  H
  H32      1.0000 0.39000  0.43700  0.35780  Biso   1.000  H
  H33      1.0000 0.24180  0.96840  0.11300  Biso   1.000  H
  H34      1.0000 0.74180  0.53160  0.61300  Biso   1.000  H
  H35      1.0000 0.75820  0.03160  0.88700  Biso   1.000  H
  H36      1.0000 0.25820  0.46840  0.38700  Biso   1.000  H
  H37      1.0000 0.11130  0.01620  0.96460  Biso   1.000  H
  H38      1.0000 0.61130  0.48380  0.46460  Biso   1.000  H
  H39      1.0000 0.88870  0.98380  0.03540  Biso   1.000  H
  H40      1.0000 0.38870  0.51620  0.53540  Biso   1.000  H
  H41      1.0000 0.08440  0.09930  0.04210  Biso   1.000  H
  H42      1.0000 0.58440  0.40070  0.54210  Biso   1.000  H
  H43      1.0000 0.91560  0.90070  0.95790  Biso   1.000  H
  H44      1.0000 0.41560  0.59930  0.45790  Biso   1.000  H
  H45      1.0000 0.01330  0.24930  0.56650  Biso   1.000  H
  H46      1.0000 0.51330  0.25070  0.06650  Biso   1.000  H
  H47      1.0000 0.98670  0.75070  0.43350  Biso   1.000  H
  H48      1.0000 0.48670  0.74930  0.93350  Biso   1.000  H
  H49      1.0000 0.96400  0.17990  0.47110  Biso   1.000  H
  H50      1.0000 0.46400  0.32010  0.97110  Biso   1.000  H
  H51      1.0000 0.03600  0.82010  0.52890  Biso   1.000  H
  H52      1.0000 0.53600  0.67990  0.02890  Biso   1.000  H
  H53      1.0000 0.97800  0.38160  0.44070  Biso   1.000  H
  H54      1.0000 0.47800  0.11840  0.94070  Biso   1.000  H
  H55      1.0000 0.02200  0.61840  0.55930  Biso   1.000  H
  H56      1.0000 0.52200  0.88160  0.05930  Biso   1.000  H
  H57      1.0000 0.88940  0.41480  0.50150  Biso   1.000  H
  H58      1.0000 0.38940  0.08520  0.00150  Biso   1.000  H
  H59      1.0000 0.11060  0.58520  0.49850  Biso   1.000  H
  H60      1.0000 0.61060  0.91480  0.99850  Biso   1.000  H
