data_image0
_cell_length_a       8.4753
_cell_length_b       8.6917
_cell_length_c       20.538
_cell_angle_alpha    83.287
_cell_angle_beta     87.613
_cell_angle_gamma    65.853

_symmetry_space_group_name_H-M    "P 1"
_symmetry_int_tables_number       1

loop_
  _symmetry_equiv_pos_as_xyz
  'x, y, z'

loop_
  _atom_site_label
  _atom_site_occupancy
  _atom_site_fract_x
  _atom_site_fract_y
  _atom_site_fract_z
  _atom_site_thermal_displace_type
  _atom_site_B_iso_or_equiv
  _atom_site_type_symbol
  Cu1      1.0000 0.50000  0.50000  0.50000  Biso   1.000  Cu
  Cu2      1.0000 0.00000  0.00000  0.00000  Biso   1.000  Cu
  N1       1.0000 0.68480  0.03340  0.42141  Biso   1.000  N
  N2       1.0000 0.31520  0.96660  0.57859  Biso   1.000  N
  N3       1.0000 0.63280  0.15320  0.37048  Biso   1.000  N
  N4       1.0000 0.36720  0.84680  0.62952  Biso   1.000  N
  N5       1.0000 0.56910  0.30830  0.38607  Biso   1.000  N
  N6       1.0000 0.43090  0.69170  0.61393  Biso   1.000  N
  N7       1.0000 0.58120  0.29230  0.45092  Biso   1.000  N
  N8       1.0000 0.41880  0.70770  0.54908  Biso   1.000  N
  C1       1.0000 0.65070  0.12550  0.47128  Biso   1.000  C
  C2       1.0000 0.34930  0.87450  0.52872  Biso   1.000  C
  H1       1.0000 0.67300  0.07600  0.51420  Biso   1.000  H
  H2       1.0000 0.32700  0.92400  0.48580  Biso   1.000  H
  N9       1.0000 0.68970  0.68740  0.33291  Biso   1.000  N
  N10      1.0000 0.31030  0.31260  0.66709  Biso   1.000  N
  N11      1.0000 0.52060  0.74100  0.32204  Biso   1.000  N
  N12      1.0000 0.47940  0.25900  0.67796  Biso   1.000  N
  N13      1.0000 0.43290  0.70970  0.37188  Biso   1.000  N
  N14      1.0000 0.56710  0.29030  0.62812  Biso   1.000  N
  N15      1.0000 0.54980  0.62900  0.41885  Biso   1.000  N
  N16      1.0000 0.45020  0.37100  0.58115  Biso   1.000  N
  C3       1.0000 0.70300  0.61700  0.39425  Biso   1.000  C
  C4       1.0000 0.29700  0.38300  0.60575  Biso   1.000  C
  H3       1.0000 0.79700  0.57300  0.41560  Biso   1.000  H
  H4       1.0000 0.20300  0.42700  0.58440  Biso   1.000  H
  N17      1.0000 0.82090  0.45310  0.08933  Biso   1.000  N
  N18      1.0000 0.17910  0.54690  0.91067  Biso   1.000  N
  N19      1.0000 0.88800  0.32810  0.13744  Biso   1.000  N
  N20      1.0000 0.11200  0.67190  0.86256  Biso   1.000  N
  N21      1.0000 0.95340  0.17630  0.11859  Biso   1.000  N
  N22      1.0000 0.04660  0.82370  0.88141  Biso   1.000  N
  N23      1.0000 0.92890  0.19980  0.05417  Biso   1.000  N
  N24      1.0000 0.07110  0.80020  0.94583  Biso   1.000  N
  C5       1.0000 0.84880  0.36880  0.03741  Biso   1.000  C
  C6       1.0000 0.15120  0.63120  0.96259  Biso   1.000  C
  H5       1.0000 0.81600  0.42400  0.99610  Biso   1.000  H
  H6       1.0000 0.18400  0.57600  0.00390  Biso   1.000  H
  N25      1.0000 0.83980  0.79630  0.16895  Biso   1.000  N
  N26      1.0000 0.16020  0.20370  0.83105  Biso   1.000  N
  N27      1.0000 0.01080  0.73950  0.17547  Biso   1.000  N
  N28      1.0000 0.98920  0.26050  0.82453  Biso   1.000  N
  N29      1.0000 0.09030  0.77460  0.12365  Biso   1.000  N
  N30      1.0000 0.90970  0.22540  0.87635  Biso   1.000  N
  N31      1.0000 0.96480  0.86080  0.07991  Biso   1.000  N
  N32      1.0000 0.03520  0.13920  0.92009  Biso   1.000  N
  C7       1.0000 0.81520  0.87190  0.10806  Biso   1.000  C
  C8       1.0000 0.18480  0.12810  0.89194  Biso   1.000  C
  H7       1.0000 0.71300  0.92600  0.09080  Biso   1.000  H
  H8       1.0000 0.28700  0.07400  0.90920  Biso   1.000  H
  C9       1.0000 0.64140  0.11420  0.30196  Biso   1.000  C
  C10      1.0000 0.35860  0.88580  0.69804  Biso   1.000  C
  H9       1.0000 0.52900  0.18300  0.28340  Biso   1.000  H
  H10      1.0000 0.47100  0.81700  0.71660  Biso   1.000  H
  H11      1.0000 0.66100  0.99300  0.30580  Biso   1.000  H
  H12      1.0000 0.33900  0.00700  0.69420  Biso   1.000  H
  C11      1.0000 0.78580  0.14340  0.26388  Biso   1.000  C
  C12      1.0000 0.21420  0.85660  0.73612  Biso   1.000  C
  H13      1.0000 0.88800  0.08500  0.28530  Biso   1.000  H
  H14      1.0000 0.11200  0.91500  0.71470  Biso   1.000  H
  H15      1.0000 0.80100  0.09000  0.22970  Biso   1.000  H
  H16      1.0000 0.19900  0.91000  0.77030  Biso   1.000  H
  C13      1.0000 0.75050  0.33040  0.24721  Biso   1.000  C
  C14      1.0000 0.24950  0.66960  0.75279  Biso   1.000  C
  H17      1.0000 0.64700  0.39400  0.22560  Biso   1.000  H
  H18      1.0000 0.35300  0.60600  0.77440  Biso   1.000  H
  H19      1.0000 0.74700  0.37600  0.28790  Biso   1.000  H
  H20      1.0000 0.25300  0.62400  0.71210  Biso   1.000  H
  C15      1.0000 0.89100  0.35920  0.20677  Biso   1.000  C
  C16      1.0000 0.10900  0.64080  0.79323  Biso   1.000  C
  H21      1.0000 0.88300  0.46500  0.20580  Biso   1.000  H
  H22      1.0000 0.11700  0.53500  0.79420  Biso   1.000  H
  H23      1.0000 0.01400  0.27200  0.22380  Biso   1.000  H
  H24      1.0000 0.98600  0.72800  0.77620  Biso   1.000  H
  C17      1.0000 0.43940  0.83220  0.25855  Biso   1.000  C
  C18      1.0000 0.56060  0.16780  0.74145  Biso   1.000  C
  H25      1.0000 0.51000  0.78900  0.22780  Biso   1.000  H
  H26      1.0000 0.49000  0.21100  0.77220  Biso   1.000  H
  H27      1.0000 0.42500  0.95400  0.25770  Biso   1.000  H
  H28      1.0000 0.57500  0.04600  0.74230  Biso   1.000  H
  C19      1.0000 0.26580  0.82700  0.24914  Biso   1.000  C
  C20      1.0000 0.73420  0.17300  0.75086  Biso   1.000  C
  H29      1.0000 0.22200  0.89900  0.20770  Biso   1.000  H
  H30      1.0000 0.77800  0.10100  0.79230  Biso   1.000  H
  H31      1.0000 0.19300  0.87600  0.28260  Biso   1.000  H
  H32      1.0000 0.80700  0.12400  0.71740  Biso   1.000  H
  C21      1.0000 0.27570  0.64960  0.24272  Biso   1.000  C
  C22      1.0000 0.72430  0.35040  0.75728  Biso   1.000  C
  H33      1.0000 0.34800  0.59800  0.20900  Biso   1.000  H
  H34      1.0000 0.65200  0.40200  0.79100  Biso   1.000  H
  H35      1.0000 0.32900  0.58100  0.27980  Biso   1.000  H
  H36      1.0000 0.67100  0.41900  0.72020  Biso   1.000  H
  C23      1.0000 0.10270  0.64260  0.23652  Biso   1.000  C
  C24      1.0000 0.89730  0.35740  0.76348  Biso   1.000  C
  H37      1.0000 0.10900  0.52600  0.23910  Biso   1.000  H
  H38      1.0000 0.89100  0.47400  0.76090  Biso   1.000  H
  H39      1.0000 0.02900  0.69000  0.27240  Biso   1.000  H
  H40      1.0000 0.97100  0.31000  0.72760  Biso   1.000  H
  C25      1.0000 0.08140  0.72000  0.44180  Biso   1.000  C
  C26      1.0000 0.91860  0.28000  0.55820  Biso   1.000  C
  H41      1.0000 0.97700  0.72000  0.45250  Biso   1.000  H
  H42      1.0000 0.02300  0.28000  0.54750  Biso   1.000  H
  H43      1.0000 0.08900  0.73900  0.39700  Biso   1.000  H
  H44      1.0000 0.91100  0.26100  0.60300  Biso   1.000  H
  H45      1.0000 0.09500  0.81400  0.46300  Biso   1.000  H
  H46      1.0000 0.90500  0.18600  0.53700  Biso   1.000  H
  O1       1.0000 0.22120  0.56370  0.46476  Biso   1.000  O
  O2       1.0000 0.77880  0.43630  0.53524  Biso   1.000  O
  H47      1.0000 0.20800  0.50000  0.45460  Biso   1.000  H
  H48      1.0000 0.79200  0.50000  0.54540  Biso   1.000  H
  C27      1.0000 0.56710  0.22900  0.95790  Biso   1.000  C
  C28      1.0000 0.43290  0.77100  0.04210  Biso   1.000  C
  H49      1.0000 0.46400  0.21700  0.96470  Biso   1.000  H
  H50      1.0000 0.53600  0.78300  0.03530  Biso   1.000  H
  H51      1.0000 0.56900  0.27200  0.91400  Biso   1.000  H
  H52      1.0000 0.43100  0.72800  0.08600  Biso   1.000  H
  H53      1.0000 0.57900  0.30000  0.98980  Biso   1.000  H
  H54      1.0000 0.42100  0.70000  0.01020  Biso   1.000  H
  O3       1.0000 0.71220  0.06840  0.97200  Biso   1.000  O
  O4       1.0000 0.28780  0.93160  0.02800  Biso   1.000  O
  H55      1.0000 0.70400  0.01000  0.95270  Biso   1.000  H
  H56      1.0000 0.29600  0.99000  0.04730  Biso   1.000  H
  Cl1      1.0000 0.36673  0.25070  0.12947  Biso   1.000  Cl
  Cl2      1.0000 0.63327  0.74930  0.87053  Biso   1.000  Cl
  O5       1.0000 0.51390  0.29190  0.11991  Biso   1.000  O
  O6       1.0000 0.48610  0.70810  0.88009  Biso   1.000  O
  O7       1.0000 0.22610  0.36370  0.08850  Biso   1.000  O
  O8       1.0000 0.77390  0.63630  0.91150  Biso   1.000  O
  O9       1.0000 0.41260  0.07940  0.11469  Biso   1.000  O
  O10      1.0000 0.58740  0.92060  0.88531  Biso   1.000  O
  O11      1.0000 0.31480  0.25730  0.19697  Biso   1.000  O
  O12      1.0000 0.68520  0.74270  0.80303  Biso   1.000  O
  Cl3      1.0000 0.14671  0.23192  0.38197  Biso   1.000  Cl
  Cl4      1.0000 0.85329  0.76808  0.61803  Biso   1.000  Cl
  O13      1.0000 0.00350  0.18930  0.39831  Biso   1.000  O
  O14      1.0000 0.99650  0.81070  0.60169  Biso   1.000  O
  O15      1.0000 0.21170  0.25100  0.44400  Biso   1.000  O
  O16      1.0000 0.78830  0.74900  0.55600  Biso   1.000  O
  O17      1.0000 0.09490  0.37970  0.34050  Biso   1.000  O
  O18      1.0000 0.90510  0.62030  0.65950  Biso   1.000  O
  O19      1.0000 0.28650  0.09380  0.35600  Biso   1.000  O
  O20      1.0000 0.71350  0.90620  0.64400  Biso   1.000  O
  O21      1.0000 0.27520  0.17860  0.43050  Biso   1.000  O
  O22      1.0000 0.72480  0.82140  0.56950  Biso   1.000  O
  O23      1.0000 0.09440  0.42410  0.36830  Biso   1.000  O
  O24      1.0000 0.90560  0.57590  0.63170  Biso   1.000  O
  O25      1.0000 0.21740  0.16700  0.32160  Biso   1.000  O
  O26      1.0000 0.78260  0.83300  0.67840  Biso   1.000  O
