data_image0
_cell_length_a       10.4574
_cell_length_b       11.4294
_cell_length_c       14.5785
_cell_angle_alpha    90
_cell_angle_beta     104.217
_cell_angle_gamma    90

_symmetry_space_group_name_H-M    "P 1"
_symmetry_int_tables_number       1

loop_
  _symmetry_equiv_pos_as_xyz
  'x, y, z'

loop_
  _atom_site_label
  _atom_site_occupancy
  _atom_site_fract_x
  _atom_site_fract_y
  _atom_site_fract_z
  _atom_site_thermal_displace_type
  _atom_site_B_iso_or_equiv
  _atom_site_type_symbol
  Cu1      1.0000 0.00000  0.50000  0.00000  Biso   1.000  Cu
  Cu2      1.0000 0.50000  0.00000  0.50000  Biso   1.000  Cu
  N1       1.0000 0.96273  0.56182  0.30617  Biso   1.000  N
  N2       1.0000 0.46273  0.93818  0.80617  Biso   1.000  N
  N3       1.0000 0.03727  0.43818  0.69383  Biso   1.000  N
  N4       1.0000 0.53727  0.06182  0.19383  Biso   1.000  N
  N5       1.0000 0.86201  0.49261  0.26739  Biso   1.000  N
  N6       1.0000 0.36201  0.00739  0.76739  Biso   1.000  N
  N7       1.0000 0.13799  0.50739  0.73261  Biso   1.000  N
  N8       1.0000 0.63799  0.99261  0.23261  Biso   1.000  N
  N9       1.0000 0.86108  0.45714  0.18161  Biso   1.000  N
  N10      1.0000 0.36108  0.04286  0.68161  Biso   1.000  N
  N11      1.0000 0.13892  0.54286  0.81839  Biso   1.000  N
  N12      1.0000 0.63892  0.95714  0.31839  Biso   1.000  N
  N13      1.0000 0.96617  0.50486  0.16101  Biso   1.000  N
  N14      1.0000 0.46617  0.99514  0.66101  Biso   1.000  N
  N15      1.0000 0.03383  0.49514  0.83899  Biso   1.000  N
  N16      1.0000 0.53383  0.00486  0.33899  Biso   1.000  N
  C1       1.0000 0.02595  0.56796  0.23774  Biso   1.000  C
  C2       1.0000 0.52595  0.93204  0.73774  Biso   1.000  C
  C3       1.0000 0.97405  0.43204  0.76226  Biso   1.000  C
  C4       1.0000 0.47405  0.06796  0.26226  Biso   1.000  C
  N17      1.0000 0.25153  0.78927  0.01988  Biso   1.000  N
  N18      1.0000 0.75153  0.71073  0.51988  Biso   1.000  N
  N19      1.0000 0.74847  0.21073  0.98012  Biso   1.000  N
  N20      1.0000 0.24847  0.28927  0.48012  Biso   1.000  N
  N21      1.0000 0.15861  0.82084  0.06322  Biso   1.000  N
  N22      1.0000 0.65861  0.67916  0.56322  Biso   1.000  N
  N23      1.0000 0.84139  0.17916  0.93678  Biso   1.000  N
  N24      1.0000 0.34139  0.32084  0.43678  Biso   1.000  N
  N25      1.0000 0.07180  0.73961  0.06678  Biso   1.000  N
  N26      1.0000 0.57180  0.76039  0.56678  Biso   1.000  N
  N27      1.0000 0.92820  0.26039  0.93322  Biso   1.000  N
  N28      1.0000 0.42820  0.23961  0.43322  Biso   1.000  N
  N29      1.0000 0.10908  0.64741  0.02404  Biso   1.000  N
  N30      1.0000 0.60908  0.85259  0.52404  Biso   1.000  N
  N31      1.0000 0.89092  0.35259  0.97596  Biso   1.000  N
  N32      1.0000 0.39092  0.14741  0.47596  Biso   1.000  N
  C5       1.0000 0.21831  0.67971  0.99725  Biso   1.000  C
  C6       1.0000 0.71831  0.82029  0.49725  Biso   1.000  C
  C7       1.0000 0.78169  0.32029  0.00275  Biso   1.000  C
  C8       1.0000 0.28169  0.17971  0.50275  Biso   1.000  C
  N33      1.0000 0.80584  0.22858  0.62473  Biso   1.000  N
  N34      1.0000 0.30584  0.27142  0.12473  Biso   1.000  N
  N35      1.0000 0.19416  0.77142  0.37527  Biso   1.000  N
  N36      1.0000 0.69416  0.72858  0.87527  Biso   1.000  N
  N37      1.0000 0.83527  0.19094  0.54574  Biso   1.000  N
  N38      1.0000 0.33527  0.30906  0.04574  Biso   1.000  N
  N39      1.0000 0.16473  0.80906  0.45426  Biso   1.000  N
  N40      1.0000 0.66473  0.69094  0.95426  Biso   1.000  N
  N41      1.0000 0.75282  0.11348  0.49803  Biso   1.000  N
  N42      1.0000 0.25282  0.38652  0.99803  Biso   1.000  N
  N43      1.0000 0.24718  0.88652  0.50197  Biso   1.000  N
  N44      1.0000 0.74718  0.61348  0.00197  Biso   1.000  N
  N45      1.0000 0.66349  0.09804  0.54781  Biso   1.000  N
  N46      1.0000 0.16349  0.40196  0.04781  Biso   1.000  N
  N47      1.0000 0.33651  0.90196  0.45219  Biso   1.000  N
  N48      1.0000 0.83651  0.59804  0.95219  Biso   1.000  N
  C9       1.0000 0.69760  0.16815  0.62403  Biso   1.000  C
  C10      1.0000 0.19760  0.33185  0.12403  Biso   1.000  C
  C11      1.0000 0.30240  0.83185  0.37597  Biso   1.000  C
  C12      1.0000 0.80240  0.66815  0.87597  Biso   1.000  C
  C13      1.0000 0.75912  0.45667  0.31512  Biso   1.000  C
  C14      1.0000 0.25912  0.04333  0.81512  Biso   1.000  C
  C15      1.0000 0.24088  0.54333  0.68488  Biso   1.000  C
  C16      1.0000 0.74088  0.95667  0.18488  Biso   1.000  C
  C17      1.0000 0.79244  0.34129  0.36852  Biso   1.000  C
  C18      1.0000 0.29244  0.15871  0.86852  Biso   1.000  C
  C19      1.0000 0.20756  0.65871  0.63148  Biso   1.000  C
  C20      1.0000 0.70756  0.84129  0.13148  Biso   1.000  C
  C21      1.0000 0.14777  0.94046  0.09775  Biso   1.000  C
  C22      1.0000 0.64777  0.55954  0.59775  Biso   1.000  C
  C23      1.0000 0.85223  0.05954  0.90225  Biso   1.000  C
  C24      1.0000 0.35223  0.44046  0.40225  Biso   1.000  C
  C25      1.0000 0.07222  0.01775  0.01788  Biso   1.000  C
  C26      1.0000 0.57222  0.48225  0.51788  Biso   1.000  C
  C27      1.0000 0.92778  0.98225  0.98212  Biso   1.000  C
  C28      1.0000 0.42778  0.51775  0.48212  Biso   1.000  C
  C29      1.0000 0.94477  0.23904  0.50987  Biso   1.000  C
  C30      1.0000 0.44477  0.26096  0.00987  Biso   1.000  C
  C31      1.0000 0.05523  0.76096  0.49013  Biso   1.000  C
  C32      1.0000 0.55523  0.73904  0.99013  Biso   1.000  C
  C33      1.0000 0.90591  0.35348  0.45694  Biso   1.000  C
  C34      1.0000 0.40591  0.14652  0.95694  Biso   1.000  C
  C35      1.0000 0.09409  0.64652  0.54306  Biso   1.000  C
  C36      1.0000 0.59409  0.85348  0.04306  Biso   1.000  C
  B1       1.0000 0.55448  0.35025  0.77108  Biso   1.000  B
  B2       1.0000 0.05448  0.14975  0.27108  Biso   1.000  B
  B3       1.0000 0.44552  0.64975  0.22892  Biso   1.000  B
  B4       1.0000 0.94552  0.85025  0.72892  Biso   1.000  B
  F1       1.0000 0.47597  0.36715  0.68023  Biso   1.000  F
  F2       1.0000 0.97597  0.13285  0.18023  Biso   1.000  F
  F3       1.0000 0.52403  0.63285  0.31977  Biso   1.000  F
  F4       1.0000 0.02403  0.86715  0.81977  Biso   1.000  F
  F5       1.0000 0.55655  0.23124  0.79317  Biso   1.000  F
  F6       1.0000 0.05655  0.26876  0.29317  Biso   1.000  F
  F7       1.0000 0.44345  0.76876  0.20683  Biso   1.000  F
  F8       1.0000 0.94345  0.73124  0.70683  Biso   1.000  F
  F9       1.0000 0.68247  0.38683  0.77450  Biso   1.000  F
  F10      1.0000 0.18247  0.11317  0.27450  Biso   1.000  F
  F11      1.0000 0.31753  0.61317  0.22550  Biso   1.000  F
  F12      1.0000 0.81753  0.88683  0.72550  Biso   1.000  F
  F13      1.0000 0.50502  0.41437  0.83591  Biso   1.000  F
  F14      1.0000 0.00502  0.08563  0.33591  Biso   1.000  F
  F15      1.0000 0.49498  0.58563  0.16409  Biso   1.000  F
  F16      1.0000 0.99498  0.91437  0.66409  Biso   1.000  F
  H1       1.0000 0.10300  0.61030  0.24530  Biso   1.000  H
  H2       1.0000 0.60300  0.88970  0.74530  Biso   1.000  H
  H3       1.0000 0.89700  0.38970  0.75470  Biso   1.000  H
  H4       1.0000 0.39700  0.11030  0.25470  Biso   1.000  H
  H5       1.0000 0.26120  0.63030  0.97070  Biso   1.000  H
  H6       1.0000 0.76120  0.86970  0.47070  Biso   1.000  H
  H7       1.0000 0.73880  0.36970  0.02930  Biso   1.000  H
  H8       1.0000 0.23880  0.13030  0.52930  Biso   1.000  H
  H9       1.0000 0.65000  0.17450  0.67240  Biso   1.000  H
  H10      1.0000 0.15000  0.32550  0.17240  Biso   1.000  H
  H11      1.0000 0.35000  0.82550  0.32760  Biso   1.000  H
  H12      1.0000 0.85000  0.67450  0.82760  Biso   1.000  H
  H13      1.0000 0.75400  0.52270  0.35720  Biso   1.000  H
  H14      1.0000 0.25400  0.97730  0.85720  Biso   1.000  H
  H15      1.0000 0.24600  0.47730  0.64280  Biso   1.000  H
  H16      1.0000 0.74600  0.02270  0.14280  Biso   1.000  H
  H17      1.0000 0.68460  0.45000  0.26650  Biso   1.000  H
  H18      1.0000 0.18460  0.05000  0.76650  Biso   1.000  H
  H19      1.0000 0.31540  0.55000  0.73350  Biso   1.000  H
  H20      1.0000 0.81540  0.95000  0.23350  Biso   1.000  H
  H21      1.0000 0.71090  0.31610  0.38650  Biso   1.000  H
  H22      1.0000 0.21090  0.18390  0.88650  Biso   1.000  H
  H23      1.0000 0.28910  0.68390  0.61350  Biso   1.000  H
  H24      1.0000 0.78910  0.81610  0.11350  Biso   1.000  H
  H25      1.0000 0.81250  0.28140  0.32610  Biso   1.000  H
  H26      1.0000 0.31250  0.21860  0.82610  Biso   1.000  H
  H27      1.0000 0.18750  0.71860  0.67390  Biso   1.000  H
  H28      1.0000 0.68750  0.78140  0.17390  Biso   1.000  H
  H29      1.0000 0.10630  0.93230  0.14670  Biso   1.000  H
  H30      1.0000 0.60630  0.56770  0.64670  Biso   1.000  H
  H31      1.0000 0.89370  0.06770  0.85330  Biso   1.000  H
  H32      1.0000 0.39370  0.43230  0.35330  Biso   1.000  H
  H33      1.0000 0.23900  0.96850  0.12360  Biso   1.000  H
  H34      1.0000 0.73900  0.53150  0.62360  Biso   1.000  H
  H35      1.0000 0.76100  0.03150  0.87640  Biso   1.000  H
  H36      1.0000 0.26100  0.46850  0.37640  Biso   1.000  H
  H37      1.0000 0.11850  0.01600  0.96550  Biso   1.000  H
  H38      1.0000 0.61850  0.48400  0.46550  Biso   1.000  H
  H39      1.0000 0.88150  0.98400  0.03450  Biso   1.000  H
  H40      1.0000 0.38150  0.51600  0.53450  Biso   1.000  H
  H41      1.0000 0.08220  0.09720  0.04580  Biso   1.000  H
  H42      1.0000 0.58220  0.40280  0.54580  Biso   1.000  H
  H43      1.0000 0.91780  0.90280  0.95420  Biso   1.000  H
  H44      1.0000 0.41780  0.59720  0.45420  Biso   1.000  H
  H45      1.0000 0.01360  0.25040  0.56220  Biso   1.000  H
  H46      1.0000 0.51360  0.24960  0.06220  Biso   1.000  H
  H47      1.0000 0.98640  0.74960  0.43780  Biso   1.000  H
  H48      1.0000 0.48640  0.75040  0.93780  Biso   1.000  H
  H49      1.0000 0.96700  0.18020  0.46890  Biso   1.000  H
  H50      1.0000 0.46700  0.31980  0.96890  Biso   1.000  H
  H51      1.0000 0.03300  0.81980  0.53110  Biso   1.000  H
  H52      1.0000 0.53300  0.68020  0.03110  Biso   1.000  H
  H53      1.0000 0.98600  0.38060  0.43960  Biso   1.000  H
  H54      1.0000 0.48600  0.11940  0.93960  Biso   1.000  H
  H55      1.0000 0.01400  0.61940  0.56040  Biso   1.000  H
  H56      1.0000 0.51400  0.88060  0.06040  Biso   1.000  H
  H57      1.0000 0.88320  0.41430  0.50060  Biso   1.000  H
  H58      1.0000 0.38320  0.08570  0.00060  Biso   1.000  H
  H59      1.0000 0.11680  0.58570  0.49940  Biso   1.000  H
  H60      1.0000 0.61680  0.91430  0.99940  Biso   1.000  H
