data_image0
_cell_length_a       12.2091
_cell_length_b       15.7787
_cell_length_c       20.281
_cell_angle_alpha    90
_cell_angle_beta     90
_cell_angle_gamma    90

_symmetry_space_group_name_H-M    "P 1"
_symmetry_int_tables_number       1

loop_
  _symmetry_equiv_pos_as_xyz
  'x, y, z'

loop_
  _atom_site_label
  _atom_site_occupancy
  _atom_site_fract_x
  _atom_site_fract_y
  _atom_site_fract_z
  _atom_site_thermal_displace_type
  _atom_site_B_iso_or_equiv
  _atom_site_type_symbol
  Cu1      1.0000 0.00000  0.00000  0.50000  Biso   1.000  Cu
  Cu2      1.0000 0.50000  0.00000  0.00000  Biso   1.000  Cu
  Cu3      1.0000 0.00000  0.50000  0.00000  Biso   1.000  Cu
  Cu4      1.0000 0.50000  0.50000  0.50000  Biso   1.000  Cu
  N1       1.0000 0.80330  0.16480  0.35430  Biso   1.000  N
  N2       1.0000 0.30330  0.16480  0.14570  Biso   1.000  N
  N3       1.0000 0.80330  0.33520  0.85430  Biso   1.000  N
  N4       1.0000 0.69670  0.66480  0.35430  Biso   1.000  N
  N5       1.0000 0.19670  0.83520  0.64570  Biso   1.000  N
  N6       1.0000 0.69670  0.83520  0.85430  Biso   1.000  N
  N7       1.0000 0.19670  0.66480  0.14570  Biso   1.000  N
  N8       1.0000 0.30330  0.33520  0.64570  Biso   1.000  N
  N9       1.0000 0.87350  0.12194  0.31637  Biso   1.000  N
  N10      1.0000 0.37350  0.12194  0.18363  Biso   1.000  N
  N11      1.0000 0.87350  0.37806  0.81637  Biso   1.000  N
  N12      1.0000 0.62650  0.62194  0.31637  Biso   1.000  N
  N13      1.0000 0.12650  0.87806  0.68363  Biso   1.000  N
  N14      1.0000 0.62650  0.87806  0.81637  Biso   1.000  N
  N15      1.0000 0.12650  0.62194  0.18363  Biso   1.000  N
  N16      1.0000 0.37350  0.37806  0.68363  Biso   1.000  N
  N17      1.0000 0.94530  0.07534  0.34882  Biso   1.000  N
  N18      1.0000 0.44530  0.07534  0.15118  Biso   1.000  N
  N19      1.0000 0.94530  0.42466  0.84882  Biso   1.000  N
  N20      1.0000 0.55470  0.57534  0.34882  Biso   1.000  N
  N21      1.0000 0.05470  0.92466  0.65118  Biso   1.000  N
  N22      1.0000 0.55470  0.92466  0.84882  Biso   1.000  N
  N23      1.0000 0.05470  0.57534  0.15118  Biso   1.000  N
  N24      1.0000 0.44530  0.42466  0.65118  Biso   1.000  N
  N25      1.0000 0.92140  0.08751  0.41262  Biso   1.000  N
  N26      1.0000 0.42140  0.08751  0.08738  Biso   1.000  N
  N27      1.0000 0.92140  0.41249  0.91262  Biso   1.000  N
  N28      1.0000 0.57860  0.58751  0.41262  Biso   1.000  N
  N29      1.0000 0.07860  0.91249  0.58738  Biso   1.000  N
  N30      1.0000 0.57860  0.91249  0.91262  Biso   1.000  N
  N31      1.0000 0.07860  0.58751  0.08738  Biso   1.000  N
  N32      1.0000 0.42140  0.41249  0.58738  Biso   1.000  N
  C1       1.0000 0.83600  0.14160  0.41304  Biso   1.000  C
  C2       1.0000 0.33600  0.14160  0.08696  Biso   1.000  C
  C3       1.0000 0.83600  0.35840  0.91304  Biso   1.000  C
  C4       1.0000 0.66400  0.64160  0.41304  Biso   1.000  C
  C5       1.0000 0.16400  0.85840  0.58696  Biso   1.000  C
  C6       1.0000 0.66400  0.85840  0.91304  Biso   1.000  C
  C7       1.0000 0.16400  0.64160  0.08696  Biso   1.000  C
  C8       1.0000 0.33600  0.35840  0.58696  Biso   1.000  C
  N33      1.0000 0.29150  0.03252  0.39463  Biso   1.000  N
  N34      1.0000 0.79150  0.03252  0.10537  Biso   1.000  N
  N35      1.0000 0.29150  0.46748  0.89463  Biso   1.000  N
  N36      1.0000 0.20850  0.53252  0.39463  Biso   1.000  N
  N37      1.0000 0.70850  0.96748  0.60537  Biso   1.000  N
  N38      1.0000 0.20850  0.96748  0.89463  Biso   1.000  N
  N39      1.0000 0.70850  0.53252  0.10537  Biso   1.000  N
  N40      1.0000 0.79150  0.46748  0.60537  Biso   1.000  N
  N41      1.0000 0.31120  0.06182  0.45513  Biso   1.000  N
  N42      1.0000 0.81120  0.06182  0.04487  Biso   1.000  N
  N43      1.0000 0.31120  0.43818  0.95513  Biso   1.000  N
  N44      1.0000 0.18880  0.56182  0.45513  Biso   1.000  N
  N45      1.0000 0.68880  0.93818  0.54487  Biso   1.000  N
  N46      1.0000 0.18880  0.93818  0.95513  Biso   1.000  N
  N47      1.0000 0.68880  0.56182  0.04487  Biso   1.000  N
  N48      1.0000 0.81120  0.43818  0.54487  Biso   1.000  N
  N49      1.0000 0.22920  0.05423  0.49629  Biso   1.000  N
  N50      1.0000 0.72920  0.05423  0.00371  Biso   1.000  N
  N51      1.0000 0.22920  0.44577  0.99629  Biso   1.000  N
  N52      1.0000 0.27080  0.55423  0.49629  Biso   1.000  N
  N53      1.0000 0.77080  0.94577  0.50371  Biso   1.000  N
  N54      1.0000 0.27080  0.94577  0.99629  Biso   1.000  N
  N55      1.0000 0.77080  0.55423  0.00371  Biso   1.000  N
  N56      1.0000 0.72920  0.44577  0.50371  Biso   1.000  N
  N57      1.0000 0.14940  0.01829  0.46123  Biso   1.000  N
  N58      1.0000 0.64940  0.01829  0.03877  Biso   1.000  N
  N59      1.0000 0.14940  0.48171  0.96123  Biso   1.000  N
  N60      1.0000 0.35060  0.51829  0.46123  Biso   1.000  N
  N61      1.0000 0.85060  0.98171  0.53877  Biso   1.000  N
  N62      1.0000 0.35060  0.98171  0.96123  Biso   1.000  N
  N63      1.0000 0.85060  0.51829  0.03877  Biso   1.000  N
  N64      1.0000 0.64940  0.48171  0.53877  Biso   1.000  N
  C9       1.0000 0.18970  0.00550  0.40041  Biso   1.000  C
  C10      1.0000 0.68970  0.00550  0.09959  Biso   1.000  C
  C11      1.0000 0.18970  0.49450  0.90041  Biso   1.000  C
  C12      1.0000 0.31030  0.50550  0.40041  Biso   1.000  C
  C13      1.0000 0.81030  0.99450  0.59959  Biso   1.000  C
  C14      1.0000 0.31030  0.99450  0.90041  Biso   1.000  C
  C15      1.0000 0.81030  0.50550  0.09959  Biso   1.000  C
  C16      1.0000 0.68970  0.49450  0.59959  Biso   1.000  C
  N65      1.0000 0.07780  0.26183  0.07924  Biso   1.000  N
  N66      1.0000 0.57780  0.26183  0.42076  Biso   1.000  N
  N67      1.0000 0.07780  0.23817  0.57924  Biso   1.000  N
  N68      1.0000 0.42220  0.76183  0.07924  Biso   1.000  N
  N69      1.0000 0.92220  0.73817  0.92076  Biso   1.000  N
  N70      1.0000 0.42220  0.73817  0.57924  Biso   1.000  N
  N71      1.0000 0.92220  0.76183  0.42076  Biso   1.000  N
  N72      1.0000 0.57780  0.23817  0.92076  Biso   1.000  N
  N73      1.0000 0.06460  0.31203  0.13158  Biso   1.000  N
  N74      1.0000 0.56460  0.31203  0.36842  Biso   1.000  N
  N75      1.0000 0.06460  0.18797  0.63158  Biso   1.000  N
  N76      1.0000 0.43540  0.81203  0.13158  Biso   1.000  N
  N77      1.0000 0.93540  0.68797  0.86842  Biso   1.000  N
  N78      1.0000 0.43540  0.68797  0.63158  Biso   1.000  N
  N79      1.0000 0.93540  0.81203  0.36842  Biso   1.000  N
  N80      1.0000 0.56460  0.18797  0.86842  Biso   1.000  N
  N81      1.0000 0.03160  0.38924  0.11797  Biso   1.000  N
  N82      1.0000 0.53160  0.38924  0.38203  Biso   1.000  N
  N83      1.0000 0.03160  0.11076  0.61797  Biso   1.000  N
  N84      1.0000 0.46840  0.88924  0.11797  Biso   1.000  N
  N85      1.0000 0.96840  0.61076  0.88203  Biso   1.000  N
  N86      1.0000 0.46840  0.61076  0.61797  Biso   1.000  N
  N87      1.0000 0.96840  0.88924  0.38203  Biso   1.000  N
  N88      1.0000 0.53160  0.11076  0.88203  Biso   1.000  N
  N89      1.0000 0.02080  0.39082  0.05278  Biso   1.000  N
  N90      1.0000 0.52080  0.39082  0.44722  Biso   1.000  N
  N91      1.0000 0.02080  0.10918  0.55278  Biso   1.000  N
  N92      1.0000 0.47920  0.89082  0.05278  Biso   1.000  N
  N93      1.0000 0.97920  0.60918  0.94722  Biso   1.000  N
  N94      1.0000 0.47920  0.60918  0.55278  Biso   1.000  N
  N95      1.0000 0.97920  0.89082  0.44722  Biso   1.000  N
  N96      1.0000 0.52080  0.10918  0.94722  Biso   1.000  N
  C17      1.0000 0.04930  0.31370  0.03093  Biso   1.000  C
  C18      1.0000 0.54930  0.31370  0.46907  Biso   1.000  C
  C19      1.0000 0.04930  0.18630  0.53093  Biso   1.000  C
  C20      1.0000 0.45070  0.81370  0.03093  Biso   1.000  C
  C21      1.0000 0.95070  0.68630  0.96907  Biso   1.000  C
  C22      1.0000 0.45070  0.68630  0.53093  Biso   1.000  C
  C23      1.0000 0.95070  0.81370  0.46907  Biso   1.000  C
  C24      1.0000 0.54930  0.18630  0.96907  Biso   1.000  C
  C25      1.0000 0.86690  0.12390  0.24426  Biso   1.000  C
  C26      1.0000 0.36690  0.12390  0.25574  Biso   1.000  C
  C27      1.0000 0.86690  0.37610  0.74426  Biso   1.000  C
  C28      1.0000 0.63310  0.62390  0.24426  Biso   1.000  C
  C29      1.0000 0.13310  0.87610  0.75574  Biso   1.000  C
  C30      1.0000 0.63310  0.87610  0.74426  Biso   1.000  C
  C31      1.0000 0.13310  0.62390  0.25574  Biso   1.000  C
  C32      1.0000 0.36690  0.37610  0.75574  Biso   1.000  C
  C33      1.0000 0.91940  0.20360  0.21580  Biso   1.000  C
  C34      1.0000 0.41940  0.20360  0.28420  Biso   1.000  C
  C35      1.0000 0.91940  0.29640  0.71580  Biso   1.000  C
  C36      1.0000 0.58060  0.70360  0.21580  Biso   1.000  C
  C37      1.0000 0.08060  0.79640  0.78420  Biso   1.000  C
  C38      1.0000 0.58060  0.79640  0.71580  Biso   1.000  C
  C39      1.0000 0.08060  0.70360  0.28420  Biso   1.000  C
  C40      1.0000 0.41940  0.29640  0.78420  Biso   1.000  C
  C41      1.0000 0.50860  0.03470  0.47430  Biso   1.000  C
  C42      1.0000 0.00860  0.03470  0.02570  Biso   1.000  C
  C43      1.0000 0.50860  0.46530  0.97430  Biso   1.000  C
  C44      1.0000 0.99140  0.53470  0.47430  Biso   1.000  C
  C45      1.0000 0.49140  0.96530  0.52570  Biso   1.000  C
  C46      1.0000 0.99140  0.96530  0.97430  Biso   1.000  C
  C47      1.0000 0.49140  0.53470  0.02570  Biso   1.000  C
  C48      1.0000 0.00860  0.46530  0.52570  Biso   1.000  C
  C49      1.0000 0.41670  0.10000  0.47410  Biso   1.000  C
  C50      1.0000 0.91670  0.10000  0.02590  Biso   1.000  C
  C51      1.0000 0.41670  0.40000  0.97410  Biso   1.000  C
  C52      1.0000 0.08330  0.60000  0.47410  Biso   1.000  C
  C53      1.0000 0.58330  0.90000  0.52590  Biso   1.000  C
  C54      1.0000 0.08330  0.90000  0.97410  Biso   1.000  C
  C55      1.0000 0.58330  0.60000  0.02590  Biso   1.000  C
  C56      1.0000 0.91670  0.40000  0.52590  Biso   1.000  C
  C57      1.0000 0.09480  0.28660  0.19962  Biso   1.000  C
  C58      1.0000 0.59480  0.28660  0.30038  Biso   1.000  C
  C59      1.0000 0.09480  0.21340  0.69962  Biso   1.000  C
  C60      1.0000 0.40520  0.78660  0.19962  Biso   1.000  C
  C61      1.0000 0.90520  0.71340  0.80038  Biso   1.000  C
  C62      1.0000 0.40520  0.71340  0.69962  Biso   1.000  C
  C63      1.0000 0.90520  0.78660  0.30038  Biso   1.000  C
  C64      1.0000 0.59480  0.21340  0.80038  Biso   1.000  C
  C65      1.0000 0.04380  0.20240  0.21880  Biso   1.000  C
  C66      1.0000 0.54380  0.20240  0.28120  Biso   1.000  C
  C67      1.0000 0.04380  0.29760  0.71880  Biso   1.000  C
  C68      1.0000 0.45620  0.70240  0.21880  Biso   1.000  C
  C69      1.0000 0.95620  0.79760  0.78120  Biso   1.000  C
  C70      1.0000 0.45620  0.79760  0.71880  Biso   1.000  C
  C71      1.0000 0.95620  0.70240  0.28120  Biso   1.000  C
  C72      1.0000 0.54380  0.29760  0.78120  Biso   1.000  C
  O1       1.0000 0.49800  0.04090  0.69820  Biso   1.000  O
  O2       1.0000 0.99800  0.04090  0.80180  Biso   1.000  O
  O3       1.0000 0.49800  0.45910  0.19820  Biso   1.000  O
  O4       1.0000 0.00200  0.54090  0.69820  Biso   1.000  O
  O5       1.0000 0.50200  0.95910  0.30180  Biso   1.000  O
  O6       1.0000 0.00200  0.95910  0.19820  Biso   1.000  O
  O7       1.0000 0.50200  0.54090  0.80180  Biso   1.000  O
  O8       1.0000 0.99800  0.45910  0.30180  Biso   1.000  O
  H1       1.0000 0.50950  0.08320  0.67410  Biso   1.000  H
  H2       1.0000 0.00950  0.08320  0.82590  Biso   1.000  H
  H3       1.0000 0.50950  0.41680  0.17410  Biso   1.000  H
  H4       1.0000 0.99050  0.58320  0.67410  Biso   1.000  H
  H5       1.0000 0.49050  0.91680  0.32590  Biso   1.000  H
  H6       1.0000 0.99050  0.91680  0.17410  Biso   1.000  H
  H7       1.0000 0.49050  0.58320  0.82590  Biso   1.000  H
  H8       1.0000 0.00950  0.41680  0.32590  Biso   1.000  H
  C73      1.0000 0.38610  0.04590  0.72570  Biso   1.000  C
  C74      1.0000 0.88610  0.04590  0.77430  Biso   1.000  C
  C75      1.0000 0.38610  0.45410  0.22570  Biso   1.000  C
  C76      1.0000 0.11390  0.54590  0.72570  Biso   1.000  C
  C77      1.0000 0.61390  0.95410  0.27430  Biso   1.000  C
  C78      1.0000 0.11390  0.95410  0.22570  Biso   1.000  C
  C79      1.0000 0.61390  0.54590  0.77430  Biso   1.000  C
  C80      1.0000 0.88610  0.45410  0.27430  Biso   1.000  C
  H9       1.0000 0.37030  0.99330  0.75060  Biso   1.000  H
  H10      1.0000 0.87030  0.99330  0.74940  Biso   1.000  H
  H11      1.0000 0.37030  0.50670  0.25060  Biso   1.000  H
  H12      1.0000 0.12970  0.49330  0.75060  Biso   1.000  H
  H13      1.0000 0.62970  0.00670  0.24940  Biso   1.000  H
  H14      1.0000 0.12970  0.00670  0.25060  Biso   1.000  H
  H15      1.0000 0.62970  0.49330  0.74940  Biso   1.000  H
  H16      1.0000 0.87030  0.50670  0.24940  Biso   1.000  H
  H17      1.0000 0.38200  0.09400  0.75690  Biso   1.000  H
  H18      1.0000 0.88200  0.09400  0.74310  Biso   1.000  H
  H19      1.0000 0.38200  0.40600  0.25690  Biso   1.000  H
  H20      1.0000 0.11800  0.59400  0.75690  Biso   1.000  H
  H21      1.0000 0.61800  0.90600  0.24310  Biso   1.000  H
  H22      1.0000 0.11800  0.90600  0.25690  Biso   1.000  H
  H23      1.0000 0.61800  0.59400  0.74310  Biso   1.000  H
  H24      1.0000 0.88200  0.40600  0.24310  Biso   1.000  H
  C81      1.0000 0.30270  0.05700  0.67400  Biso   1.000  C
  C82      1.0000 0.80270  0.05700  0.82600  Biso   1.000  C
  C83      1.0000 0.30270  0.44300  0.17400  Biso   1.000  C
  C84      1.0000 0.19730  0.55700  0.67400  Biso   1.000  C
  C85      1.0000 0.69730  0.94300  0.32600  Biso   1.000  C
  C86      1.0000 0.19730  0.94300  0.17400  Biso   1.000  C
  C87      1.0000 0.69730  0.55700  0.82600  Biso   1.000  C
  C88      1.0000 0.80270  0.44300  0.32600  Biso   1.000  C
  H25      1.0000 0.23000  0.06070  0.69430  Biso   1.000  H
  H26      1.0000 0.73000  0.06070  0.80570  Biso   1.000  H
  H27      1.0000 0.23000  0.43930  0.19430  Biso   1.000  H
  H28      1.0000 0.27000  0.56070  0.69430  Biso   1.000  H
  H29      1.0000 0.77000  0.93930  0.30570  Biso   1.000  H
  H30      1.0000 0.27000  0.93930  0.19430  Biso   1.000  H
  H31      1.0000 0.77000  0.56070  0.80570  Biso   1.000  H
  H32      1.0000 0.73000  0.43930  0.30570  Biso   1.000  H
  H33      1.0000 0.30490  0.00850  0.64380  Biso   1.000  H
  H34      1.0000 0.80490  0.00850  0.85620  Biso   1.000  H
  H35      1.0000 0.30490  0.49150  0.14380  Biso   1.000  H
  H36      1.0000 0.19510  0.50850  0.64380  Biso   1.000  H
  H37      1.0000 0.69510  0.99150  0.35620  Biso   1.000  H
  H38      1.0000 0.19510  0.99150  0.14380  Biso   1.000  H
  H39      1.0000 0.69510  0.50850  0.85620  Biso   1.000  H
  H40      1.0000 0.80490  0.49150  0.35620  Biso   1.000  H
  H41      1.0000 0.31770  0.10920  0.64940  Biso   1.000  H
  H42      1.0000 0.81770  0.10920  0.85060  Biso   1.000  H
  H43      1.0000 0.31770  0.39080  0.14940  Biso   1.000  H
  H44      1.0000 0.18230  0.60920  0.64940  Biso   1.000  H
  H45      1.0000 0.68230  0.89080  0.35060  Biso   1.000  H
  H46      1.0000 0.18230  0.89080  0.14940  Biso   1.000  H
  H47      1.0000 0.68230  0.60920  0.85060  Biso   1.000  H
  H48      1.0000 0.81770  0.39080  0.35060  Biso   1.000  H
  O9       1.0000 0.49160  0.06030  0.68480  Biso   1.000  O
  O10      1.0000 0.99160  0.06030  0.81520  Biso   1.000  O
  O11      1.0000 0.49160  0.43970  0.18480  Biso   1.000  O
  O12      1.0000 0.00840  0.56030  0.68480  Biso   1.000  O
  O13      1.0000 0.50840  0.93970  0.31520  Biso   1.000  O
  O14      1.0000 0.00840  0.93970  0.18480  Biso   1.000  O
  O15      1.0000 0.50840  0.56030  0.81520  Biso   1.000  O
  O16      1.0000 0.99160  0.43970  0.31520  Biso   1.000  O
  H49      1.0000 0.53760  0.09070  0.66500  Biso   1.000  H
  H50      1.0000 0.03760  0.09070  0.83500  Biso   1.000  H
  H51      1.0000 0.53760  0.40930  0.16500  Biso   1.000  H
  H52      1.0000 0.96240  0.59070  0.66500  Biso   1.000  H
  H53      1.0000 0.46240  0.90930  0.33500  Biso   1.000  H
  H54      1.0000 0.96240  0.90930  0.16500  Biso   1.000  H
  H55      1.0000 0.46240  0.59070  0.83500  Biso   1.000  H
  H56      1.0000 0.03760  0.40930  0.33500  Biso   1.000  H
  C89      1.0000 0.38350  0.09250  0.67300  Biso   1.000  C
  C90      1.0000 0.88350  0.09250  0.82700  Biso   1.000  C
  C91      1.0000 0.38350  0.40750  0.17300  Biso   1.000  C
  C92      1.0000 0.11650  0.59250  0.67300  Biso   1.000  C
  C93      1.0000 0.61650  0.90750  0.32700  Biso   1.000  C
  C94      1.0000 0.11650  0.90750  0.17300  Biso   1.000  C
  C95      1.0000 0.61650  0.59250  0.82700  Biso   1.000  C
  C96      1.0000 0.88350  0.40750  0.32700  Biso   1.000  C
  H57      1.0000 0.37240  0.10100  0.62510  Biso   1.000  H
  H58      1.0000 0.87240  0.10100  0.87490  Biso   1.000  H
  H59      1.0000 0.37240  0.39900  0.12510  Biso   1.000  H
  H60      1.0000 0.12760  0.60100  0.62510  Biso   1.000  H
  H61      1.0000 0.62760  0.89900  0.37490  Biso   1.000  H
  H62      1.0000 0.12760  0.89900  0.12510  Biso   1.000  H
  H63      1.0000 0.62760  0.60100  0.87490  Biso   1.000  H
  H64      1.0000 0.87240  0.39900  0.37490  Biso   1.000  H
  H65      1.0000 0.37460  0.14790  0.69530  Biso   1.000  H
  H66      1.0000 0.87460  0.14790  0.80470  Biso   1.000  H
  H67      1.0000 0.37460  0.35210  0.19530  Biso   1.000  H
  H68      1.0000 0.12540  0.64790  0.69530  Biso   1.000  H
  H69      1.0000 0.62540  0.85210  0.30470  Biso   1.000  H
  H70      1.0000 0.12540  0.85210  0.19530  Biso   1.000  H
  H71      1.0000 0.62540  0.64790  0.80470  Biso   1.000  H
  H72      1.0000 0.87460  0.35210  0.30470  Biso   1.000  H
  C97      1.0000 0.30130  0.03170  0.69860  Biso   1.000  C
  C98      1.0000 0.80130  0.03170  0.80140  Biso   1.000  C
  C99      1.0000 0.30130  0.46830  0.19860  Biso   1.000  C
  C100     1.0000 0.19870  0.53170  0.69860  Biso   1.000  C
  C101     1.0000 0.69870  0.96830  0.30140  Biso   1.000  C
  C102     1.0000 0.19870  0.96830  0.19860  Biso   1.000  C
  C103     1.0000 0.69870  0.53170  0.80140  Biso   1.000  C
  C104     1.0000 0.80130  0.46830  0.30140  Biso   1.000  C
  H73      1.0000 0.22750  0.05420  0.69100  Biso   1.000  H
  H74      1.0000 0.72750  0.05420  0.80900  Biso   1.000  H
  H75      1.0000 0.22750  0.44580  0.19100  Biso   1.000  H
  H76      1.0000 0.27250  0.55420  0.69100  Biso   1.000  H
  H77      1.0000 0.77250  0.94580  0.30900  Biso   1.000  H
  H78      1.0000 0.27250  0.94580  0.19100  Biso   1.000  H
  H79      1.0000 0.77250  0.55420  0.80900  Biso   1.000  H
  H80      1.0000 0.72750  0.44580  0.30900  Biso   1.000  H
  H81      1.0000 0.31260  0.02340  0.74600  Biso   1.000  H
  H82      1.0000 0.81260  0.02340  0.75400  Biso   1.000  H
  H83      1.0000 0.31260  0.47660  0.24600  Biso   1.000  H
  H84      1.0000 0.18740  0.52340  0.74600  Biso   1.000  H
  H85      1.0000 0.68740  0.97660  0.25400  Biso   1.000  H
  H86      1.0000 0.18740  0.97660  0.24600  Biso   1.000  H
  H87      1.0000 0.68740  0.52340  0.75400  Biso   1.000  H
  H88      1.0000 0.81260  0.47660  0.25400  Biso   1.000  H
  H89      1.0000 0.30930  0.97740  0.67570  Biso   1.000  H
  H90      1.0000 0.80930  0.97740  0.82430  Biso   1.000  H
  H91      1.0000 0.30930  0.52260  0.17570  Biso   1.000  H
  H92      1.0000 0.19070  0.47740  0.67570  Biso   1.000  H
  H93      1.0000 0.69070  0.02260  0.32430  Biso   1.000  H
  H94      1.0000 0.19070  0.02260  0.17570  Biso   1.000  H
  H95      1.0000 0.69070  0.47740  0.82430  Biso   1.000  H
  H96      1.0000 0.80930  0.52260  0.32430  Biso   1.000  H
  H97      1.0000 0.81000  0.16000  0.44630  Biso   1.000  H
  H98      1.0000 0.31000  0.16000  0.05370  Biso   1.000  H
  H99      1.0000 0.81000  0.34000  0.94630  Biso   1.000  H
  H100     1.0000 0.69000  0.66000  0.44630  Biso   1.000  H
  H101     1.0000 0.19000  0.84000  0.55370  Biso   1.000  H
  H102     1.0000 0.69000  0.84000  0.94630  Biso   1.000  H
  H103     1.0000 0.19000  0.66000  0.05370  Biso   1.000  H
  H104     1.0000 0.31000  0.34000  0.55370  Biso   1.000  H
  H105     1.0000 0.14800  0.98040  0.36430  Biso   1.000  H
  H106     1.0000 0.64800  0.98040  0.13570  Biso   1.000  H
  H107     1.0000 0.14800  0.51960  0.86430  Biso   1.000  H
  H108     1.0000 0.35200  0.48040  0.36430  Biso   1.000  H
  H109     1.0000 0.85200  0.01960  0.63570  Biso   1.000  H
  H110     1.0000 0.35200  0.01960  0.86430  Biso   1.000  H
  H111     1.0000 0.85200  0.48040  0.13570  Biso   1.000  H
  H112     1.0000 0.64800  0.51960  0.63570  Biso   1.000  H
  H113     1.0000 0.05600  0.30100  0.99300  Biso   1.000  H
  H114     1.0000 0.55600  0.30100  0.50700  Biso   1.000  H
  H115     1.0000 0.05600  0.19900  0.49300  Biso   1.000  H
  H116     1.0000 0.44400  0.80100  0.99300  Biso   1.000  H
  H117     1.0000 0.94400  0.69900  0.00700  Biso   1.000  H
  H118     1.0000 0.44400  0.69900  0.49300  Biso   1.000  H
  H119     1.0000 0.94400  0.80100  0.50700  Biso   1.000  H
  H120     1.0000 0.55600  0.19900  0.00700  Biso   1.000  H
  H121     1.0000 0.90000  0.07700  0.22540  Biso   1.000  H
  H122     1.0000 0.40000  0.07700  0.27460  Biso   1.000  H
  H123     1.0000 0.90000  0.42300  0.72540  Biso   1.000  H
  H124     1.0000 0.60000  0.57700  0.22540  Biso   1.000  H
  H125     1.0000 0.10000  0.92300  0.77460  Biso   1.000  H
  H126     1.0000 0.60000  0.92300  0.72540  Biso   1.000  H
  H127     1.0000 0.10000  0.57700  0.27460  Biso   1.000  H
  H128     1.0000 0.40000  0.42300  0.77460  Biso   1.000  H
  H129     1.0000 0.78700  0.11700  0.23260  Biso   1.000  H
  H130     1.0000 0.28700  0.11700  0.26740  Biso   1.000  H
  H131     1.0000 0.78700  0.38300  0.73260  Biso   1.000  H
  H132     1.0000 0.71300  0.61700  0.23260  Biso   1.000  H
  H133     1.0000 0.21300  0.88300  0.76740  Biso   1.000  H
  H134     1.0000 0.71300  0.88300  0.73260  Biso   1.000  H
  H135     1.0000 0.21300  0.61700  0.26740  Biso   1.000  H
  H136     1.0000 0.28700  0.38300  0.76740  Biso   1.000  H
  H137     1.0000 0.89900  0.20100  0.17200  Biso   1.000  H
  H138     1.0000 0.39900  0.20100  0.32800  Biso   1.000  H
  H139     1.0000 0.89900  0.29900  0.67200  Biso   1.000  H
  H140     1.0000 0.60100  0.70100  0.17200  Biso   1.000  H
  H141     1.0000 0.10100  0.79900  0.82800  Biso   1.000  H
  H142     1.0000 0.60100  0.79900  0.67200  Biso   1.000  H
  H143     1.0000 0.10100  0.70100  0.32800  Biso   1.000  H
  H144     1.0000 0.39900  0.29900  0.82800  Biso   1.000  H
  H145     1.0000 0.89700  0.24600  0.23800  Biso   1.000  H
  H146     1.0000 0.39700  0.24600  0.26200  Biso   1.000  H
  H147     1.0000 0.89700  0.25400  0.73800  Biso   1.000  H
  H148     1.0000 0.60300  0.74600  0.23800  Biso   1.000  H
  H149     1.0000 0.10300  0.75400  0.76200  Biso   1.000  H
  H150     1.0000 0.60300  0.75400  0.73800  Biso   1.000  H
  H151     1.0000 0.10300  0.74600  0.26200  Biso   1.000  H
  H152     1.0000 0.39700  0.25400  0.76200  Biso   1.000  H
  H153     1.0000 0.40700  0.12400  0.51170  Biso   1.000  H
  H154     1.0000 0.90700  0.12400  0.98830  Biso   1.000  H
  H155     1.0000 0.40700  0.37600  0.01170  Biso   1.000  H
  H156     1.0000 0.09300  0.62400  0.51170  Biso   1.000  H
  H157     1.0000 0.59300  0.87600  0.48830  Biso   1.000  H
  H158     1.0000 0.09300  0.87600  0.01170  Biso   1.000  H
  H159     1.0000 0.59300  0.62400  0.98830  Biso   1.000  H
  H160     1.0000 0.90700  0.37600  0.48830  Biso   1.000  H
  H161     1.0000 0.43000  0.14600  0.44120  Biso   1.000  H
  H162     1.0000 0.93000  0.14600  0.05880  Biso   1.000  H
  H163     1.0000 0.43000  0.35400  0.94120  Biso   1.000  H
  H164     1.0000 0.07000  0.64600  0.44120  Biso   1.000  H
  H165     1.0000 0.57000  0.85400  0.55880  Biso   1.000  H
  H166     1.0000 0.07000  0.85400  0.94120  Biso   1.000  H
  H167     1.0000 0.57000  0.64600  0.05880  Biso   1.000  H
  H168     1.0000 0.93000  0.35400  0.55880  Biso   1.000  H
  H169     1.0000 0.57700  0.06060  0.48760  Biso   1.000  H
  H170     1.0000 0.07700  0.06060  0.01240  Biso   1.000  H
  H171     1.0000 0.57700  0.43940  0.98760  Biso   1.000  H
  H172     1.0000 0.92300  0.56060  0.48760  Biso   1.000  H
  H173     1.0000 0.42300  0.93940  0.51240  Biso   1.000  H
  H174     1.0000 0.92300  0.93940  0.98760  Biso   1.000  H
  H175     1.0000 0.42300  0.56060  0.01240  Biso   1.000  H
  H176     1.0000 0.07700  0.43940  0.51240  Biso   1.000  H
  H177     1.0000 0.51500  0.01500  0.43100  Biso   1.000  H
  H178     1.0000 0.01500  0.01500  0.06900  Biso   1.000  H
  H179     1.0000 0.51500  0.48500  0.93100  Biso   1.000  H
  H180     1.0000 0.98500  0.51500  0.43100  Biso   1.000  H
  H181     1.0000 0.48500  0.98500  0.56900  Biso   1.000  H
  H182     1.0000 0.98500  0.98500  0.93100  Biso   1.000  H
  H183     1.0000 0.48500  0.51500  0.06900  Biso   1.000  H
  H184     1.0000 0.01500  0.48500  0.56900  Biso   1.000  H
  H185     1.0000 0.16700  0.28200  0.20190  Biso   1.000  H
  H186     1.0000 0.66700  0.28200  0.29810  Biso   1.000  H
  H187     1.0000 0.16700  0.21800  0.70190  Biso   1.000  H
  H188     1.0000 0.33300  0.78200  0.20190  Biso   1.000  H
  H189     1.0000 0.83300  0.71800  0.79810  Biso   1.000  H
  H190     1.0000 0.33300  0.71800  0.70190  Biso   1.000  H
  H191     1.0000 0.83300  0.78200  0.29810  Biso   1.000  H
  H192     1.0000 0.66700  0.21800  0.79810  Biso   1.000  H
  H193     1.0000 0.07100  0.33300  0.22780  Biso   1.000  H
  H194     1.0000 0.57100  0.33300  0.27220  Biso   1.000  H
  H195     1.0000 0.07100  0.16700  0.72780  Biso   1.000  H
  H196     1.0000 0.42900  0.83300  0.22780  Biso   1.000  H
  H197     1.0000 0.92900  0.66700  0.77220  Biso   1.000  H
  H198     1.0000 0.42900  0.66700  0.72780  Biso   1.000  H
  H199     1.0000 0.92900  0.83300  0.27220  Biso   1.000  H
  H200     1.0000 0.57100  0.16700  0.77220  Biso   1.000  H
  H201     1.0000 0.07200  0.19100  0.26000  Biso   1.000  H
  H202     1.0000 0.57200  0.19100  0.24000  Biso   1.000  H
  H203     1.0000 0.07200  0.30900  0.76000  Biso   1.000  H
  H204     1.0000 0.42800  0.69100  0.26000  Biso   1.000  H
  H205     1.0000 0.92800  0.80900  0.74000  Biso   1.000  H
  H206     1.0000 0.42800  0.80900  0.76000  Biso   1.000  H
  H207     1.0000 0.92800  0.69100  0.24000  Biso   1.000  H
  H208     1.0000 0.57200  0.30900  0.74000  Biso   1.000  H
  H209     1.0000 0.06700  0.15400  0.19210  Biso   1.000  H
  H210     1.0000 0.56700  0.15400  0.30790  Biso   1.000  H
  H211     1.0000 0.06700  0.34600  0.69210  Biso   1.000  H
  H212     1.0000 0.43300  0.65400  0.19210  Biso   1.000  H
  H213     1.0000 0.93300  0.84600  0.80790  Biso   1.000  H
  H214     1.0000 0.43300  0.84600  0.69210  Biso   1.000  H
  H215     1.0000 0.93300  0.65400  0.30790  Biso   1.000  H
  H216     1.0000 0.56700  0.34600  0.80790  Biso   1.000  H
  Cl1      1.0000 0.69250  0.20830  0.60908  Biso   1.000  Cl
  Cl2      1.0000 0.19250  0.20830  0.89092  Biso   1.000  Cl
  Cl3      1.0000 0.69250  0.29170  0.10908  Biso   1.000  Cl
  Cl4      1.0000 0.80750  0.70830  0.60908  Biso   1.000  Cl
  Cl5      1.0000 0.30750  0.79170  0.39092  Biso   1.000  Cl
  Cl6      1.0000 0.80750  0.79170  0.10908  Biso   1.000  Cl
  Cl7      1.0000 0.30750  0.70830  0.89092  Biso   1.000  Cl
  Cl8      1.0000 0.19250  0.29170  0.39092  Biso   1.000  Cl
  O17      1.0000 0.70620  0.16810  0.67290  Biso   1.000  O
  O18      1.0000 0.20620  0.16810  0.82710  Biso   1.000  O
  O19      1.0000 0.70620  0.33190  0.17290  Biso   1.000  O
  O20      1.0000 0.79380  0.66810  0.67290  Biso   1.000  O
  O21      1.0000 0.29380  0.83190  0.32710  Biso   1.000  O
  O22      1.0000 0.79380  0.83190  0.17290  Biso   1.000  O
  O23      1.0000 0.29380  0.66810  0.82710  Biso   1.000  O
  O24      1.0000 0.20620  0.33190  0.32710  Biso   1.000  O
  O25      1.0000 0.78570  0.20190  0.56700  Biso   1.000  O
  O26      1.0000 0.28570  0.20190  0.93300  Biso   1.000  O
  O27      1.0000 0.78570  0.29810  0.06700  Biso   1.000  O
  O28      1.0000 0.71430  0.70190  0.56700  Biso   1.000  O
  O29      1.0000 0.21430  0.79810  0.43300  Biso   1.000  O
  O30      1.0000 0.71430  0.79810  0.06700  Biso   1.000  O
  O31      1.0000 0.21430  0.70190  0.93300  Biso   1.000  O
  O32      1.0000 0.28570  0.29810  0.43300  Biso   1.000  O
  O33      1.0000 0.60070  0.16720  0.57720  Biso   1.000  O
  O34      1.0000 0.10070  0.16720  0.92280  Biso   1.000  O
  O35      1.0000 0.60070  0.33280  0.07720  Biso   1.000  O
  O36      1.0000 0.89930  0.66720  0.57720  Biso   1.000  O
  O37      1.0000 0.39930  0.83280  0.42280  Biso   1.000  O
  O38      1.0000 0.89930  0.83280  0.07720  Biso   1.000  O
  O39      1.0000 0.39930  0.66720  0.92280  Biso   1.000  O
  O40      1.0000 0.10070  0.33280  0.42280  Biso   1.000  O
  O41      1.0000 0.66130  0.29620  0.61960  Biso   1.000  O
  O42      1.0000 0.16130  0.29620  0.88040  Biso   1.000  O
  O43      1.0000 0.66130  0.20380  0.11960  Biso   1.000  O
  O44      1.0000 0.83870  0.79620  0.61960  Biso   1.000  O
  O45      1.0000 0.33870  0.70380  0.38040  Biso   1.000  O
  O46      1.0000 0.83870  0.70380  0.11960  Biso   1.000  O
  O47      1.0000 0.33870  0.79620  0.88040  Biso   1.000  O
  O48      1.0000 0.16130  0.20380  0.38040  Biso   1.000  O
  Cl9      1.0000 0.67060  0.20373  0.61304  Biso   1.000  Cl
  Cl10     1.0000 0.17060  0.20373  0.88696  Biso   1.000  Cl
  Cl11     1.0000 0.67060  0.29627  0.11304  Biso   1.000  Cl
  Cl12     1.0000 0.82940  0.70373  0.61304  Biso   1.000  Cl
  Cl13     1.0000 0.32940  0.79627  0.38696  Biso   1.000  Cl
  Cl14     1.0000 0.82940  0.79627  0.11304  Biso   1.000  Cl
  Cl15     1.0000 0.32940  0.70373  0.88696  Biso   1.000  Cl
  Cl16     1.0000 0.17060  0.29627  0.38696  Biso   1.000  Cl
  O49      1.0000 0.72540  0.16540  0.66890  Biso   1.000  O
  O50      1.0000 0.22540  0.16540  0.83110  Biso   1.000  O
  O51      1.0000 0.72540  0.33460  0.16890  Biso   1.000  O
  O52      1.0000 0.77460  0.66540  0.66890  Biso   1.000  O
  O53      1.0000 0.27460  0.83460  0.33110  Biso   1.000  O
  O54      1.0000 0.77460  0.83460  0.16890  Biso   1.000  O
  O55      1.0000 0.27460  0.66540  0.83110  Biso   1.000  O
  O56      1.0000 0.22540  0.33460  0.33110  Biso   1.000  O
  O57      1.0000 0.72180  0.16870  0.55470  Biso   1.000  O
  O58      1.0000 0.22180  0.16870  0.94530  Biso   1.000  O
  O59      1.0000 0.72180  0.33130  0.05470  Biso   1.000  O
  O60      1.0000 0.77820  0.66870  0.55470  Biso   1.000  O
  O61      1.0000 0.27820  0.83130  0.44530  Biso   1.000  O
  O62      1.0000 0.77820  0.83130  0.05470  Biso   1.000  O
  O63      1.0000 0.27820  0.66870  0.94530  Biso   1.000  O
  O64      1.0000 0.22180  0.33130  0.44530  Biso   1.000  O
  O65      1.0000 0.68980  0.29470  0.61390  Biso   1.000  O
  O66      1.0000 0.18980  0.29470  0.88610  Biso   1.000  O
  O67      1.0000 0.68980  0.20530  0.11390  Biso   1.000  O
  O68      1.0000 0.81020  0.79470  0.61390  Biso   1.000  O
  O69      1.0000 0.31020  0.70530  0.38610  Biso   1.000  O
  O70      1.0000 0.81020  0.70530  0.11390  Biso   1.000  O
  O71      1.0000 0.31020  0.79470  0.88610  Biso   1.000  O
  O72      1.0000 0.18980  0.20530  0.38610  Biso   1.000  O
  O73      1.0000 0.55490  0.18430  0.61110  Biso   1.000  O
  O74      1.0000 0.05490  0.18430  0.88890  Biso   1.000  O
  O75      1.0000 0.55490  0.31570  0.11110  Biso   1.000  O
  O76      1.0000 0.94510  0.68430  0.61110  Biso   1.000  O
  O77      1.0000 0.44510  0.81570  0.38890  Biso   1.000  O
  O78      1.0000 0.94510  0.81570  0.11110  Biso   1.000  O
  O79      1.0000 0.44510  0.68430  0.88890  Biso   1.000  O
  O80      1.0000 0.05490  0.31570  0.38890  Biso   1.000  O
