data_image0
_cell_length_a       9.5539
_cell_length_b       9.9408
_cell_length_c       9.3613
_cell_angle_alpha    90
_cell_angle_beta     110.873
_cell_angle_gamma    90

_symmetry_space_group_name_H-M    "P 1"
_symmetry_int_tables_number       1

loop_
  _symmetry_equiv_pos_as_xyz
  'x, y, z'

loop_
  _atom_site_label
  _atom_site_occupancy
  _atom_site_fract_x
  _atom_site_fract_y
  _atom_site_fract_z
  _atom_site_thermal_displace_type
  _atom_site_B_iso_or_equiv
  _atom_site_type_symbol
  Cu1      1.0000 0.00959  0.15358  0.09424  Biso   1.000  Cu
  Cu2      1.0000 0.00959  0.34642  0.59424  Biso   1.000  Cu
  Cu3      1.0000 0.99041  0.84642  0.90576  Biso   1.000  Cu
  Cu4      1.0000 0.99041  0.65358  0.40576  Biso   1.000  Cu
  Cl1      1.0000 0.83317  0.31355  0.06150  Biso   1.000  Cl
  Cl2      1.0000 0.83317  0.18645  0.56150  Biso   1.000  Cl
  Cl3      1.0000 0.16683  0.68645  0.93850  Biso   1.000  Cl
  Cl4      1.0000 0.16683  0.81355  0.43850  Biso   1.000  Cl
  O1       1.0000 0.14350  0.00360  0.09660  Biso   1.000  O
  O2       1.0000 0.14350  0.49640  0.59660  Biso   1.000  O
  O3       1.0000 0.85650  0.99640  0.90340  Biso   1.000  O
  O4       1.0000 0.85650  0.50360  0.40340  Biso   1.000  O
  O5       1.0000 0.95250  0.05530  0.25180  Biso   1.000  O
  O6       1.0000 0.95250  0.44470  0.75180  Biso   1.000  O
  O7       1.0000 0.04750  0.94470  0.74820  Biso   1.000  O
  O8       1.0000 0.04750  0.55530  0.24820  Biso   1.000  O
  O9       1.0000 0.08000  0.23950  0.94610  Biso   1.000  O
  O10      1.0000 0.08000  0.26050  0.44610  Biso   1.000  O
  O11      1.0000 0.92000  0.76050  0.05390  Biso   1.000  O
  O12      1.0000 0.92000  0.73950  0.55390  Biso   1.000  O
  N1       1.0000 0.28700  0.03800  0.12160  Biso   1.000  N
  N2       1.0000 0.28700  0.46200  0.62160  Biso   1.000  N
  N3       1.0000 0.71300  0.96200  0.87840  Biso   1.000  N
  N4       1.0000 0.71300  0.53800  0.37840  Biso   1.000  N
  C1       1.0000 0.32150  0.13410  0.03870  Biso   1.000  C
  C2       1.0000 0.32150  0.36590  0.53870  Biso   1.000  C
  C3       1.0000 0.67850  0.86590  0.96130  Biso   1.000  C
  C4       1.0000 0.67850  0.63410  0.46130  Biso   1.000  C
  C5       1.0000 0.19900  0.21370  0.91990  Biso   1.000  C
  C6       1.0000 0.19900  0.28630  0.41990  Biso   1.000  C
  C7       1.0000 0.80100  0.78630  0.08010  Biso   1.000  C
  C8       1.0000 0.80100  0.71370  0.58010  Biso   1.000  C
  C9       1.0000 0.47050  0.16300  0.06870  Biso   1.000  C
  C10      1.0000 0.47050  0.33700  0.56870  Biso   1.000  C
  C11      1.0000 0.52950  0.83700  0.93130  Biso   1.000  C
  C12      1.0000 0.52950  0.66300  0.43130  Biso   1.000  C
  H1       1.0000 0.49640  0.22770  0.01080  Biso   1.000  H
  H2       1.0000 0.49640  0.27230  0.51080  Biso   1.000  H
  H3       1.0000 0.50360  0.77230  0.98920  Biso   1.000  H
  H4       1.0000 0.50360  0.72770  0.48920  Biso   1.000  H
  C13      1.0000 0.39300  0.96980  0.23340  Biso   1.000  C
  C14      1.0000 0.39300  0.53020  0.73340  Biso   1.000  C
  C15      1.0000 0.60700  0.03020  0.76660  Biso   1.000  C
  C16      1.0000 0.60700  0.46980  0.26660  Biso   1.000  C
  H5       1.0000 0.36540  0.90310  0.28790  Biso   1.000  H
  H6       1.0000 0.36540  0.59690  0.78790  Biso   1.000  H
  H7       1.0000 0.63460  0.09690  0.71210  Biso   1.000  H
  H8       1.0000 0.63460  0.40310  0.21210  Biso   1.000  H
  C17      1.0000 0.58150  0.09680  0.18370  Biso   1.000  C
  C18      1.0000 0.58150  0.40320  0.68370  Biso   1.000  C
  C19      1.0000 0.41850  0.90320  0.81630  Biso   1.000  C
  C20      1.0000 0.41850  0.59680  0.31630  Biso   1.000  C
  H9       1.0000 0.68180  0.11770  0.20500  Biso   1.000  H
  H10      1.0000 0.68180  0.38230  0.70500  Biso   1.000  H
  H11      1.0000 0.31820  0.88230  0.79500  Biso   1.000  H
  H12      1.0000 0.31820  0.61770  0.29500  Biso   1.000  H
  C21      1.0000 0.54160  0.99950  0.26620  Biso   1.000  C
  C22      1.0000 0.54160  0.50050  0.76620  Biso   1.000  C
  C23      1.0000 0.45840  0.00050  0.73380  Biso   1.000  C
  C24      1.0000 0.45840  0.49950  0.23380  Biso   1.000  C
  H13      1.0000 0.61510  0.95390  0.34400  Biso   1.000  H
  H14      1.0000 0.61510  0.54610  0.84400  Biso   1.000  H
  H15      1.0000 0.38490  0.04610  0.65600  Biso   1.000  H
  H16      1.0000 0.38490  0.45390  0.15600  Biso   1.000  H
  O13      1.0000 0.22570  0.25290  0.80770  Biso   1.000  O
  O14      1.0000 0.22570  0.24710  0.30770  Biso   1.000  O
  O15      1.0000 0.77430  0.74710  0.19230  Biso   1.000  O
  O16      1.0000 0.77430  0.75290  0.69230  Biso   1.000  O
