data_image0
_cell_length_a       21.8967
_cell_length_b       10.8448
_cell_length_c       16.9551
_cell_angle_alpha    90
_cell_angle_beta     90
_cell_angle_gamma    90

_symmetry_space_group_name_H-M    "P 1"
_symmetry_int_tables_number       1

loop_
  _symmetry_equiv_pos_as_xyz
  'x, y, z'

loop_
  _atom_site_label
  _atom_site_occupancy
  _atom_site_fract_x
  _atom_site_fract_y
  _atom_site_fract_z
  _atom_site_thermal_displace_type
  _atom_site_B_iso_or_equiv
  _atom_site_type_symbol
  C1       1.0000 0.84434  0.21120  0.08350  Biso   1.000  C
  C2       1.0000 0.65566  0.28880  0.58350  Biso   1.000  C
  C3       1.0000 0.34434  0.28880  0.91650  Biso   1.000  C
  C4       1.0000 0.15566  0.21120  0.41650  Biso   1.000  C
  C5       1.0000 0.15566  0.78880  0.91650  Biso   1.000  C
  C6       1.0000 0.34434  0.71120  0.41650  Biso   1.000  C
  C7       1.0000 0.65566  0.71120  0.08350  Biso   1.000  C
  C8       1.0000 0.84434  0.78880  0.58350  Biso   1.000  C
  C9       1.0000 0.79725  0.24550  0.14550  Biso   1.000  C
  C10      1.0000 0.70275  0.25450  0.64550  Biso   1.000  C
  C11      1.0000 0.29725  0.25450  0.85450  Biso   1.000  C
  C12      1.0000 0.20275  0.24550  0.35450  Biso   1.000  C
  C13      1.0000 0.20275  0.75450  0.85450  Biso   1.000  C
  C14      1.0000 0.29725  0.74550  0.35450  Biso   1.000  C
  C15      1.0000 0.70275  0.74550  0.14550  Biso   1.000  C
  C16      1.0000 0.79725  0.75450  0.64550  Biso   1.000  C
  H1       1.0000 0.79930  0.33370  0.15450  Biso   1.000  H
  H2       1.0000 0.70070  0.16630  0.65450  Biso   1.000  H
  H3       1.0000 0.29930  0.16630  0.84550  Biso   1.000  H
  H4       1.0000 0.20070  0.33370  0.34550  Biso   1.000  H
  H5       1.0000 0.20070  0.66630  0.84550  Biso   1.000  H
  H6       1.0000 0.29930  0.83370  0.34550  Biso   1.000  H
  H7       1.0000 0.70070  0.83370  0.15450  Biso   1.000  H
  H8       1.0000 0.79930  0.66630  0.65450  Biso   1.000  H
  H9       1.0000 0.80780  0.20480  0.19450  Biso   1.000  H
  H10      1.0000 0.69220  0.29520  0.69450  Biso   1.000  H
  H11      1.0000 0.30780  0.29520  0.80550  Biso   1.000  H
  H12      1.0000 0.19220  0.20480  0.30550  Biso   1.000  H
  H13      1.0000 0.19220  0.79520  0.80550  Biso   1.000  H
  H14      1.0000 0.30780  0.70480  0.30550  Biso   1.000  H
  H15      1.0000 0.69220  0.70480  0.19450  Biso   1.000  H
  H16      1.0000 0.80780  0.79520  0.69450  Biso   1.000  H
  C17      1.0000 0.73214  0.21180  0.12405  Biso   1.000  C
  C18      1.0000 0.76786  0.28820  0.62405  Biso   1.000  C
  C19      1.0000 0.23214  0.28820  0.87595  Biso   1.000  C
  C20      1.0000 0.26786  0.21180  0.37595  Biso   1.000  C
  C21      1.0000 0.26786  0.78820  0.87595  Biso   1.000  C
  C22      1.0000 0.23214  0.71180  0.37595  Biso   1.000  C
  C23      1.0000 0.76786  0.71180  0.12405  Biso   1.000  C
  C24      1.0000 0.73214  0.78820  0.62405  Biso   1.000  C
  C25      1.0000 0.68400  0.28690  0.14604  Biso   1.000  C
  C26      1.0000 0.81600  0.21310  0.64604  Biso   1.000  C
  C27      1.0000 0.18400  0.21310  0.85396  Biso   1.000  C
  C28      1.0000 0.31600  0.28690  0.35396  Biso   1.000  C
  C29      1.0000 0.31600  0.71310  0.85396  Biso   1.000  C
  C30      1.0000 0.18400  0.78690  0.35396  Biso   1.000  C
  C31      1.0000 0.81600  0.78690  0.14604  Biso   1.000  C
  C32      1.0000 0.68400  0.71310  0.64604  Biso   1.000  C
  H17      1.0000 0.69240  0.36270  0.16930  Biso   1.000  H
  H18      1.0000 0.80760  0.13730  0.66930  Biso   1.000  H
  H19      1.0000 0.19240  0.13730  0.83070  Biso   1.000  H
  H20      1.0000 0.30760  0.36270  0.33070  Biso   1.000  H
  H21      1.0000 0.30760  0.63730  0.83070  Biso   1.000  H
  H22      1.0000 0.19240  0.86270  0.33070  Biso   1.000  H
  H23      1.0000 0.80760  0.86270  0.16930  Biso   1.000  H
  H24      1.0000 0.69240  0.63730  0.66930  Biso   1.000  H
  C33      1.0000 0.71909  0.10240  0.08670  Biso   1.000  C
  C34      1.0000 0.78091  0.39760  0.58670  Biso   1.000  C
  C35      1.0000 0.21909  0.39760  0.91330  Biso   1.000  C
  C36      1.0000 0.28091  0.10240  0.41330  Biso   1.000  C
  C37      1.0000 0.28091  0.89760  0.91330  Biso   1.000  C
  C38      1.0000 0.21909  0.60240  0.41330  Biso   1.000  C
  C39      1.0000 0.78091  0.60240  0.08670  Biso   1.000  C
  C40      1.0000 0.71909  0.89760  0.58670  Biso   1.000  C
  H25      1.0000 0.75080  0.05120  0.07070  Biso   1.000  H
  H26      1.0000 0.74920  0.44880  0.57070  Biso   1.000  H
  H27      1.0000 0.25080  0.44880  0.92930  Biso   1.000  H
  H28      1.0000 0.24920  0.05120  0.42930  Biso   1.000  H
  H29      1.0000 0.24920  0.94880  0.92930  Biso   1.000  H
  H30      1.0000 0.25080  0.55120  0.42930  Biso   1.000  H
  H31      1.0000 0.74920  0.55120  0.07070  Biso   1.000  H
  H32      1.0000 0.75080  0.94880  0.57070  Biso   1.000  H
  C41      1.0000 0.65961  0.06780  0.07270  Biso   1.000  C
  C42      1.0000 0.84039  0.43220  0.57270  Biso   1.000  C
  C43      1.0000 0.15961  0.43220  0.92730  Biso   1.000  C
  C44      1.0000 0.34039  0.06780  0.42730  Biso   1.000  C
  C45      1.0000 0.34039  0.93220  0.92730  Biso   1.000  C
  C46      1.0000 0.15961  0.56780  0.42730  Biso   1.000  C
  C47      1.0000 0.84039  0.56780  0.07270  Biso   1.000  C
  C48      1.0000 0.65961  0.93220  0.57270  Biso   1.000  C
  H33      1.0000 0.65130  0.99420  0.04660  Biso   1.000  H
  H34      1.0000 0.84870  0.50580  0.54660  Biso   1.000  H
  H35      1.0000 0.15130  0.50580  0.95340  Biso   1.000  H
  H36      1.0000 0.34870  0.99420  0.45340  Biso   1.000  H
  H37      1.0000 0.34870  0.00580  0.95340  Biso   1.000  H
  H38      1.0000 0.15130  0.49420  0.45340  Biso   1.000  H
  H39      1.0000 0.84870  0.49420  0.04660  Biso   1.000  H
  H40      1.0000 0.65130  0.00580  0.54660  Biso   1.000  H
  C49      1.0000 0.61252  0.14250  0.09740  Biso   1.000  C
  C50      1.0000 0.88748  0.35750  0.59740  Biso   1.000  C
  C51      1.0000 0.11252  0.35750  0.90260  Biso   1.000  C
  C52      1.0000 0.38748  0.14250  0.40260  Biso   1.000  C
  C53      1.0000 0.38748  0.85750  0.90260  Biso   1.000  C
  C54      1.0000 0.11252  0.64250  0.40260  Biso   1.000  C
  C55      1.0000 0.88748  0.64250  0.09740  Biso   1.000  C
  C56      1.0000 0.61252  0.85750  0.59740  Biso   1.000  C
  H41      1.0000 0.57240  0.11760  0.08870  Biso   1.000  H
  H42      1.0000 0.92760  0.38240  0.58870  Biso   1.000  H
  H43      1.0000 0.07240  0.38240  0.91130  Biso   1.000  H
  H44      1.0000 0.42760  0.11760  0.41130  Biso   1.000  H
  H45      1.0000 0.42760  0.88240  0.91130  Biso   1.000  H
  H46      1.0000 0.07240  0.61760  0.41130  Biso   1.000  H
  H47      1.0000 0.92760  0.61760  0.08870  Biso   1.000  H
  H48      1.0000 0.57240  0.88240  0.58870  Biso   1.000  H
  C57      1.0000 0.62338  0.25290  0.13455  Biso   1.000  C
  C58      1.0000 0.87662  0.24710  0.63455  Biso   1.000  C
  C59      1.0000 0.12338  0.24710  0.86545  Biso   1.000  C
  C60      1.0000 0.37662  0.25290  0.36545  Biso   1.000  C
  C61      1.0000 0.37662  0.74710  0.86545  Biso   1.000  C
  C62      1.0000 0.12338  0.75290  0.36545  Biso   1.000  C
  C63      1.0000 0.87662  0.75290  0.13455  Biso   1.000  C
  C64      1.0000 0.62338  0.74710  0.63455  Biso   1.000  C
  C65      1.0000 0.57216  0.33590  0.16333  Biso   1.000  C
  C66      1.0000 0.92784  0.16410  0.66333  Biso   1.000  C
  C67      1.0000 0.07216  0.16410  0.83667  Biso   1.000  C
  C68      1.0000 0.42784  0.33590  0.33667  Biso   1.000  C
  C69      1.0000 0.42784  0.66410  0.83667  Biso   1.000  C
  C70      1.0000 0.07216  0.83590  0.33667  Biso   1.000  C
  C71      1.0000 0.92784  0.83590  0.16333  Biso   1.000  C
  C72      1.0000 0.57216  0.66410  0.66333  Biso   1.000  C
  H49      1.0000 0.56070  0.31140  0.21630  Biso   1.000  H
  H50      1.0000 0.93930  0.18860  0.71630  Biso   1.000  H
  H51      1.0000 0.06070  0.18860  0.78370  Biso   1.000  H
  H52      1.0000 0.43930  0.31140  0.28370  Biso   1.000  H
  H53      1.0000 0.43930  0.68860  0.78370  Biso   1.000  H
  H54      1.0000 0.06070  0.81140  0.28370  Biso   1.000  H
  H55      1.0000 0.93930  0.81140  0.21630  Biso   1.000  H
  H56      1.0000 0.56070  0.68860  0.71630  Biso   1.000  H
  H57      1.0000 0.58690  0.42020  0.16570  Biso   1.000  H
  H58      1.0000 0.91310  0.07980  0.66570  Biso   1.000  H
  H59      1.0000 0.08690  0.07980  0.83430  Biso   1.000  H
  H60      1.0000 0.41310  0.42020  0.33430  Biso   1.000  H
  H61      1.0000 0.41310  0.57980  0.83430  Biso   1.000  H
  H62      1.0000 0.08690  0.92020  0.33430  Biso   1.000  H
  H63      1.0000 0.91310  0.92020  0.16570  Biso   1.000  H
  H64      1.0000 0.58690  0.57980  0.66570  Biso   1.000  H
  C73      1.0000 0.51616  0.33120  0.11090  Biso   1.000  C
  C74      1.0000 0.98384  0.16880  0.61090  Biso   1.000  C
  C75      1.0000 0.01616  0.16880  0.88910  Biso   1.000  C
  C76      1.0000 0.48384  0.33120  0.38910  Biso   1.000  C
  C77      1.0000 0.48384  0.66880  0.88910  Biso   1.000  C
  C78      1.0000 0.01616  0.83120  0.38910  Biso   1.000  C
  C79      1.0000 0.98384  0.83120  0.11090  Biso   1.000  C
  C80      1.0000 0.51616  0.66880  0.61090  Biso   1.000  C
  C81      1.0000 0.34698  0.57580  0.03880  Biso   1.000  C
  C82      1.0000 0.15302  0.92420  0.53880  Biso   1.000  C
  C83      1.0000 0.84698  0.92420  0.96120  Biso   1.000  C
  C84      1.0000 0.65302  0.57580  0.46120  Biso   1.000  C
  C85      1.0000 0.65302  0.42420  0.96120  Biso   1.000  C
  C86      1.0000 0.84698  0.07580  0.46120  Biso   1.000  C
  C87      1.0000 0.15302  0.07580  0.03880  Biso   1.000  C
  C88      1.0000 0.34698  0.42420  0.53880  Biso   1.000  C
  H65      1.0000 0.36110  0.62590  0.99820  Biso   1.000  H
  H66      1.0000 0.13890  0.87410  0.49820  Biso   1.000  H
  H67      1.0000 0.86110  0.87410  0.00180  Biso   1.000  H
  H68      1.0000 0.63890  0.62590  0.50180  Biso   1.000  H
  H69      1.0000 0.63890  0.37410  0.00180  Biso   1.000  H
  H70      1.0000 0.86110  0.12590  0.50180  Biso   1.000  H
  H71      1.0000 0.13890  0.12590  0.99820  Biso   1.000  H
  H72      1.0000 0.36110  0.37410  0.49820  Biso   1.000  H
  C89      1.0000 0.35816  0.40700  0.11640  Biso   1.000  C
  C90      1.0000 0.14184  0.09300  0.61640  Biso   1.000  C
  C91      1.0000 0.85816  0.09300  0.88360  Biso   1.000  C
  C92      1.0000 0.64184  0.40700  0.38360  Biso   1.000  C
  C93      1.0000 0.64184  0.59300  0.88360  Biso   1.000  C
  C94      1.0000 0.85816  0.90700  0.38360  Biso   1.000  C
  C95      1.0000 0.14184  0.90700  0.11640  Biso   1.000  C
  C96      1.0000 0.35816  0.59300  0.61640  Biso   1.000  C
  H73      1.0000 0.37980  0.33680  0.13090  Biso   1.000  H
  H74      1.0000 0.12020  0.16320  0.63090  Biso   1.000  H
  H75      1.0000 0.87980  0.16320  0.86910  Biso   1.000  H
  H76      1.0000 0.62020  0.33680  0.36910  Biso   1.000  H
  H77      1.0000 0.62020  0.66320  0.86910  Biso   1.000  H
  H78      1.0000 0.87980  0.83680  0.36910  Biso   1.000  H
  H79      1.0000 0.12020  0.83680  0.13090  Biso   1.000  H
  H80      1.0000 0.37980  0.66320  0.63090  Biso   1.000  H
  C97      1.0000 0.29432  0.61010  0.07750  Biso   1.000  C
  C98      1.0000 0.20568  0.88990  0.57750  Biso   1.000  C
  C99      1.0000 0.79432  0.88990  0.92250  Biso   1.000  C
  C100     1.0000 0.70568  0.61010  0.42250  Biso   1.000  C
  C101     1.0000 0.70568  0.38990  0.92250  Biso   1.000  C
  C102     1.0000 0.79432  0.11010  0.42250  Biso   1.000  C
  C103     1.0000 0.20568  0.11010  0.07750  Biso   1.000  C
  C104     1.0000 0.29432  0.38990  0.57750  Biso   1.000  C
  H81      1.0000 0.27340  0.68070  0.06210  Biso   1.000  H
  H82      1.0000 0.22660  0.81930  0.56210  Biso   1.000  H
  H83      1.0000 0.77340  0.81930  0.93790  Biso   1.000  H
  H84      1.0000 0.72660  0.68070  0.43790  Biso   1.000  H
  H85      1.0000 0.72660  0.31930  0.93790  Biso   1.000  H
  H86      1.0000 0.77340  0.18070  0.43790  Biso   1.000  H
  H87      1.0000 0.22660  0.18070  0.06210  Biso   1.000  H
  H88      1.0000 0.27340  0.31930  0.56210  Biso   1.000  H
  C105     1.0000 0.30663  0.43660  0.15750  Biso   1.000  C
  C106     1.0000 0.19337  0.06340  0.65750  Biso   1.000  C
  C107     1.0000 0.80663  0.06340  0.84250  Biso   1.000  C
  C108     1.0000 0.69337  0.43660  0.34250  Biso   1.000  C
  C109     1.0000 0.69337  0.56340  0.84250  Biso   1.000  C
  C110     1.0000 0.80663  0.93660  0.34250  Biso   1.000  C
  C111     1.0000 0.19337  0.93660  0.15750  Biso   1.000  C
  C112     1.0000 0.30663  0.56340  0.65750  Biso   1.000  C
  H89      1.0000 0.29410  0.38620  0.19890  Biso   1.000  H
  H90      1.0000 0.20590  0.11380  0.69890  Biso   1.000  H
  H91      1.0000 0.79410  0.11380  0.80110  Biso   1.000  H
  H92      1.0000 0.70590  0.38620  0.30110  Biso   1.000  H
  H93      1.0000 0.70590  0.61380  0.80110  Biso   1.000  H
  H94      1.0000 0.79410  0.88620  0.30110  Biso   1.000  H
  H95      1.0000 0.20590  0.88620  0.19890  Biso   1.000  H
  H96      1.0000 0.29410  0.61380  0.69890  Biso   1.000  H
  C113     1.0000 0.27284  0.53990  0.13880  Biso   1.000  C
  C114     1.0000 0.22716  0.96010  0.63880  Biso   1.000  C
  C115     1.0000 0.77284  0.96010  0.86120  Biso   1.000  C
  C116     1.0000 0.72716  0.53990  0.36120  Biso   1.000  C
  C117     1.0000 0.72716  0.46010  0.86120  Biso   1.000  C
  C118     1.0000 0.77284  0.03990  0.36120  Biso   1.000  C
  C119     1.0000 0.22716  0.03990  0.13880  Biso   1.000  C
  C120     1.0000 0.27284  0.46010  0.63880  Biso   1.000  C
  C121     1.0000 0.21375  0.56540  0.18130  Biso   1.000  C
  C122     1.0000 0.28625  0.93460  0.68130  Biso   1.000  C
  C123     1.0000 0.71375  0.93460  0.81870  Biso   1.000  C
  C124     1.0000 0.78625  0.56540  0.31870  Biso   1.000  C
  C125     1.0000 0.78625  0.43460  0.81870  Biso   1.000  C
  C126     1.0000 0.71375  0.06540  0.31870  Biso   1.000  C
  C127     1.0000 0.28625  0.06540  0.18130  Biso   1.000  C
  C128     1.0000 0.21375  0.43460  0.68130  Biso   1.000  C
  H97      1.0000 0.22030  0.56040  0.23780  Biso   1.000  H
  H98      1.0000 0.27970  0.93960  0.73780  Biso   1.000  H
  H99      1.0000 0.72030  0.93960  0.76220  Biso   1.000  H
  H100     1.0000 0.77970  0.56040  0.26220  Biso   1.000  H
  H101     1.0000 0.77970  0.43960  0.76220  Biso   1.000  H
  H102     1.0000 0.72030  0.06040  0.26220  Biso   1.000  H
  H103     1.0000 0.27970  0.06040  0.23780  Biso   1.000  H
  H104     1.0000 0.22030  0.43960  0.73780  Biso   1.000  H
  H105     1.0000 0.19990  0.64810  0.16890  Biso   1.000  H
  H106     1.0000 0.30010  0.85190  0.66890  Biso   1.000  H
  H107     1.0000 0.69990  0.85190  0.83110  Biso   1.000  H
  H108     1.0000 0.80010  0.64810  0.33110  Biso   1.000  H
  H109     1.0000 0.80010  0.35190  0.83110  Biso   1.000  H
  H110     1.0000 0.69990  0.14810  0.33110  Biso   1.000  H
  H111     1.0000 0.30010  0.14810  0.16890  Biso   1.000  H
  H112     1.0000 0.19990  0.35190  0.66890  Biso   1.000  H
  C129     1.0000 0.16629  0.47450  0.15740  Biso   1.000  C
  C130     1.0000 0.33371  0.02550  0.65740  Biso   1.000  C
  C131     1.0000 0.66629  0.02550  0.84260  Biso   1.000  C
  C132     1.0000 0.83371  0.47450  0.34260  Biso   1.000  C
  C133     1.0000 0.83371  0.52550  0.84260  Biso   1.000  C
  C134     1.0000 0.66629  0.97450  0.34260  Biso   1.000  C
  C135     1.0000 0.33371  0.97450  0.15740  Biso   1.000  C
  C136     1.0000 0.16629  0.52550  0.65740  Biso   1.000  C
  H113     1.0000 0.18380  0.39250  0.16150  Biso   1.000  H
  H114     1.0000 0.31620  0.10750  0.66150  Biso   1.000  H
  H115     1.0000 0.68380  0.10750  0.83850  Biso   1.000  H
  H116     1.0000 0.81620  0.39250  0.33850  Biso   1.000  H
  H117     1.0000 0.81620  0.60750  0.83850  Biso   1.000  H
  H118     1.0000 0.68380  0.89250  0.33850  Biso   1.000  H
  H119     1.0000 0.31620  0.89250  0.16150  Biso   1.000  H
  H120     1.0000 0.18380  0.60750  0.66150  Biso   1.000  H
  H121     1.0000 0.15660  0.48840  0.10230  Biso   1.000  H
  H122     1.0000 0.34340  0.01160  0.60230  Biso   1.000  H
  H123     1.0000 0.65660  0.01160  0.89770  Biso   1.000  H
  H124     1.0000 0.84340  0.48840  0.39770  Biso   1.000  H
  H125     1.0000 0.84340  0.51160  0.89770  Biso   1.000  H
  H126     1.0000 0.65660  0.98840  0.39770  Biso   1.000  H
  H127     1.0000 0.34340  0.98840  0.10230  Biso   1.000  H
  H128     1.0000 0.15660  0.51160  0.60230  Biso   1.000  H
  C137     1.0000 0.10629  0.47650  0.20470  Biso   1.000  C
  C138     1.0000 0.39371  0.02350  0.70470  Biso   1.000  C
  C139     1.0000 0.60629  0.02350  0.79530  Biso   1.000  C
  C140     1.0000 0.89371  0.47650  0.29530  Biso   1.000  C
  C141     1.0000 0.89371  0.52350  0.79530  Biso   1.000  C
  C142     1.0000 0.60629  0.97650  0.29530  Biso   1.000  C
  C143     1.0000 0.39371  0.97650  0.20470  Biso   1.000  C
  C144     1.0000 0.10629  0.52350  0.70470  Biso   1.000  C
  H129     1.0000 0.11390  0.45360  0.25910  Biso   1.000  H
  H130     1.0000 0.38610  0.04640  0.75910  Biso   1.000  H
  H131     1.0000 0.61390  0.04640  0.74090  Biso   1.000  H
  H132     1.0000 0.88610  0.45360  0.24090  Biso   1.000  H
  H133     1.0000 0.88610  0.54640  0.74090  Biso   1.000  H
  H134     1.0000 0.61390  0.95360  0.24090  Biso   1.000  H
  H135     1.0000 0.38610  0.95360  0.25910  Biso   1.000  H
  H136     1.0000 0.11390  0.54640  0.75910  Biso   1.000  H
  H137     1.0000 0.08870  0.55860  0.20380  Biso   1.000  H
  H138     1.0000 0.41130  0.94140  0.70380  Biso   1.000  H
  H139     1.0000 0.58870  0.94140  0.79620  Biso   1.000  H
  H140     1.0000 0.91130  0.55860  0.29620  Biso   1.000  H
  H141     1.0000 0.91130  0.44140  0.79620  Biso   1.000  H
  H142     1.0000 0.58870  0.05860  0.29620  Biso   1.000  H
  H143     1.0000 0.41130  0.05860  0.20380  Biso   1.000  H
  H144     1.0000 0.08870  0.44140  0.70380  Biso   1.000  H
  C145     1.0000 0.06321  0.38600  0.16720  Biso   1.000  C
  C146     1.0000 0.43679  0.11400  0.66720  Biso   1.000  C
  C147     1.0000 0.56321  0.11400  0.83280  Biso   1.000  C
  C148     1.0000 0.93679  0.38600  0.33280  Biso   1.000  C
  C149     1.0000 0.93679  0.61400  0.83280  Biso   1.000  C
  C150     1.0000 0.56321  0.88600  0.33280  Biso   1.000  C
  C151     1.0000 0.43679  0.88600  0.16720  Biso   1.000  C
  C152     1.0000 0.06321  0.61400  0.66720  Biso   1.000  C
  C153     1.0000 0.02481  0.42290  0.10790  Biso   1.000  C
  C154     1.0000 0.47519  0.07710  0.60790  Biso   1.000  C
  C155     1.0000 0.52481  0.07710  0.89210  Biso   1.000  C
  C156     1.0000 0.97519  0.42290  0.39210  Biso   1.000  C
  C157     1.0000 0.97519  0.57710  0.89210  Biso   1.000  C
  C158     1.0000 0.52481  0.92290  0.39210  Biso   1.000  C
  C159     1.0000 0.47519  0.92290  0.10790  Biso   1.000  C
  C160     1.0000 0.02481  0.57710  0.60790  Biso   1.000  C
  H145     1.0000 0.02190  0.50610  0.09510  Biso   1.000  H
  H146     1.0000 0.47810  0.99390  0.59510  Biso   1.000  H
  H147     1.0000 0.52190  0.99390  0.90490  Biso   1.000  H
  H148     1.0000 0.97810  0.50610  0.40490  Biso   1.000  H
  H149     1.0000 0.97810  0.49390  0.90490  Biso   1.000  H
  H150     1.0000 0.52190  0.00610  0.40490  Biso   1.000  H
  H151     1.0000 0.47810  0.00610  0.09510  Biso   1.000  H
  H152     1.0000 0.02190  0.49390  0.59510  Biso   1.000  H
  C161     1.0000 0.06343  0.26180  0.18500  Biso   1.000  C
  C162     1.0000 0.43657  0.23820  0.68500  Biso   1.000  C
  C163     1.0000 0.56343  0.23820  0.81500  Biso   1.000  C
  C164     1.0000 0.93657  0.26180  0.31500  Biso   1.000  C
  C165     1.0000 0.93657  0.73820  0.81500  Biso   1.000  C
  C166     1.0000 0.56343  0.76180  0.31500  Biso   1.000  C
  C167     1.0000 0.43657  0.76180  0.18500  Biso   1.000  C
  C168     1.0000 0.06343  0.73820  0.68500  Biso   1.000  C
  H153     1.0000 0.08750  0.23240  0.22610  Biso   1.000  H
  H154     1.0000 0.41250  0.26760  0.72610  Biso   1.000  H
  H155     1.0000 0.58750  0.26760  0.77390  Biso   1.000  H
  H156     1.0000 0.91250  0.23240  0.27390  Biso   1.000  H
  H157     1.0000 0.91250  0.76760  0.77390  Biso   1.000  H
  H158     1.0000 0.58750  0.73240  0.27390  Biso   1.000  H
  H159     1.0000 0.41250  0.73240  0.22610  Biso   1.000  H
  H160     1.0000 0.08750  0.76760  0.72610  Biso   1.000  H
  C169     1.0000 0.99055  0.33750  0.06740  Biso   1.000  C
  C170     1.0000 0.50945  0.16250  0.56740  Biso   1.000  C
  C171     1.0000 0.49055  0.16250  0.93260  Biso   1.000  C
  C172     1.0000 0.00945  0.33750  0.43260  Biso   1.000  C
  C173     1.0000 0.00945  0.66250  0.93260  Biso   1.000  C
  C174     1.0000 0.49055  0.83750  0.43260  Biso   1.000  C
  C175     1.0000 0.50945  0.83750  0.06740  Biso   1.000  C
  C176     1.0000 0.99055  0.66250  0.56740  Biso   1.000  C
  H161     1.0000 0.96480  0.36510  0.02740  Biso   1.000  H
  H162     1.0000 0.53520  0.13490  0.52740  Biso   1.000  H
  H163     1.0000 0.46480  0.13490  0.97260  Biso   1.000  H
  H164     1.0000 0.03520  0.36510  0.47260  Biso   1.000  H
  H165     1.0000 0.03520  0.63490  0.97260  Biso   1.000  H
  H166     1.0000 0.46480  0.86510  0.47260  Biso   1.000  H
  H167     1.0000 0.53520  0.86510  0.02740  Biso   1.000  H
  H168     1.0000 0.96480  0.63490  0.52740  Biso   1.000  H
  C177     1.0000 0.02794  0.18170  0.14180  Biso   1.000  C
  C178     1.0000 0.47206  0.31830  0.64180  Biso   1.000  C
  C179     1.0000 0.52794  0.31830  0.85820  Biso   1.000  C
  C180     1.0000 0.97206  0.18170  0.35820  Biso   1.000  C
  C181     1.0000 0.97206  0.81830  0.85820  Biso   1.000  C
  C182     1.0000 0.52794  0.68170  0.35820  Biso   1.000  C
  C183     1.0000 0.47206  0.68170  0.14180  Biso   1.000  C
  C184     1.0000 0.02794  0.81830  0.64180  Biso   1.000  C
  H169     1.0000 0.02890  0.09850  0.15490  Biso   1.000  H
  H170     1.0000 0.47110  0.40150  0.65490  Biso   1.000  H
  H171     1.0000 0.52890  0.40150  0.84510  Biso   1.000  H
  H172     1.0000 0.97110  0.09850  0.34510  Biso   1.000  H
  H173     1.0000 0.97110  0.90150  0.84510  Biso   1.000  H
  H174     1.0000 0.52890  0.59850  0.34510  Biso   1.000  H
  H175     1.0000 0.47110  0.59850  0.15490  Biso   1.000  H
  H176     1.0000 0.02890  0.90150  0.65490  Biso   1.000  H
  N1       1.0000 0.37881  0.47450  0.05642  Biso   1.000  N
  N2       1.0000 0.12119  0.02550  0.55642  Biso   1.000  N
  N3       1.0000 0.87881  0.02550  0.94358  Biso   1.000  N
  N4       1.0000 0.62119  0.47450  0.44358  Biso   1.000  N
  N5       1.0000 0.62119  0.52550  0.94358  Biso   1.000  N
  N6       1.0000 0.87881  0.97450  0.44358  Biso   1.000  N
  N7       1.0000 0.12119  0.97450  0.05642  Biso   1.000  N
  N8       1.0000 0.37881  0.52550  0.55642  Biso   1.000  N
  N9       1.0000 0.99245  0.21690  0.08260  Biso   1.000  N
  N10      1.0000 0.50755  0.28310  0.58260  Biso   1.000  N
  N11      1.0000 0.49245  0.28310  0.91740  Biso   1.000  N
  N12      1.0000 0.00755  0.21690  0.41740  Biso   1.000  N
  N13      1.0000 0.00755  0.78310  0.91740  Biso   1.000  N
  N14      1.0000 0.49245  0.71690  0.41740  Biso   1.000  N
  N15      1.0000 0.50755  0.71690  0.08260  Biso   1.000  N
  N16      1.0000 0.99245  0.78310  0.58260  Biso   1.000  N
  O1       1.0000 0.87739  0.11670  0.09794  Biso   1.000  O
  O2       1.0000 0.62261  0.38330  0.59794  Biso   1.000  O
  O3       1.0000 0.37739  0.38330  0.90206  Biso   1.000  O
  O4       1.0000 0.12261  0.11670  0.40206  Biso   1.000  O
  O5       1.0000 0.12261  0.88330  0.90206  Biso   1.000  O
  O6       1.0000 0.37739  0.61670  0.40206  Biso   1.000  O
  O7       1.0000 0.62261  0.61670  0.09794  Biso   1.000  O
  O8       1.0000 0.87739  0.88330  0.59794  Biso   1.000  O
  O9       1.0000 0.84870  0.27390  0.02322  Biso   1.000  O
  O10      1.0000 0.65130  0.22610  0.52322  Biso   1.000  O
  O11      1.0000 0.34870  0.22610  0.97678  Biso   1.000  O
  O12      1.0000 0.15130  0.27390  0.47678  Biso   1.000  O
  O13      1.0000 0.15130  0.72610  0.97678  Biso   1.000  O
  O14      1.0000 0.34870  0.77390  0.47678  Biso   1.000  O
  O15      1.0000 0.65130  0.77390  0.02322  Biso   1.000  O
  O16      1.0000 0.84870  0.72610  0.52322  Biso   1.000  O
  O17      1.0000 0.51029  0.41803  0.05940  Biso   1.000  O
  O18      1.0000 0.98971  0.08197  0.55940  Biso   1.000  O
  O19      1.0000 0.01029  0.08197  0.94060  Biso   1.000  O
  O20      1.0000 0.48971  0.41803  0.44060  Biso   1.000  O
  O21      1.0000 0.48971  0.58197  0.94060  Biso   1.000  O
  O22      1.0000 0.01029  0.91803  0.44060  Biso   1.000  O
  O23      1.0000 0.98971  0.91803  0.05940  Biso   1.000  O
  O24      1.0000 0.51029  0.58197  0.55940  Biso   1.000  O
  O25      1.0000 0.47919  0.24630  0.11770  Biso   1.000  O
  O26      1.0000 0.02081  0.25370  0.61770  Biso   1.000  O
  O27      1.0000 0.97919  0.25370  0.88230  Biso   1.000  O
  O28      1.0000 0.52081  0.24630  0.38230  Biso   1.000  O
  O29      1.0000 0.52081  0.75370  0.88230  Biso   1.000  O
  O30      1.0000 0.97919  0.74630  0.38230  Biso   1.000  O
  O31      1.0000 0.02081  0.74630  0.11770  Biso   1.000  O
  O32      1.0000 0.47919  0.75370  0.61770  Biso   1.000  O
  Cu1      1.0000 0.44111  0.39875  0.98328  Biso   1.000  Cu
  Cu2      1.0000 0.05889  0.10125  0.48328  Biso   1.000  Cu
  Cu3      1.0000 0.94111  0.10125  0.01672  Biso   1.000  Cu
  Cu4      1.0000 0.55889  0.39875  0.51672  Biso   1.000  Cu
  Cu5      1.0000 0.55889  0.60125  0.01672  Biso   1.000  Cu
  Cu6      1.0000 0.94111  0.89875  0.51672  Biso   1.000  Cu
  Cu7      1.0000 0.05889  0.89875  0.98328  Biso   1.000  Cu
  Cu8      1.0000 0.44111  0.60125  0.48328  Biso   1.000  Cu
