data_image0
_cell_length_a       12.3284
_cell_length_b       17.546
_cell_length_c       6.8376
_cell_angle_alpha    90
_cell_angle_beta     122.528
_cell_angle_gamma    90

_symmetry_space_group_name_H-M    "P 1"
_symmetry_int_tables_number       1

loop_
  _symmetry_equiv_pos_as_xyz
  'x, y, z'

loop_
  _atom_site_label
  _atom_site_occupancy
  _atom_site_fract_x
  _atom_site_fract_y
  _atom_site_fract_z
  _atom_site_thermal_displace_type
  _atom_site_B_iso_or_equiv
  _atom_site_type_symbol
  Cu1      1.0000 0.12637  0.03027  0.85126  Biso   1.000  Cu
  Cu2      1.0000 0.12637  0.96973  0.35126  Biso   1.000  Cu
  Cu3      1.0000 0.62637  0.53027  0.85126  Biso   1.000  Cu
  Cu4      1.0000 0.62637  0.46973  0.35126  Biso   1.000  Cu
  O1       1.0000 0.03500  0.94200  0.66550  Biso   1.000  O
  O2       1.0000 0.03500  0.05800  0.16550  Biso   1.000  O
  O3       1.0000 0.53500  0.44200  0.66550  Biso   1.000  O
  O4       1.0000 0.53500  0.55800  0.16550  Biso   1.000  O
  C1       1.0000 0.91000  0.93330  0.56570  Biso   1.000  C
  C2       1.0000 0.91000  0.06670  0.06570  Biso   1.000  C
  C3       1.0000 0.41000  0.43330  0.56570  Biso   1.000  C
  C4       1.0000 0.41000  0.56670  0.06570  Biso   1.000  C
  C5       1.0000 0.85660  0.85990  0.52460  Biso   1.000  C
  C6       1.0000 0.85660  0.14010  0.02460  Biso   1.000  C
  C7       1.0000 0.35660  0.35990  0.52460  Biso   1.000  C
  C8       1.0000 0.35660  0.64010  0.02460  Biso   1.000  C
  H1       1.0000 0.91070  0.81710  0.56840  Biso   1.000  H
  H2       1.0000 0.91070  0.18290  0.06840  Biso   1.000  H
  H3       1.0000 0.41070  0.31710  0.56840  Biso   1.000  H
  H4       1.0000 0.41070  0.68290  0.06840  Biso   1.000  H
  C9       1.0000 0.72490  0.84960  0.42010  Biso   1.000  C
  C10      1.0000 0.72490  0.15040  0.92010  Biso   1.000  C
  C11      1.0000 0.22490  0.34960  0.42010  Biso   1.000  C
  C12      1.0000 0.22490  0.65040  0.92010  Biso   1.000  C
  H5       1.0000 0.69190  0.79980  0.39570  Biso   1.000  H
  H6       1.0000 0.69190  0.20020  0.89570  Biso   1.000  H
  H7       1.0000 0.19190  0.29980  0.39570  Biso   1.000  H
  H8       1.0000 0.19190  0.70020  0.89570  Biso   1.000  H
  C13      1.0000 0.64230  0.90970  0.35210  Biso   1.000  C
  C14      1.0000 0.64230  0.09030  0.85210  Biso   1.000  C
  C15      1.0000 0.14230  0.40970  0.35210  Biso   1.000  C
  C16      1.0000 0.14230  0.59030  0.85210  Biso   1.000  C
  H9       1.0000 0.55350  0.90180  0.28270  Biso   1.000  H
  H10      1.0000 0.55350  0.09820  0.78270  Biso   1.000  H
  H11      1.0000 0.05350  0.40180  0.28270  Biso   1.000  H
  H12      1.0000 0.05350  0.59820  0.78270  Biso   1.000  H
  C17      1.0000 0.69200  0.98240  0.38730  Biso   1.000  C
  C18      1.0000 0.69200  0.01760  0.88730  Biso   1.000  C
  C19      1.0000 0.19200  0.48240  0.38730  Biso   1.000  C
  C20      1.0000 0.19200  0.51760  0.88730  Biso   1.000  C
  H13      1.0000 0.63540  0.02410  0.33780  Biso   1.000  H
  H14      1.0000 0.63540  0.97590  0.83780  Biso   1.000  H
  H15      1.0000 0.13540  0.52410  0.33780  Biso   1.000  H
  H16      1.0000 0.13540  0.47590  0.83780  Biso   1.000  H
  C21      1.0000 0.82410  0.99610  0.49440  Biso   1.000  C
  C22      1.0000 0.82410  0.00390  0.99440  Biso   1.000  C
  C23      1.0000 0.32410  0.49610  0.49440  Biso   1.000  C
  C24      1.0000 0.32410  0.50390  0.99440  Biso   1.000  C
  C25      1.0000 0.86720  0.07340  0.51300  Biso   1.000  C
  C26      1.0000 0.86720  0.92660  0.01300  Biso   1.000  C
  C27      1.0000 0.36720  0.57340  0.51300  Biso   1.000  C
  C28      1.0000 0.36720  0.42660  0.01300  Biso   1.000  C
  H17      1.0000 0.80310  0.11030  0.42880  Biso   1.000  H
  H18      1.0000 0.80310  0.88970  0.92880  Biso   1.000  H
  H19      1.0000 0.30310  0.61030  0.42880  Biso   1.000  H
  H20      1.0000 0.30310  0.38970  0.92880  Biso   1.000  H
  N1       1.0000 0.98290  0.09750  0.63130  Biso   1.000  N
  N2       1.0000 0.98290  0.90250  0.13130  Biso   1.000  N
  N3       1.0000 0.48290  0.59750  0.63130  Biso   1.000  N
  N4       1.0000 0.48290  0.40250  0.13130  Biso   1.000  N
  C29      1.0000 0.00680  0.17790  0.60600  Biso   1.000  C
  C30      1.0000 0.00680  0.82210  0.10600  Biso   1.000  C
  C31      1.0000 0.50680  0.67790  0.60600  Biso   1.000  C
  C32      1.0000 0.50680  0.32210  0.10600  Biso   1.000  C
  H21      1.0000 0.92420  0.20390  0.50730  Biso   1.000  H
  H22      1.0000 0.92420  0.79610  0.00730  Biso   1.000  H
  H23      1.0000 0.42420  0.70390  0.50730  Biso   1.000  H
  H24      1.0000 0.42420  0.29610  0.00730  Biso   1.000  H
  H25      1.0000 0.05430  0.18070  0.52850  Biso   1.000  H
  H26      1.0000 0.05430  0.81930  0.02850  Biso   1.000  H
  H27      1.0000 0.55430  0.68070  0.52850  Biso   1.000  H
  H28      1.0000 0.55430  0.31930  0.02850  Biso   1.000  H
  C33      1.0000 0.08210  0.21870  0.83580  Biso   1.000  C
  C34      1.0000 0.08210  0.78130  0.33580  Biso   1.000  C
  C35      1.0000 0.58210  0.71870  0.83580  Biso   1.000  C
  C36      1.0000 0.58210  0.28130  0.33580  Biso   1.000  C
  H29      1.0000 0.07820  0.27360  0.80690  Biso   1.000  H
  H30      1.0000 0.07820  0.72640  0.30690  Biso   1.000  H
  H31      1.0000 0.57820  0.77360  0.80690  Biso   1.000  H
  H32      1.0000 0.57820  0.22640  0.30690  Biso   1.000  H
  H33      1.0000 0.04090  0.20920  0.92240  Biso   1.000  H
  H34      1.0000 0.04090  0.79080  0.42240  Biso   1.000  H
  H35      1.0000 0.54090  0.70920  0.92240  Biso   1.000  H
  H36      1.0000 0.54090  0.29080  0.42240  Biso   1.000  H
  C37      1.0000 0.22080  0.19530  0.98350  Biso   1.000  C
  C38      1.0000 0.22080  0.80470  0.48350  Biso   1.000  C
  C39      1.0000 0.72080  0.69530  0.98350  Biso   1.000  C
  C40      1.0000 0.72080  0.30470  0.48350  Biso   1.000  C
  H37      1.0000 0.26060  0.20150  0.89310  Biso   1.000  H
  H38      1.0000 0.26060  0.79850  0.39310  Biso   1.000  H
  H39      1.0000 0.76060  0.70150  0.89310  Biso   1.000  H
  H40      1.0000 0.76060  0.29850  0.39310  Biso   1.000  H
  H41      1.0000 0.26510  0.22970  0.11710  Biso   1.000  H
  H42      1.0000 0.26510  0.77030  0.61710  Biso   1.000  H
  H43      1.0000 0.76510  0.72970  0.11710  Biso   1.000  H
  H44      1.0000 0.76510  0.27030  0.61710  Biso   1.000  H
  N5       1.0000 0.24080  0.11610  0.06870  Biso   1.000  N
  N6       1.0000 0.24080  0.88390  0.56870  Biso   1.000  N
  N7       1.0000 0.74080  0.61610  0.06870  Biso   1.000  N
  N8       1.0000 0.74080  0.38390  0.56870  Biso   1.000  N
  H45      1.0000 0.21500  0.11500  0.15800  Biso   1.000  H
  H46      1.0000 0.21500  0.88500  0.65800  Biso   1.000  H
  H47      1.0000 0.71500  0.61500  0.15800  Biso   1.000  H
  H48      1.0000 0.71500  0.38500  0.65800  Biso   1.000  H
  C41      1.0000 0.37930  0.09820  0.19800  Biso   1.000  C
  C42      1.0000 0.37930  0.90180  0.69800  Biso   1.000  C
  C43      1.0000 0.87930  0.59820  0.19800  Biso   1.000  C
  C44      1.0000 0.87930  0.40180  0.69800  Biso   1.000  C
  H49      1.0000 0.40750  0.09400  0.09050  Biso   1.000  H
  H50      1.0000 0.40750  0.90600  0.59050  Biso   1.000  H
  H51      1.0000 0.90750  0.59400  0.09050  Biso   1.000  H
  H52      1.0000 0.90750  0.40600  0.59050  Biso   1.000  H
  H53      1.0000 0.39460  0.05040  0.28000  Biso   1.000  H
  H54      1.0000 0.39460  0.94960  0.78000  Biso   1.000  H
  H55      1.0000 0.89460  0.55040  0.28000  Biso   1.000  H
  H56      1.0000 0.89460  0.44960  0.78000  Biso   1.000  H
  H57      1.0000 0.42700  0.13860  0.30870  Biso   1.000  H
  H58      1.0000 0.42700  0.86140  0.80870  Biso   1.000  H
  H59      1.0000 0.92700  0.63860  0.30870  Biso   1.000  H
  H60      1.0000 0.92700  0.36140  0.80870  Biso   1.000  H
  N9       1.0000 0.22970  0.95920  0.12210  Biso   1.000  N
  N10      1.0000 0.22970  0.04080  0.62210  Biso   1.000  N
  N11      1.0000 0.72970  0.45920  0.12210  Biso   1.000  N
  N12      1.0000 0.72970  0.54080  0.62210  Biso   1.000  N
  N13      1.0000 0.26820  0.90010  0.09770  Biso   1.000  N
  N14      1.0000 0.26820  0.09990  0.59770  Biso   1.000  N
  N15      1.0000 0.76820  0.40010  0.09770  Biso   1.000  N
  N16      1.0000 0.76820  0.59990  0.59770  Biso   1.000  N
  N17      1.0000 0.30720  0.84250  0.07820  Biso   1.000  N
  N18      1.0000 0.30720  0.15750  0.57820  Biso   1.000  N
  N19      1.0000 0.80720  0.34250  0.07820  Biso   1.000  N
  N20      1.0000 0.80720  0.65750  0.57820  Biso   1.000  N
