data_image0
_cell_length_a       12.2687
_cell_length_b       17.4391
_cell_length_c       6.7857
_cell_angle_alpha    90
_cell_angle_beta     122.552
_cell_angle_gamma    90

_symmetry_space_group_name_H-M    "P 1"
_symmetry_int_tables_number       1

loop_
  _symmetry_equiv_pos_as_xyz
  'x, y, z'

loop_
  _atom_site_label
  _atom_site_occupancy
  _atom_site_fract_x
  _atom_site_fract_y
  _atom_site_fract_z
  _atom_site_thermal_displace_type
  _atom_site_B_iso_or_equiv
  _atom_site_type_symbol
  C1       1.0000 0.03150  0.56720  0.05510  Biso   1.000  C
  C2       1.0000 0.03150  0.43280  0.55510  Biso   1.000  C
  C3       1.0000 0.53150  0.06720  0.05510  Biso   1.000  C
  C4       1.0000 0.53150  0.93280  0.55510  Biso   1.000  C
  C5       1.0000 0.97640  0.64070  0.01340  Biso   1.000  C
  C6       1.0000 0.97640  0.35930  0.51340  Biso   1.000  C
  C7       1.0000 0.47640  0.14070  0.01340  Biso   1.000  C
  C8       1.0000 0.47640  0.85930  0.51340  Biso   1.000  C
  H1       1.0000 0.03020  0.68340  0.05800  Biso   1.000  H
  H2       1.0000 0.03020  0.31660  0.55800  Biso   1.000  H
  H3       1.0000 0.53020  0.18340  0.05800  Biso   1.000  H
  H4       1.0000 0.53020  0.81660  0.55800  Biso   1.000  H
  C9       1.0000 0.84580  0.65160  0.90890  Biso   1.000  C
  C10      1.0000 0.84580  0.34840  0.40890  Biso   1.000  C
  C11      1.0000 0.34580  0.15160  0.90890  Biso   1.000  C
  C12      1.0000 0.34580  0.84840  0.40890  Biso   1.000  C
  H5       1.0000 0.81280  0.70110  0.88100  Biso   1.000  H
  H6       1.0000 0.81280  0.29890  0.38100  Biso   1.000  H
  H7       1.0000 0.31280  0.20110  0.88100  Biso   1.000  H
  H8       1.0000 0.31280  0.79890  0.38100  Biso   1.000  H
  C13      1.0000 0.76280  0.58990  0.84500  Biso   1.000  C
  C14      1.0000 0.76280  0.41010  0.34500  Biso   1.000  C
  C15      1.0000 0.26280  0.08990  0.84500  Biso   1.000  C
  C16      1.0000 0.26280  0.91010  0.34500  Biso   1.000  C
  H9       1.0000 0.67490  0.59800  0.77950  Biso   1.000  H
  H10      1.0000 0.67490  0.40200  0.27950  Biso   1.000  H
  H11      1.0000 0.17490  0.09800  0.77950  Biso   1.000  H
  H12      1.0000 0.17490  0.90200  0.27950  Biso   1.000  H
  C17      1.0000 0.81060  0.51630  0.87710  Biso   1.000  C
  C18      1.0000 0.81060  0.48370  0.37710  Biso   1.000  C
  C19      1.0000 0.31060  0.01630  0.87710  Biso   1.000  C
  C20      1.0000 0.31060  0.98370  0.37710  Biso   1.000  C
  H13      1.0000 0.75450  0.47470  0.82810  Biso   1.000  H
  H14      1.0000 0.75450  0.52530  0.32810  Biso   1.000  H
  H15      1.0000 0.25450  0.97470  0.82810  Biso   1.000  H
  H16      1.0000 0.25450  0.02530  0.32810  Biso   1.000  H
  C21      1.0000 0.94480  0.50430  0.98490  Biso   1.000  C
  C22      1.0000 0.94480  0.49570  0.48490  Biso   1.000  C
  C23      1.0000 0.44480  0.00430  0.98490  Biso   1.000  C
  C24      1.0000 0.44480  0.99570  0.48490  Biso   1.000  C
  C25      1.0000 0.98490  0.42630  0.99770  Biso   1.000  C
  C26      1.0000 0.98490  0.57370  0.49770  Biso   1.000  C
  C27      1.0000 0.48490  0.92630  0.99770  Biso   1.000  C
  C28      1.0000 0.48490  0.07370  0.49770  Biso   1.000  C
  H17      1.0000 0.92090  0.38990  0.91310  Biso   1.000  H
  H18      1.0000 0.92090  0.61010  0.41310  Biso   1.000  H
  H19      1.0000 0.42090  0.88990  0.91310  Biso   1.000  H
  H20      1.0000 0.42090  0.11010  0.41310  Biso   1.000  H
  C29      1.0000 0.12810  0.32100  0.09180  Biso   1.000  C
  C30      1.0000 0.12810  0.67900  0.59180  Biso   1.000  C
  C31      1.0000 0.62810  0.82100  0.09180  Biso   1.000  C
  C32      1.0000 0.62810  0.17900  0.59180  Biso   1.000  C
  H21      1.0000 0.04600  0.29520  0.99160  Biso   1.000  H
  H22      1.0000 0.04600  0.70480  0.49160  Biso   1.000  H
  H23      1.0000 0.54600  0.79520  0.99160  Biso   1.000  H
  H24      1.0000 0.54600  0.20480  0.49160  Biso   1.000  H
  H25      1.0000 0.17630  0.31840  0.01620  Biso   1.000  H
  H26      1.0000 0.17630  0.68160  0.51620  Biso   1.000  H
  H27      1.0000 0.67630  0.81840  0.01620  Biso   1.000  H
  H28      1.0000 0.67630  0.18160  0.51620  Biso   1.000  H
  C33      1.0000 0.20150  0.28020  0.31920  Biso   1.000  C
  C34      1.0000 0.20150  0.71980  0.81920  Biso   1.000  C
  C35      1.0000 0.70150  0.78020  0.31920  Biso   1.000  C
  C36      1.0000 0.70150  0.21980  0.81920  Biso   1.000  C
  H29      1.0000 0.19680  0.22560  0.28910  Biso   1.000  H
  H30      1.0000 0.19680  0.77440  0.78910  Biso   1.000  H
  H31      1.0000 0.69680  0.72560  0.28910  Biso   1.000  H
  H32      1.0000 0.69680  0.27440  0.78910  Biso   1.000  H
  H33      1.0000 0.15960  0.28960  0.40410  Biso   1.000  H
  H34      1.0000 0.15960  0.71040  0.90410  Biso   1.000  H
  H35      1.0000 0.65960  0.78960  0.40410  Biso   1.000  H
  H36      1.0000 0.65960  0.21040  0.90410  Biso   1.000  H
  C37      1.0000 0.34180  0.30280  0.47300  Biso   1.000  C
  C38      1.0000 0.34180  0.69720  0.97300  Biso   1.000  C
  C39      1.0000 0.84180  0.80280  0.47300  Biso   1.000  C
  C40      1.0000 0.84180  0.19720  0.97300  Biso   1.000  C
  H37      1.0000 0.38430  0.26850  0.60650  Biso   1.000  H
  H38      1.0000 0.38430  0.73150  0.10650  Biso   1.000  H
  H39      1.0000 0.88430  0.76850  0.60650  Biso   1.000  H
  H40      1.0000 0.88430  0.23150  0.10650  Biso   1.000  H
  H41      1.0000 0.38310  0.29650  0.38580  Biso   1.000  H
  H42      1.0000 0.38310  0.70350  0.88580  Biso   1.000  H
  H43      1.0000 0.88310  0.79650  0.38580  Biso   1.000  H
  H44      1.0000 0.88310  0.20350  0.88580  Biso   1.000  H
  C41      1.0000 0.49970  0.40080  0.68920  Biso   1.000  C
  C42      1.0000 0.49970  0.59920  0.18920  Biso   1.000  C
  C43      1.0000 0.99970  0.90080  0.68920  Biso   1.000  C
  C44      1.0000 0.99970  0.09920  0.18920  Biso   1.000  C
  H45      1.0000 0.54640  0.36220  0.80610  Biso   1.000  H
  H46      1.0000 0.54640  0.63780  0.30610  Biso   1.000  H
  H47      1.0000 0.04640  0.86220  0.80610  Biso   1.000  H
  H48      1.0000 0.04640  0.13780  0.30610  Biso   1.000  H
  H49      1.0000 0.51440  0.44990  0.76320  Biso   1.000  H
  H50      1.0000 0.51440  0.55010  0.26320  Biso   1.000  H
  H51      1.0000 0.01440  0.94990  0.76320  Biso   1.000  H
  H52      1.0000 0.01440  0.05010  0.26320  Biso   1.000  H
  H53      1.0000 0.52920  0.40190  0.58370  Biso   1.000  H
  H54      1.0000 0.52920  0.59810  0.08370  Biso   1.000  H
  H55      1.0000 0.02920  0.90190  0.58370  Biso   1.000  H
  H56      1.0000 0.02920  0.09810  0.08370  Biso   1.000  H
  N1       1.0000 0.35230  0.54070  0.61740  Biso   1.000  N
  N2       1.0000 0.35230  0.45930  0.11740  Biso   1.000  N
  N3       1.0000 0.85230  0.04070  0.61740  Biso   1.000  N
  N4       1.0000 0.85230  0.95930  0.11740  Biso   1.000  N
  N5       1.0000 0.39080  0.60120  0.59020  Biso   1.000  N
  N6       1.0000 0.39080  0.39880  0.09020  Biso   1.000  N
  N7       1.0000 0.89080  0.10120  0.59020  Biso   1.000  N
  N8       1.0000 0.89080  0.89880  0.09020  Biso   1.000  N
  N9       1.0000 0.42630  0.65870  0.56560  Biso   1.000  N
  N10      1.0000 0.42630  0.34130  0.06560  Biso   1.000  N
  N11      1.0000 0.92630  0.15870  0.56560  Biso   1.000  N
  N12      1.0000 0.92630  0.84130  0.06560  Biso   1.000  N
  N13      1.0000 0.10350  0.40280  0.11790  Biso   1.000  N
  N14      1.0000 0.10350  0.59720  0.61790  Biso   1.000  N
  N15      1.0000 0.60350  0.90280  0.11790  Biso   1.000  N
  N16      1.0000 0.60350  0.09720  0.61790  Biso   1.000  N
  N17      1.0000 0.36010  0.38300  0.55780  Biso   1.000  N
  N18      1.0000 0.36010  0.61700  0.05780  Biso   1.000  N
  N19      1.0000 0.86010  0.88300  0.55780  Biso   1.000  N
  N20      1.0000 0.86010  0.11700  0.05780  Biso   1.000  N
  H57      1.0000 0.34040  0.38150  0.66930  Biso   1.000  H
  H58      1.0000 0.34040  0.61850  0.16930  Biso   1.000  H
  H59      1.0000 0.84040  0.88150  0.66930  Biso   1.000  H
  H60      1.0000 0.84040  0.11850  0.16930  Biso   1.000  H
  O1       1.0000 0.15720  0.55920  0.15460  Biso   1.000  O
  O2       1.0000 0.15720  0.44080  0.65460  Biso   1.000  O
  O3       1.0000 0.65720  0.05920  0.15460  Biso   1.000  O
  O4       1.0000 0.65720  0.94080  0.65460  Biso   1.000  O
  Cu1      1.0000 0.24828  0.46956  0.34093  Biso   1.000  Cu
  Cu2      1.0000 0.24828  0.53044  0.84093  Biso   1.000  Cu
  Cu3      1.0000 0.74828  0.96956  0.34093  Biso   1.000  Cu
  Cu4      1.0000 0.74828  0.03044  0.84093  Biso   1.000  Cu
