data_image0
_cell_length_a       12.427
_cell_length_b       17.568
_cell_length_c       6.8755
_cell_angle_alpha    90
_cell_angle_beta     122.749
_cell_angle_gamma    90

_symmetry_space_group_name_H-M    "P 1"
_symmetry_int_tables_number       1

loop_
  _symmetry_equiv_pos_as_xyz
  'x, y, z'

loop_
  _atom_site_label
  _atom_site_occupancy
  _atom_site_fract_x
  _atom_site_fract_y
  _atom_site_fract_z
  _atom_site_thermal_displace_type
  _atom_site_B_iso_or_equiv
  _atom_site_type_symbol
  Cu1      1.0000 0.99839  0.03028  0.22268  Biso   1.000  Cu
  Cu2      1.0000 0.99839  0.96972  0.72268  Biso   1.000  Cu
  Cu3      1.0000 0.49839  0.53028  0.22268  Biso   1.000  Cu
  Cu4      1.0000 0.49839  0.46972  0.72268  Biso   1.000  Cu
  O1       1.0000 0.90730  0.94290  0.03620  Biso   1.000  O
  O2       1.0000 0.90730  0.05710  0.53620  Biso   1.000  O
  O3       1.0000 0.40730  0.44290  0.03620  Biso   1.000  O
  O4       1.0000 0.40730  0.55710  0.53620  Biso   1.000  O
  N1       1.0000 0.85550  0.09780  0.00440  Biso   1.000  N
  N2       1.0000 0.85550  0.90220  0.50440  Biso   1.000  N
  N3       1.0000 0.35550  0.59780  0.00440  Biso   1.000  N
  N4       1.0000 0.35550  0.40220  0.50440  Biso   1.000  N
  N5       1.0000 0.11220  0.11570  0.43950  Biso   1.000  N
  N6       1.0000 0.11220  0.88430  0.93950  Biso   1.000  N
  N7       1.0000 0.61220  0.61570  0.43950  Biso   1.000  N
  N8       1.0000 0.61220  0.38430  0.93950  Biso   1.000  N
  N9       1.0000 0.10160  0.95980  0.49260  Biso   1.000  N
  N10      1.0000 0.10160  0.04020  0.99260  Biso   1.000  N
  N11      1.0000 0.60160  0.45980  0.49260  Biso   1.000  N
  N12      1.0000 0.60160  0.54020  0.99260  Biso   1.000  N
  N13      1.0000 0.14010  0.90100  0.46780  Biso   1.000  N
  N14      1.0000 0.14010  0.09900  0.96780  Biso   1.000  N
  N15      1.0000 0.64010  0.40100  0.46780  Biso   1.000  N
  N16      1.0000 0.64010  0.59900  0.96780  Biso   1.000  N
  N17      1.0000 0.18040  0.84380  0.45040  Biso   1.000  N
  N18      1.0000 0.18040  0.15620  0.95040  Biso   1.000  N
  N19      1.0000 0.68040  0.34380  0.45040  Biso   1.000  N
  N20      1.0000 0.68040  0.65620  0.95040  Biso   1.000  N
  C1       1.0000 0.69860  0.99600  0.86840  Biso   1.000  C
  C2       1.0000 0.69860  0.00400  0.36840  Biso   1.000  C
  C3       1.0000 0.19860  0.49600  0.86840  Biso   1.000  C
  C4       1.0000 0.19860  0.50400  0.36840  Biso   1.000  C
  C5       1.0000 0.78380  0.93430  0.93750  Biso   1.000  C
  C6       1.0000 0.78380  0.06570  0.43750  Biso   1.000  C
  C7       1.0000 0.28380  0.43430  0.93750  Biso   1.000  C
  C8       1.0000 0.28380  0.56570  0.43750  Biso   1.000  C
  C9       1.0000 0.73010  0.86080  0.89810  Biso   1.000  C
  C10      1.0000 0.73010  0.13920  0.39810  Biso   1.000  C
  C11      1.0000 0.23010  0.36080  0.89810  Biso   1.000  C
  C12      1.0000 0.23010  0.63920  0.39810  Biso   1.000  C
  H1       1.0000 0.78320  0.81840  0.94380  Biso   1.000  H
  H2       1.0000 0.78320  0.18160  0.44380  Biso   1.000  H
  H3       1.0000 0.28320  0.31840  0.94380  Biso   1.000  H
  H4       1.0000 0.28320  0.68160  0.44380  Biso   1.000  H
  C13      1.0000 0.60040  0.85100  0.79290  Biso   1.000  C
  C14      1.0000 0.60040  0.14900  0.29290  Biso   1.000  C
  C15      1.0000 0.10040  0.35100  0.79290  Biso   1.000  C
  C16      1.0000 0.10040  0.64900  0.29290  Biso   1.000  C
  H5       1.0000 0.56790  0.80180  0.76830  Biso   1.000  H
  H6       1.0000 0.56790  0.19820  0.26830  Biso   1.000  H
  H7       1.0000 0.06790  0.30180  0.76830  Biso   1.000  H
  H8       1.0000 0.06790  0.69820  0.26830  Biso   1.000  H
  C17      1.0000 0.51950  0.90970  0.72480  Biso   1.000  C
  C18      1.0000 0.51950  0.09030  0.22480  Biso   1.000  C
  C19      1.0000 0.01950  0.40970  0.72480  Biso   1.000  C
  C20      1.0000 0.01950  0.59030  0.22480  Biso   1.000  C
  H9       1.0000 0.43210  0.90150  0.65370  Biso   1.000  H
  H10      1.0000 0.43210  0.09850  0.15370  Biso   1.000  H
  H11      1.0000 0.93210  0.40150  0.65370  Biso   1.000  H
  H12      1.0000 0.93210  0.59850  0.15370  Biso   1.000  H
  C21      1.0000 0.56670  0.98130  0.76100  Biso   1.000  C
  C22      1.0000 0.56670  0.01870  0.26100  Biso   1.000  C
  C23      1.0000 0.06670  0.48130  0.76100  Biso   1.000  C
  C24      1.0000 0.06670  0.51870  0.26100  Biso   1.000  C
  H13      1.0000 0.51030  0.02220  0.71360  Biso   1.000  H
  H14      1.0000 0.51030  0.97780  0.21360  Biso   1.000  H
  H15      1.0000 0.01030  0.52220  0.71360  Biso   1.000  H
  H16      1.0000 0.01030  0.47780  0.21360  Biso   1.000  H
  C25      1.0000 0.74170  0.07260  0.88730  Biso   1.000  C
  C26      1.0000 0.74170  0.92740  0.38730  Biso   1.000  C
  C27      1.0000 0.24170  0.57260  0.88730  Biso   1.000  C
  C28      1.0000 0.24170  0.42740  0.38730  Biso   1.000  C
  H17      1.0000 0.67830  0.10870  0.80290  Biso   1.000  H
  H18      1.0000 0.67830  0.89130  0.30290  Biso   1.000  H
  H19      1.0000 0.17830  0.60870  0.80290  Biso   1.000  H
  H20      1.0000 0.17830  0.39130  0.30290  Biso   1.000  H
  C29      1.0000 0.87990  0.17850  0.98220  Biso   1.000  C
  C30      1.0000 0.87990  0.82150  0.48220  Biso   1.000  C
  C31      1.0000 0.37990  0.67850  0.98220  Biso   1.000  C
  C32      1.0000 0.37990  0.32150  0.48220  Biso   1.000  C
  H21      1.0000 0.79870  0.20470  0.88750  Biso   1.000  H
  H22      1.0000 0.79870  0.79530  0.38750  Biso   1.000  H
  H23      1.0000 0.29870  0.70470  0.88750  Biso   1.000  H
  H24      1.0000 0.29870  0.29530  0.38750  Biso   1.000  H
  H25      1.0000 0.92540  0.18180  0.90410  Biso   1.000  H
  H26      1.0000 0.92540  0.81820  0.40410  Biso   1.000  H
  H27      1.0000 0.42540  0.68180  0.90410  Biso   1.000  H
  H28      1.0000 0.42540  0.31820  0.40410  Biso   1.000  H
  C33      1.0000 0.95750  0.21810  0.21460  Biso   1.000  C
  C34      1.0000 0.95750  0.78190  0.71460  Biso   1.000  C
  C35      1.0000 0.45750  0.71810  0.21460  Biso   1.000  C
  C36      1.0000 0.45750  0.28190  0.71460  Biso   1.000  C
  H29      1.0000 0.95410  0.27260  0.18930  Biso   1.000  H
  H30      1.0000 0.95410  0.72740  0.68930  Biso   1.000  H
  H31      1.0000 0.45410  0.77260  0.18930  Biso   1.000  H
  H32      1.0000 0.45410  0.22740  0.68930  Biso   1.000  H
  H33      1.0000 0.91860  0.20800  0.30210  Biso   1.000  H
  H34      1.0000 0.91860  0.79200  0.80210  Biso   1.000  H
  H35      1.0000 0.41860  0.70800  0.30210  Biso   1.000  H
  H36      1.0000 0.41860  0.29200  0.80210  Biso   1.000  H
  C37      1.0000 0.09170  0.19420  0.35190  Biso   1.000  C
  C38      1.0000 0.09170  0.80580  0.85190  Biso   1.000  C
  C39      1.0000 0.59170  0.69420  0.35190  Biso   1.000  C
  C40      1.0000 0.59170  0.30580  0.85190  Biso   1.000  C
  H37      1.0000 0.13820  0.22850  0.48240  Biso   1.000  H
  H38      1.0000 0.13820  0.77150  0.98240  Biso   1.000  H
  H39      1.0000 0.63820  0.72850  0.48240  Biso   1.000  H
  H40      1.0000 0.63820  0.27150  0.98240  Biso   1.000  H
  H41      1.0000 0.12770  0.19920  0.25770  Biso   1.000  H
  H42      1.0000 0.12770  0.80080  0.75770  Biso   1.000  H
  H43      1.0000 0.62770  0.69920  0.25770  Biso   1.000  H
  H44      1.0000 0.62770  0.30080  0.75770  Biso   1.000  H
  C41      1.0000 0.24980  0.09800  0.56470  Biso   1.000  C
  C42      1.0000 0.24980  0.90200  0.06470  Biso   1.000  C
  C43      1.0000 0.74980  0.59800  0.56470  Biso   1.000  C
  C44      1.0000 0.74980  0.40200  0.06470  Biso   1.000  C
  H45      1.0000 0.27780  0.09960  0.45920  Biso   1.000  H
  H46      1.0000 0.27780  0.90040  0.95920  Biso   1.000  H
  H47      1.0000 0.77780  0.59960  0.45920  Biso   1.000  H
  H48      1.0000 0.77780  0.40040  0.95920  Biso   1.000  H
  H49      1.0000 0.26460  0.04820  0.63160  Biso   1.000  H
  H50      1.0000 0.26460  0.95180  0.13160  Biso   1.000  H
  H51      1.0000 0.76460  0.54820  0.63160  Biso   1.000  H
  H52      1.0000 0.76460  0.45180  0.13160  Biso   1.000  H
  H53      1.0000 0.29670  0.13490  0.68510  Biso   1.000  H
  H54      1.0000 0.29670  0.86510  0.18510  Biso   1.000  H
  H55      1.0000 0.79670  0.63490  0.68510  Biso   1.000  H
  H56      1.0000 0.79670  0.36510  0.18510  Biso   1.000  H
  H57      1.0000 0.09100  0.10600  0.54300  Biso   1.000  H
  H58      1.0000 0.09100  0.89400  0.04300  Biso   1.000  H
  H59      1.0000 0.59100  0.60600  0.54300  Biso   1.000  H
  H60      1.0000 0.59100  0.39400  0.04300  Biso   1.000  H
