data_image0
_cell_length_a       10.7513
_cell_length_b       5.8042
_cell_length_c       16.4521
_cell_angle_alpha    90
_cell_angle_beta     93.514
_cell_angle_gamma    90

_symmetry_space_group_name_H-M    "P 1"
_symmetry_int_tables_number       1

loop_
  _symmetry_equiv_pos_as_xyz
  'x, y, z'

loop_
  _atom_site_label
  _atom_site_occupancy
  _atom_site_fract_x
  _atom_site_fract_y
  _atom_site_fract_z
  _atom_site_thermal_displace_type
  _atom_site_B_iso_or_equiv
  _atom_site_type_symbol
  Cu1      1.0000 0.10607  0.84276  0.63999  Biso   1.000  Cu
  Cu2      1.0000 0.89393  0.34276  0.86001  Biso   1.000  Cu
  Cu3      1.0000 0.89393  0.15724  0.36001  Biso   1.000  Cu
  Cu4      1.0000 0.10607  0.65724  0.13999  Biso   1.000  Cu
  C1       1.0000 0.91672  0.93100  0.73635  Biso   1.000  C
  C2       1.0000 0.08328  0.43100  0.76365  Biso   1.000  C
  C3       1.0000 0.08328  0.06900  0.26365  Biso   1.000  C
  C4       1.0000 0.91672  0.56900  0.23635  Biso   1.000  C
  C5       1.0000 0.86308  0.79580  0.66185  Biso   1.000  C
  C6       1.0000 0.13692  0.29580  0.83815  Biso   1.000  C
  C7       1.0000 0.13692  0.20420  0.33815  Biso   1.000  C
  C8       1.0000 0.86308  0.70420  0.16185  Biso   1.000  C
  C9       1.0000 0.68723  0.60210  0.59324  Biso   1.000  C
  C10      1.0000 0.31277  0.10210  0.90676  Biso   1.000  C
  C11      1.0000 0.31277  0.39790  0.40676  Biso   1.000  C
  C12      1.0000 0.68723  0.89790  0.09324  Biso   1.000  C
  H1       1.0000 0.59760  0.62330  0.59080  Biso   1.000  H
  H2       1.0000 0.40240  0.12330  0.90920  Biso   1.000  H
  H3       1.0000 0.40240  0.37670  0.40920  Biso   1.000  H
  H4       1.0000 0.59760  0.87670  0.09080  Biso   1.000  H
  H5       1.0000 0.71740  0.65190  0.54170  Biso   1.000  H
  H6       1.0000 0.28260  0.15190  0.95830  Biso   1.000  H
  H7       1.0000 0.28260  0.34810  0.45830  Biso   1.000  H
  H8       1.0000 0.71740  0.84810  0.04170  Biso   1.000  H
  C13      1.0000 0.71832  0.34640  0.60697  Biso   1.000  C
  C14      1.0000 0.28168  0.84640  0.89303  Biso   1.000  C
  C15      1.0000 0.28168  0.65360  0.39303  Biso   1.000  C
  C16      1.0000 0.71832  0.15360  0.10697  Biso   1.000  C
  H9       1.0000 0.68380  0.29400  0.65680  Biso   1.000  H
  H10      1.0000 0.31620  0.79400  0.84320  Biso   1.000  H
  H11      1.0000 0.31620  0.70600  0.34320  Biso   1.000  H
  H12      1.0000 0.68380  0.20600  0.15680  Biso   1.000  H
  H13      1.0000 0.80800  0.32640  0.61260  Biso   1.000  H
  H14      1.0000 0.19200  0.82640  0.88740  Biso   1.000  H
  H15      1.0000 0.19200  0.67360  0.38740  Biso   1.000  H
  H16      1.0000 0.80800  0.17360  0.11260  Biso   1.000  H
  C17      1.0000 0.72569  0.18770  0.47106  Biso   1.000  C
  C18      1.0000 0.27431  0.68770  0.02894  Biso   1.000  C
  C19      1.0000 0.27431  0.81230  0.52894  Biso   1.000  C
  C20      1.0000 0.72569  0.31230  0.97106  Biso   1.000  C
  C21      1.0000 0.66400  0.04220  0.40123  Biso   1.000  C
  C22      1.0000 0.33600  0.54220  0.09877  Biso   1.000  C
  C23      1.0000 0.33600  0.95780  0.59877  Biso   1.000  C
  C24      1.0000 0.66400  0.45780  0.90123  Biso   1.000  C
  N1       1.0000 0.74467  0.74110  0.65911  Biso   1.000  N
  N2       1.0000 0.25533  0.24110  0.84089  Biso   1.000  N
  N3       1.0000 0.25533  0.25890  0.34089  Biso   1.000  N
  N4       1.0000 0.74467  0.75890  0.15911  Biso   1.000  N
  H17      1.0000 0.69960  0.78850  0.69720  Biso   1.000  H
  H18      1.0000 0.30040  0.28850  0.80280  Biso   1.000  H
  H19      1.0000 0.30040  0.21150  0.30280  Biso   1.000  H
  H20      1.0000 0.69960  0.71150  0.19720  Biso   1.000  H
  N5       1.0000 0.66682  0.20950  0.53837  Biso   1.000  N
  N6       1.0000 0.33318  0.70950  0.96163  Biso   1.000  N
  N7       1.0000 0.33318  0.79050  0.46163  Biso   1.000  N
  N8       1.0000 0.66682  0.29050  0.03837  Biso   1.000  N
  H21      1.0000 0.59630  0.14160  0.54210  Biso   1.000  H
  H22      1.0000 0.40370  0.64160  0.95790  Biso   1.000  H
  H23      1.0000 0.40370  0.85840  0.45790  Biso   1.000  H
  H24      1.0000 0.59630  0.35840  0.04210  Biso   1.000  H
  O1       1.0000 0.84622  0.99380  0.78887  Biso   1.000  O
  O2       1.0000 0.15378  0.49380  0.71113  Biso   1.000  O
  O3       1.0000 0.15378  0.00620  0.21113  Biso   1.000  O
  O4       1.0000 0.84622  0.50620  0.28887  Biso   1.000  O
  O5       1.0000 0.03286  0.96700  0.73558  Biso   1.000  O
  O6       1.0000 0.96714  0.46700  0.76442  Biso   1.000  O
  O7       1.0000 0.96714  0.03300  0.26442  Biso   1.000  O
  O8       1.0000 0.03286  0.53300  0.23558  Biso   1.000  O
  O9       1.0000 0.93467  0.74590  0.60709  Biso   1.000  O
  O10      1.0000 0.06533  0.24590  0.89291  Biso   1.000  O
  O11      1.0000 0.06533  0.25410  0.39291  Biso   1.000  O
  O12      1.0000 0.93467  0.75410  0.10709  Biso   1.000  O
  O13      1.0000 0.82907  0.27930  0.46056  Biso   1.000  O
  O14      1.0000 0.17093  0.77930  0.03944  Biso   1.000  O
  O15      1.0000 0.17093  0.72070  0.53944  Biso   1.000  O
  O16      1.0000 0.82907  0.22070  0.96056  Biso   1.000  O
  O17      1.0000 0.72372  0.04220  0.33752  Biso   1.000  O
  O18      1.0000 0.27628  0.54220  0.16248  Biso   1.000  O
  O19      1.0000 0.27628  0.95780  0.66248  Biso   1.000  O
  O20      1.0000 0.72372  0.45780  0.83752  Biso   1.000  O
  O21      1.0000 0.56525  0.94130  0.41168  Biso   1.000  O
  O22      1.0000 0.43475  0.44130  0.08832  Biso   1.000  O
  O23      1.0000 0.43475  0.05870  0.58832  Biso   1.000  O
  O24      1.0000 0.56525  0.55870  0.91168  Biso   1.000  O
  O25      1.0000 0.07854  0.20310  0.57207  Biso   1.000  O
  O26      1.0000 0.92146  0.70310  0.92793  Biso   1.000  O
  O27      1.0000 0.92146  0.79690  0.42793  Biso   1.000  O
  O28      1.0000 0.07854  0.29690  0.07207  Biso   1.000  O
  H25      1.0000 0.06000  0.24400  0.51930  Biso   1.000  H
  H26      1.0000 0.94000  0.74400  0.98070  Biso   1.000  H
  H27      1.0000 0.94000  0.75600  0.48070  Biso   1.000  H
  H28      1.0000 0.06000  0.25600  0.01930  Biso   1.000  H
  H29      1.0000 0.09900  0.33300  0.60170  Biso   1.000  H
  H30      1.0000 0.90100  0.83300  0.89830  Biso   1.000  H
  H31      1.0000 0.90100  0.66700  0.39830  Biso   1.000  H
  H32      1.0000 0.09900  0.16700  0.10170  Biso   1.000  H
  O29      1.0000 0.46074  0.20210  0.24276  Biso   1.000  O
  O30      1.0000 0.53926  0.70210  0.25724  Biso   1.000  O
  O31      1.0000 0.53926  0.79790  0.75724  Biso   1.000  O
  O32      1.0000 0.46074  0.29790  0.74276  Biso   1.000  O
  H33      1.0000 0.51000  0.30500  0.27020  Biso   1.000  H
  H34      1.0000 0.49000  0.80500  0.22980  Biso   1.000  H
  H35      1.0000 0.49000  0.69500  0.72980  Biso   1.000  H
  H36      1.0000 0.51000  0.19500  0.77020  Biso   1.000  H
  H37      1.0000 0.44100  0.24000  0.19010  Biso   1.000  H
  H38      1.0000 0.55900  0.74000  0.30990  Biso   1.000  H
  H39      1.0000 0.55900  0.76000  0.80990  Biso   1.000  H
  H40      1.0000 0.44100  0.26000  0.69010  Biso   1.000  H
  O33      1.0000 0.39500  0.99100  0.14760  Biso   1.000  O
  O34      1.0000 0.60500  0.49100  0.35240  Biso   1.000  O
  O35      1.0000 0.60500  0.00900  0.85240  Biso   1.000  O
  O36      1.0000 0.39500  0.50900  0.64760  Biso   1.000  O
