data_image0
_cell_length_a       9
_cell_length_b       10.796
_cell_length_c       7.785
_cell_angle_alpha    91.81
_cell_angle_beta     101.61
_cell_angle_gamma    102.28

_symmetry_space_group_name_H-M    "P 1"
_symmetry_int_tables_number       1

loop_
  _symmetry_equiv_pos_as_xyz
  'x, y, z'

loop_
  _atom_site_label
  _atom_site_occupancy
  _atom_site_fract_x
  _atom_site_fract_y
  _atom_site_fract_z
  _atom_site_thermal_displace_type
  _atom_site_B_iso_or_equiv
  _atom_site_type_symbol
  Cu1      1.0000 0.96733  0.35860  0.00546  Biso   1.000  Cu
  Cu2      1.0000 0.03267  0.64140  0.99454  Biso   1.000  Cu
  O1       1.0000 0.83150  0.21690  0.84680  Biso   1.000  O
  O2       1.0000 0.16850  0.78310  0.15320  Biso   1.000  O
  O3       1.0000 0.65570  0.24910  0.99450  Biso   1.000  O
  O4       1.0000 0.34430  0.75090  0.00550  Biso   1.000  O
  O5       1.0000 0.07270  0.51170  0.15310  Biso   1.000  O
  O6       1.0000 0.92730  0.48830  0.84690  Biso   1.000  O
  O7       1.0000 0.19190  0.32160  0.90650  Biso   1.000  O
  O8       1.0000 0.80810  0.67840  0.09350  Biso   1.000  O
  N1       1.0000 0.99920  0.23800  0.19610  Biso   1.000  N
  N2       1.0000 0.00080  0.76200  0.80390  Biso   1.000  N
  C1       1.0000 0.69480  0.19110  0.87520  Biso   1.000  C
  C2       1.0000 0.30520  0.80890  0.12480  Biso   1.000  C
  C3       1.0000 0.58080  0.08310  0.75700  Biso   1.000  C
  C4       1.0000 0.41920  0.91690  0.24300  Biso   1.000  C
  C5       1.0000 0.41400  0.07100  0.75600  Biso   1.000  C
  C6       1.0000 0.58600  0.92900  0.24400  Biso   1.000  C
  C7       1.0000 0.20570  0.52620  0.28740  Biso   1.000  C
  C8       1.0000 0.79430  0.47380  0.71260  Biso   1.000  C
  C9       1.0000 0.26520  0.41570  0.80900  Biso   1.000  C
  C10      1.0000 0.73480  0.58430  0.19100  Biso   1.000  C
  C11      1.0000 0.95710  0.25250  0.34930  Biso   1.000  C
  C12      1.0000 0.04290  0.74750  0.65070  Biso   1.000  C
  C13      1.0000 0.95660  0.16370  0.47170  Biso   1.000  C
  C14      1.0000 0.04340  0.83630  0.52830  Biso   1.000  C
  C15      1.0000 0.00170  0.05120  0.43500  Biso   1.000  C
  C16      1.0000 0.99830  0.94880  0.56500  Biso   1.000  C
  C17      1.0000 0.04750  0.03760  0.27910  Biso   1.000  C
  C18      1.0000 0.95250  0.96240  0.72090  Biso   1.000  C
  C19      1.0000 0.04520  0.13100  0.16450  Biso   1.000  C
  C20      1.0000 0.95480  0.86900  0.83550  Biso   1.000  C
  H1       1.0000 0.26900  0.31400  0.00900  Biso   1.000  H
  H2       1.0000 0.73100  0.68600  0.99100  Biso   1.000  H
  H3       1.0000 0.92500  0.33000  0.37400  Biso   1.000  H
  H4       1.0000 0.07500  0.67000  0.62600  Biso   1.000  H
  H5       1.0000 0.92600  0.17800  0.58100  Biso   1.000  H
  H6       1.0000 0.07400  0.82200  0.41900  Biso   1.000  H
  H7       1.0000 0.08100  0.96200  0.25100  Biso   1.000  H
  H8       1.0000 0.91900  0.03800  0.74900  Biso   1.000  H
  H9       1.0000 0.07800  0.12000  0.05600  Biso   1.000  H
  H10      1.0000 0.92200  0.88000  0.94400  Biso   1.000  H
  H11      1.0000 0.60800  0.00400  0.79200  Biso   1.000  H
  H12      1.0000 0.39200  0.99600  0.20800  Biso   1.000  H
  H13      1.0000 0.59500  0.09300  0.63900  Biso   1.000  H
  H14      1.0000 0.40500  0.90700  0.36100  Biso   1.000  H
  H15      1.0000 0.34900  0.00200  0.67900  Biso   1.000  H
  H16      1.0000 0.65100  0.99800  0.32100  Biso   1.000  H
  H17      1.0000 0.39500  0.06000  0.87200  Biso   1.000  H
  H18      1.0000 0.60500  0.94000  0.12800  Biso   1.000  H
  H19      1.0000 0.38200  0.14800  0.71900  Biso   1.000  H
  H20      1.0000 0.61800  0.85200  0.28100  Biso   1.000  H
  H21      1.0000 0.23500  0.61100  0.34100  Biso   1.000  H
  H22      1.0000 0.76500  0.38900  0.65900  Biso   1.000  H
  H23      1.0000 0.18700  0.46900  0.37600  Biso   1.000  H
  H24      1.0000 0.81300  0.53100  0.62400  Biso   1.000  H
  H25      1.0000 0.29100  0.50900  0.24100  Biso   1.000  H
  H26      1.0000 0.70900  0.49100  0.75900  Biso   1.000  H
  O9       1.0000 0.41970  0.25280  0.14640  Biso   1.000  O
  O10      1.0000 0.58030  0.74720  0.85360  Biso   1.000  O
  C21      1.0000 0.48100  0.28600  0.32400  Biso   1.000  C
  C22      1.0000 0.51900  0.71400  0.67600  Biso   1.000  C
  H27      1.0000 0.51000  0.27500  0.09500  Biso   1.000  H
  H28      1.0000 0.49000  0.72500  0.90500  Biso   1.000  H
  H29      1.0000 0.56300  0.24300  0.36600  Biso   1.000  H
  H30      1.0000 0.43700  0.75700  0.63400  Biso   1.000  H
  H31      1.0000 0.52500  0.37600  0.34500  Biso   1.000  H
  H32      1.0000 0.47500  0.62400  0.65500  Biso   1.000  H
  H33      1.0000 0.40300  0.26400  0.39000  Biso   1.000  H
  H34      1.0000 0.59700  0.73600  0.61000  Biso   1.000  H
