data_image0
_cell_length_a       10.286
_cell_length_b       11.163
_cell_length_c       7.617
_cell_angle_alpha    105.83
_cell_angle_beta     110.44
_cell_angle_gamma    63.56

_symmetry_space_group_name_H-M    "P 1"
_symmetry_int_tables_number       1

loop_
  _symmetry_equiv_pos_as_xyz
  'x, y, z'

loop_
  _atom_site_label
  _atom_site_occupancy
  _atom_site_fract_x
  _atom_site_fract_y
  _atom_site_fract_z
  _atom_site_thermal_displace_type
  _atom_site_B_iso_or_equiv
  _atom_site_type_symbol
  Cu1      1.0000 0.48977  0.19406  0.08218  Biso   1.000  Cu
  Cu2      1.0000 0.51023  0.80594  0.91782  Biso   1.000  Cu
  Cu3      1.0000 0.44194  0.01191  0.25341  Biso   1.000  Cu
  Cu4      1.0000 0.55806  0.98809  0.74659  Biso   1.000  Cu
  O1       1.0000 0.61450  0.20420  0.34490  Biso   1.000  O
  O2       1.0000 0.38550  0.79580  0.65510  Biso   1.000  O
  O3       1.0000 0.57280  0.07630  0.48030  Biso   1.000  O
  O4       1.0000 0.42720  0.92370  0.51970  Biso   1.000  O
  O5       1.0000 0.26240  0.17320  0.27490  Biso   1.000  O
  O6       1.0000 0.73760  0.82680  0.72510  Biso   1.000  O
  O7       1.0000 0.30170  0.30940  0.15250  Biso   1.000  O
  O8       1.0000 0.69830  0.69060  0.84750  Biso   1.000  O
  O9       1.0000 0.39720  0.14500  0.82160  Biso   1.000  O
  O10      1.0000 0.60280  0.85500  0.17840  Biso   1.000  O
  O11      1.0000 0.65770  0.06650  0.98220  Biso   1.000  O
  O12      1.0000 0.34230  0.93350  0.01780  Biso   1.000  O
  N1       1.0000 0.50220  0.38380  0.03630  Biso   1.000  N
  N2       1.0000 0.49780  0.61620  0.96370  Biso   1.000  N
  C1       1.0000 0.64050  0.14680  0.47900  Biso   1.000  C
  C2       1.0000 0.35950  0.85320  0.52100  Biso   1.000  C
  C3       1.0000 0.76340  0.16040  0.65440  Biso   1.000  C
  C4       1.0000 0.23660  0.83960  0.34560  Biso   1.000  C
  C5       1.0000 0.82440  0.26160  0.66080  Biso   1.000  C
  C6       1.0000 0.17560  0.73840  0.33920  Biso   1.000  C
  C7       1.0000 0.22660  0.28350  0.22370  Biso   1.000  C
  C8       1.0000 0.77340  0.71650  0.77630  Biso   1.000  C
  C9       1.0000 0.07960  0.39550  0.24990  Biso   1.000  C
  C10      1.0000 0.92040  0.60450  0.75010  Biso   1.000  C
  C11      1.0000 0.96410  0.35610  0.25300  Biso   1.000  C
  C12      1.0000 0.03590  0.64390  0.74700  Biso   1.000  C
  C13      1.0000 0.53560  0.47560  0.17370  Biso   1.000  C
  C14      1.0000 0.46440  0.52440  0.82630  Biso   1.000  C
  C15      1.0000 0.46510  0.40890  0.85970  Biso   1.000  C
  C16      1.0000 0.53490  0.59110  0.14030  Biso   1.000  C
  C17      1.0000 0.24450  0.19830  0.72390  Biso   1.000  C
  C18      1.0000 0.75550  0.80170  0.27610  Biso   1.000  C
  C19      1.0000 0.81080  0.03210  0.07150  Biso   1.000  C
  C20      1.0000 0.18920  0.96790  0.92850  Biso   1.000  C
  H1       1.0000 0.84600  0.07300  0.66500  Biso   1.000  H
  H2       1.0000 0.15400  0.92700  0.33500  Biso   1.000  H
  H3       1.0000 0.72500  0.18500  0.76300  Biso   1.000  H
  H4       1.0000 0.27500  0.81500  0.23700  Biso   1.000  H
  H5       1.0000 0.90200  0.26500  0.77500  Biso   1.000  H
  H6       1.0000 0.09800  0.73500  0.22500  Biso   1.000  H
  H7       1.0000 0.86600  0.23800  0.55600  Biso   1.000  H
  H8       1.0000 0.13400  0.76200  0.44400  Biso   1.000  H
  H9       1.0000 0.74600  0.35000  0.65400  Biso   1.000  H
  H10      1.0000 0.25400  0.65000  0.34600  Biso   1.000  H
  H11      1.0000 0.10100  0.45200  0.36900  Biso   1.000  H
  H12      1.0000 0.89900  0.54800  0.63100  Biso   1.000  H
  H13      1.0000 0.03800  0.45100  0.15100  Biso   1.000  H
  H14      1.0000 0.96200  0.54900  0.84900  Biso   1.000  H
  H15      1.0000 0.87500  0.43200  0.27100  Biso   1.000  H
  H16      1.0000 0.12500  0.56800  0.72900  Biso   1.000  H
  H17      1.0000 0.00100  0.30300  0.35300  Biso   1.000  H
  H18      1.0000 0.99900  0.69700  0.64700  Biso   1.000  H
  H19      1.0000 0.93800  0.30100  0.13600  Biso   1.000  H
  H20      1.0000 0.06200  0.69900  0.86400  Biso   1.000  H
  H21      1.0000 0.56200  0.46100  0.30300  Biso   1.000  H
  H22      1.0000 0.43800  0.53900  0.69700  Biso   1.000  H
  H23      1.0000 0.43800  0.34500  0.75400  Biso   1.000  H
  H24      1.0000 0.56200  0.65500  0.24600  Biso   1.000  H
  H25      1.0000 0.22900  0.15600  0.59600  Biso   1.000  H
  H26      1.0000 0.77100  0.84400  0.40400  Biso   1.000  H
  H27      1.0000 0.18500  0.18500  0.78200  Biso   1.000  H
  H28      1.0000 0.81500  0.81500  0.21800  Biso   1.000  H
  H29      1.0000 0.21100  0.29400  0.72500  Biso   1.000  H
  H30      1.0000 0.78900  0.70600  0.27500  Biso   1.000  H
  H31      1.0000 0.87000  0.96700  0.99100  Biso   1.000  H
  H32      1.0000 0.13000  0.03300  0.00900  Biso   1.000  H
  H33      1.0000 0.83500  0.11100  0.10500  Biso   1.000  H
  H34      1.0000 0.16500  0.88900  0.89500  Biso   1.000  H
  H35      1.0000 0.83700  0.99600  0.18500  Biso   1.000  H
  H36      1.0000 0.16300  0.00400  0.81500  Biso   1.000  H
