data_image0
_cell_length_a       13.8162
_cell_length_b       10.4461
_cell_length_c       14.4359
_cell_angle_alpha    90
_cell_angle_beta     116.534
_cell_angle_gamma    90

_symmetry_space_group_name_H-M    "P 1"
_symmetry_int_tables_number       1

loop_
  _symmetry_equiv_pos_as_xyz
  'x, y, z'

loop_
  _atom_site_label
  _atom_site_occupancy
  _atom_site_fract_x
  _atom_site_fract_y
  _atom_site_fract_z
  _atom_site_thermal_displace_type
  _atom_site_B_iso_or_equiv
  _atom_site_type_symbol
  Cu1      1.0000 0.50000  0.50000  0.00000  Biso   1.000  Cu
  Cu2      1.0000 0.50000  0.00000  0.50000  Biso   1.000  Cu
  N1       1.0000 0.60750  0.52980  0.14840  Biso   1.000  N
  N2       1.0000 0.39250  0.02980  0.35160  Biso   1.000  N
  N3       1.0000 0.39250  0.47020  0.85160  Biso   1.000  N
  N4       1.0000 0.60750  0.97020  0.64840  Biso   1.000  N
  O1       1.0000 0.29640  0.59050  0.36890  Biso   1.000  O
  O2       1.0000 0.70360  0.09050  0.13110  Biso   1.000  O
  O3       1.0000 0.70360  0.40950  0.63110  Biso   1.000  O
  O4       1.0000 0.29640  0.90950  0.86890  Biso   1.000  O
  O5       1.0000 0.04540  0.65860  0.88690  Biso   1.000  O
  O6       1.0000 0.95460  0.15860  0.61310  Biso   1.000  O
  O7       1.0000 0.95460  0.34140  0.11310  Biso   1.000  O
  O8       1.0000 0.04540  0.84140  0.38690  Biso   1.000  O
  H1       1.0000 0.01920  0.64700  0.82420  Biso   1.000  H
  H2       1.0000 0.98080  0.14700  0.67580  Biso   1.000  H
  H3       1.0000 0.98080  0.35300  0.17580  Biso   1.000  H
  H4       1.0000 0.01920  0.85300  0.32420  Biso   1.000  H
  C1       1.0000 0.27920  0.54250  0.10920  Biso   1.000  C
  C2       1.0000 0.72080  0.04250  0.39080  Biso   1.000  C
  C3       1.0000 0.72080  0.45750  0.89080  Biso   1.000  C
  C4       1.0000 0.27920  0.95750  0.60920  Biso   1.000  C
  O9       1.0000 0.15550  0.50350  0.88910  Biso   1.000  O
  O10      1.0000 0.84450  0.00350  0.61090  Biso   1.000  O
  O11      1.0000 0.84450  0.49650  0.11090  Biso   1.000  O
  O12      1.0000 0.15550  0.99650  0.38910  Biso   1.000  O
  C5       1.0000 0.17450  0.58740  0.04930  Biso   1.000  C
  C6       1.0000 0.82550  0.08740  0.45070  Biso   1.000  C
  C7       1.0000 0.82550  0.41260  0.95070  Biso   1.000  C
  C8       1.0000 0.17450  0.91260  0.54930  Biso   1.000  C
  C9       1.0000 0.74990  0.56230  0.35850  Biso   1.000  C
  C10      1.0000 0.25010  0.06230  0.14150  Biso   1.000  C
  C11      1.0000 0.25010  0.43770  0.64150  Biso   1.000  C
  C12      1.0000 0.74990  0.93770  0.85850  Biso   1.000  C
  C13      1.0000 0.26060  0.58640  0.26360  Biso   1.000  C
  C14      1.0000 0.73940  0.08640  0.23640  Biso   1.000  C
  C15      1.0000 0.73940  0.41360  0.73640  Biso   1.000  C
  C16      1.0000 0.26060  0.91360  0.76360  Biso   1.000  C
  C17      1.0000 0.11500  0.63170  0.09900  Biso   1.000  C
  C18      1.0000 0.88500  0.13170  0.40100  Biso   1.000  C
  C19      1.0000 0.88500  0.36830  0.90100  Biso   1.000  C
  C20      1.0000 0.11500  0.86830  0.59900  Biso   1.000  C
  H5       1.0000 0.04500  0.66160  0.05960  Biso   1.000  H
  H6       1.0000 0.95500  0.16160  0.44040  Biso   1.000  H
  H7       1.0000 0.95500  0.33840  0.94040  Biso   1.000  H
  H8       1.0000 0.04500  0.83840  0.55960  Biso   1.000  H
  N5       1.0000 0.95300  0.61580  0.68240  Biso   1.000  N
  N6       1.0000 0.04700  0.11580  0.81760  Biso   1.000  N
  N7       1.0000 0.04700  0.38420  0.31760  Biso   1.000  N
  N8       1.0000 0.95300  0.88420  0.18240  Biso   1.000  N
  C21      1.0000 0.12580  0.57810  0.93420  Biso   1.000  C
  C22      1.0000 0.87420  0.07810  0.56580  Biso   1.000  C
  C23      1.0000 0.87420  0.42190  0.06580  Biso   1.000  C
  C24      1.0000 0.12580  0.92190  0.43420  Biso   1.000  C
  C25      1.0000 0.35460  0.49920  0.06530  Biso   1.000  C
  C26      1.0000 0.64540  0.99920  0.43470  Biso   1.000  C
  C27      1.0000 0.64540  0.50080  0.93470  Biso   1.000  C
  C28      1.0000 0.35460  0.00080  0.56530  Biso   1.000  C
  C29      1.0000 0.32170  0.54160  0.21680  Biso   1.000  C
  C30      1.0000 0.67830  0.04160  0.28320  Biso   1.000  C
  C31      1.0000 0.67830  0.45840  0.78320  Biso   1.000  C
  C32      1.0000 0.32170  0.95840  0.71680  Biso   1.000  C
  H9       1.0000 0.39130  0.51090  0.25690  Biso   1.000  H
  H10      1.0000 0.60870  0.01090  0.24310  Biso   1.000  H
  H11      1.0000 0.60870  0.48910  0.74310  Biso   1.000  H
  H12      1.0000 0.39130  0.98910  0.75690  Biso   1.000  H
  C33      1.0000 0.40020  0.54350  0.43320  Biso   1.000  C
  C34      1.0000 0.59980  0.04350  0.06680  Biso   1.000  C
  C35      1.0000 0.59980  0.45650  0.56680  Biso   1.000  C
  C36      1.0000 0.40020  0.95650  0.93320  Biso   1.000  C
  C37      1.0000 0.15740  0.63210  0.20530  Biso   1.000  C
  C38      1.0000 0.84260  0.13210  0.29470  Biso   1.000  C
  C39      1.0000 0.84260  0.36790  0.79470  Biso   1.000  C
  C40      1.0000 0.15740  0.86790  0.70530  Biso   1.000  C
  H13      1.0000 0.11680  0.66290  0.23740  Biso   1.000  H
  H14      1.0000 0.88320  0.16290  0.26260  Biso   1.000  H
  H15      1.0000 0.88320  0.33710  0.76260  Biso   1.000  H
  H16      1.0000 0.11680  0.83710  0.73740  Biso   1.000  H
  C41      1.0000 0.82320  0.58040  0.47060  Biso   1.000  C
  C42      1.0000 0.17680  0.08040  0.02940  Biso   1.000  C
  C43      1.0000 0.17680  0.41960  0.52940  Biso   1.000  C
  C44      1.0000 0.82320  0.91960  0.97060  Biso   1.000  C
  C45      1.0000 0.75450  0.45900  0.30310  Biso   1.000  C
  C46      1.0000 0.24550  0.95900  0.19690  Biso   1.000  C
  C47      1.0000 0.24550  0.54100  0.69690  Biso   1.000  C
  C48      1.0000 0.75450  0.04100  0.80310  Biso   1.000  C
  H17      1.0000 0.80600  0.39580  0.33590  Biso   1.000  H
  H18      1.0000 0.19400  0.89580  0.16410  Biso   1.000  H
  H19      1.0000 0.19400  0.60420  0.66410  Biso   1.000  H
  H20      1.0000 0.80600  0.10420  0.83590  Biso   1.000  H
  C49      1.0000 0.82660  0.69550  0.52000  Biso   1.000  C
  C50      1.0000 0.17340  0.19550  0.98000  Biso   1.000  C
  C51      1.0000 0.17340  0.30450  0.48000  Biso   1.000  C
  C52      1.0000 0.82660  0.80450  0.02000  Biso   1.000  C
  H21      1.0000 0.78550  0.76460  0.48210  Biso   1.000  H
  H22      1.0000 0.21450  0.26460  0.01790  Biso   1.000  H
  H23      1.0000 0.21450  0.23540  0.51790  Biso   1.000  H
  H24      1.0000 0.78550  0.73540  0.98210  Biso   1.000  H
  C53      1.0000 0.95430  0.50690  0.63680  Biso   1.000  C
  C54      1.0000 0.04570  0.00690  0.86320  Biso   1.000  C
  C55      1.0000 0.04570  0.49310  0.36320  Biso   1.000  C
  C56      1.0000 0.95430  0.99310  0.13680  Biso   1.000  C
  H25      1.0000 0.00040  0.44230  0.67660  Biso   1.000  H
  H26      1.0000 0.99960  0.94230  0.82340  Biso   1.000  H
  H27      1.0000 0.99960  0.55770  0.32340  Biso   1.000  H
  H28      1.0000 0.00040  0.05770  0.17660  Biso   1.000  H
  C57      1.0000 0.68420  0.44610  0.19940  Biso   1.000  C
  C58      1.0000 0.31580  0.94610  0.30060  Biso   1.000  C
  C59      1.0000 0.31580  0.55390  0.80060  Biso   1.000  C
  C60      1.0000 0.68420  0.05390  0.69940  Biso   1.000  C
  H29      1.0000 0.69130  0.37510  0.16410  Biso   1.000  H
  H30      1.0000 0.30870  0.87510  0.33590  Biso   1.000  H
  H31      1.0000 0.30870  0.62490  0.83590  Biso   1.000  H
  H32      1.0000 0.69130  0.12490  0.66410  Biso   1.000  H
  C61      1.0000 0.48700  0.62420  0.46540  Biso   1.000  C
  C62      1.0000 0.51300  0.12420  0.03460  Biso   1.000  C
  C63      1.0000 0.51300  0.37580  0.53460  Biso   1.000  C
  C64      1.0000 0.48700  0.87580  0.96540  Biso   1.000  C
  H33      1.0000 0.47810  0.70830  0.44180  Biso   1.000  H
  H34      1.0000 0.52190  0.20830  0.05820  Biso   1.000  H
  H35      1.0000 0.52190  0.29170  0.55820  Biso   1.000  H
  H36      1.0000 0.47810  0.79170  0.94180  Biso   1.000  H
  C65      1.0000 0.60170  0.63250  0.20210  Biso   1.000  C
  C66      1.0000 0.39830  0.13250  0.29790  Biso   1.000  C
  C67      1.0000 0.39830  0.36750  0.79790  Biso   1.000  C
  C68      1.0000 0.60170  0.86750  0.70210  Biso   1.000  C
  H37      1.0000 0.54870  0.69360  0.16780  Biso   1.000  H
  H38      1.0000 0.45130  0.19360  0.33220  Biso   1.000  H
  H39      1.0000 0.45130  0.30640  0.83220  Biso   1.000  H
  H40      1.0000 0.54870  0.80640  0.66780  Biso   1.000  H
  C69      1.0000 0.89020  0.70760  0.62450  Biso   1.000  C
  C70      1.0000 0.10980  0.20760  0.87550  Biso   1.000  C
  C71      1.0000 0.10980  0.29240  0.37550  Biso   1.000  C
  C72      1.0000 0.89020  0.79240  0.12450  Biso   1.000  C
  H41      1.0000 0.88880  0.78480  0.65600  Biso   1.000  H
  H42      1.0000 0.11120  0.28480  0.84400  Biso   1.000  H
  H43      1.0000 0.11120  0.21520  0.34400  Biso   1.000  H
  H44      1.0000 0.88880  0.71520  0.15600  Biso   1.000  H
  C73      1.0000 0.66920  0.65100  0.30390  Biso   1.000  C
  C74      1.0000 0.33080  0.15100  0.19610  Biso   1.000  C
  C75      1.0000 0.33080  0.34900  0.69610  Biso   1.000  C
  C76      1.0000 0.66920  0.84900  0.80390  Biso   1.000  C
  H45      1.0000 0.66160  0.72360  0.33730  Biso   1.000  H
  H46      1.0000 0.33840  0.22360  0.16270  Biso   1.000  H
  H47      1.0000 0.33840  0.27640  0.66270  Biso   1.000  H
  H48      1.0000 0.66160  0.77640  0.83730  Biso   1.000  H
  C77      1.0000 0.88950  0.48390  0.53100  Biso   1.000  C
  C78      1.0000 0.11050  0.98390  0.96900  Biso   1.000  C
  C79      1.0000 0.11050  0.51610  0.46900  Biso   1.000  C
  C80      1.0000 0.88950  0.01610  0.03100  Biso   1.000  C
  H49      1.0000 0.89130  0.40490  0.50210  Biso   1.000  H
  H50      1.0000 0.10870  0.90490  0.99790  Biso   1.000  H
  H51      1.0000 0.10870  0.59510  0.49790  Biso   1.000  H
  H52      1.0000 0.89130  0.09510  0.00210  Biso   1.000  H
  C81      1.0000 0.41220  0.42040  0.46700  Biso   1.000  C
  C82      1.0000 0.58780  0.92040  0.03300  Biso   1.000  C
  C83      1.0000 0.58780  0.57960  0.53300  Biso   1.000  C
  C84      1.0000 0.41220  0.07960  0.96700  Biso   1.000  C
  H53      1.0000 0.35240  0.36650  0.44450  Biso   1.000  H
  H54      1.0000 0.64760  0.86650  0.05550  Biso   1.000  H
  H55      1.0000 0.64760  0.63350  0.55550  Biso   1.000  H
  H56      1.0000 0.35240  0.13350  0.94450  Biso   1.000  H
  O13      1.0000 0.38840  0.58730  0.02580  Biso   1.000  O
  O14      1.0000 0.61160  0.08730  0.47420  Biso   1.000  O
  O15      1.0000 0.61160  0.41270  0.97420  Biso   1.000  O
  O16      1.0000 0.38840  0.91270  0.52580  Biso   1.000  O
  O17      1.0000 0.38560  0.38740  0.07530  Biso   1.000  O
  O18      1.0000 0.61440  0.88740  0.42470  Biso   1.000  O
  O19      1.0000 0.61440  0.61260  0.92470  Biso   1.000  O
  O20      1.0000 0.38560  0.11260  0.57530  Biso   1.000  O
