data_image0
_cell_length_a       14.4981
_cell_length_b       13.2267
_cell_length_c       19.127
_cell_angle_alpha    90
_cell_angle_beta     91.542
_cell_angle_gamma    90

_symmetry_space_group_name_H-M    "P 1"
_symmetry_int_tables_number       1

loop_
  _symmetry_equiv_pos_as_xyz
  'x, y, z'

loop_
  _atom_site_label
  _atom_site_occupancy
  _atom_site_fract_x
  _atom_site_fract_y
  _atom_site_fract_z
  _atom_site_thermal_displace_type
  _atom_site_B_iso_or_equiv
  _atom_site_type_symbol
  Cu1      1.0000 0.04804  0.87851  0.52257  Biso   1.000  Cu
  Cu2      1.0000 0.04804  0.62149  0.02257  Biso   1.000  Cu
  Cu3      1.0000 0.95196  0.12149  0.47743  Biso   1.000  Cu
  Cu4      1.0000 0.95196  0.37851  0.97743  Biso   1.000  Cu
  Cu5      1.0000 0.48414  0.87542  0.43945  Biso   1.000  Cu
  Cu6      1.0000 0.48414  0.62458  0.93945  Biso   1.000  Cu
  Cu7      1.0000 0.51586  0.12458  0.56055  Biso   1.000  Cu
  Cu8      1.0000 0.51586  0.37542  0.06055  Biso   1.000  Cu
  Cu9      1.0000 0.54091  0.59290  0.46179  Biso   1.000  Cu
  Cu10     1.0000 0.54091  0.90710  0.96179  Biso   1.000  Cu
  Cu11     1.0000 0.45909  0.40710  0.53821  Biso   1.000  Cu
  Cu12     1.0000 0.45909  0.09290  0.03821  Biso   1.000  Cu
  Cu13     1.0000 0.75215  0.63495  0.48190  Biso   1.000  Cu
  Cu14     1.0000 0.75215  0.86505  0.98190  Biso   1.000  Cu
  Cu15     1.0000 0.24785  0.36505  0.51810  Biso   1.000  Cu
  Cu16     1.0000 0.24785  0.13495  0.01810  Biso   1.000  Cu
  Cu17     1.0000 0.96403  0.61453  0.50095  Biso   1.000  Cu
  Cu18     1.0000 0.96403  0.88547  0.00095  Biso   1.000  Cu
  Cu19     1.0000 0.03597  0.38547  0.49905  Biso   1.000  Cu
  Cu20     1.0000 0.03597  0.11453  0.99905  Biso   1.000  Cu
  N1       1.0000 0.10579  0.91688  0.61556  Biso   1.000  N
  N2       1.0000 0.10579  0.58312  0.11556  Biso   1.000  N
  N3       1.0000 0.89421  0.08312  0.38444  Biso   1.000  N
  N4       1.0000 0.89421  0.41688  0.88444  Biso   1.000  N
  N5       1.0000 0.03649  0.84446  0.42070  Biso   1.000  N
  N6       1.0000 0.03649  0.65554  0.92070  Biso   1.000  N
  N7       1.0000 0.96351  0.15554  0.57930  Biso   1.000  N
  N8       1.0000 0.96351  0.34446  0.07930  Biso   1.000  N
  N9       1.0000 0.42411  0.90503  0.34531  Biso   1.000  N
  N10      1.0000 0.42411  0.59497  0.84531  Biso   1.000  N
  N11      1.0000 0.57589  0.09497  0.65469  Biso   1.000  N
  N12      1.0000 0.57589  0.40503  0.15469  Biso   1.000  N
  N13      1.0000 0.49899  0.86921  0.54456  Biso   1.000  N
  N14      1.0000 0.49899  0.63079  0.04456  Biso   1.000  N
  N15      1.0000 0.50101  0.13079  0.45544  Biso   1.000  N
  N16      1.0000 0.50101  0.36921  0.95544  Biso   1.000  N
  N17      1.0000 0.17993  0.87279  0.49935  Biso   1.000  N
  N18      1.0000 0.17993  0.62721  0.99935  Biso   1.000  N
  N19      1.0000 0.82007  0.12721  0.50065  Biso   1.000  N
  N20      1.0000 0.82007  0.37279  0.00065  Biso   1.000  N
  N21      1.0000 0.35343  0.87867  0.46527  Biso   1.000  N
  N22      1.0000 0.35343  0.62133  0.96527  Biso   1.000  N
  N23      1.0000 0.64657  0.12133  0.53473  Biso   1.000  N
  N24      1.0000 0.64657  0.37867  0.03473  Biso   1.000  N
  N25      1.0000 0.92282  0.92761  0.52795  Biso   1.000  N
  N26      1.0000 0.92282  0.57239  0.02795  Biso   1.000  N
  N27      1.0000 0.07718  0.07239  0.47205  Biso   1.000  N
  N28      1.0000 0.07718  0.42761  0.97205  Biso   1.000  N
  N29      1.0000 0.86340  0.91620  0.56872  Biso   1.000  N
  N30      1.0000 0.86340  0.58380  0.06872  Biso   1.000  N
  N31      1.0000 0.13660  0.08380  0.43128  Biso   1.000  N
  N32      1.0000 0.13660  0.41620  0.93128  Biso   1.000  N
  N33      1.0000 0.80230  0.91120  0.60668  Biso   1.000  N
  N34      1.0000 0.80230  0.58880  0.10668  Biso   1.000  N
  N35      1.0000 0.19770  0.08880  0.39332  Biso   1.000  N
  N36      1.0000 0.19770  0.41120  0.89332  Biso   1.000  N
  N37      1.0000 0.60766  0.91244  0.41412  Biso   1.000  N
  N38      1.0000 0.60766  0.58756  0.91412  Biso   1.000  N
  N39      1.0000 0.39234  0.08756  0.58588  Biso   1.000  N
  N40      1.0000 0.39234  0.41244  0.08588  Biso   1.000  N
  N41      1.0000 0.67554  0.86461  0.42921  Biso   1.000  N
  N42      1.0000 0.67554  0.63539  0.92921  Biso   1.000  N
  N43      1.0000 0.32446  0.13539  0.57079  Biso   1.000  N
  N44      1.0000 0.32446  0.36461  0.07079  Biso   1.000  N
  N45      1.0000 0.74289  0.82210  0.44276  Biso   1.000  N
  N46      1.0000 0.74289  0.67790  0.94276  Biso   1.000  N
  N47      1.0000 0.25711  0.17790  0.55724  Biso   1.000  N
  N48      1.0000 0.25711  0.32210  0.05724  Biso   1.000  N
  N49      1.0000 0.47571  0.70661  0.41551  Biso   1.000  N
  N50      1.0000 0.47571  0.79339  0.91551  Biso   1.000  N
  N51      1.0000 0.52429  0.29339  0.58449  Biso   1.000  N
  N52      1.0000 0.52429  0.20661  0.08449  Biso   1.000  N
  N53      1.0000 0.42072  0.68778  0.36735  Biso   1.000  N
  N54      1.0000 0.42072  0.81222  0.86735  Biso   1.000  N
  N55      1.0000 0.57928  0.31222  0.63265  Biso   1.000  N
  N56      1.0000 0.57928  0.18778  0.13265  Biso   1.000  N
  N57      1.0000 0.36840  0.67540  0.32177  Biso   1.000  N
  N58      1.0000 0.36840  0.82460  0.82177  Biso   1.000  N
  N59      1.0000 0.63160  0.32460  0.67823  Biso   1.000  N
  N60      1.0000 0.63160  0.17540  0.17823  Biso   1.000  N
  N61      1.0000 0.44193  0.56080  0.52783  Biso   1.000  N
  N62      1.0000 0.44193  0.93920  0.02783  Biso   1.000  N
  N63      1.0000 0.55807  0.43920  0.47217  Biso   1.000  N
  N64      1.0000 0.55807  0.06080  0.97217  Biso   1.000  N
  N65      1.0000 0.37245  0.60870  0.53449  Biso   1.000  N
  N66      1.0000 0.37245  0.89130  0.03449  Biso   1.000  N
  N67      1.0000 0.62755  0.39130  0.46551  Biso   1.000  N
  N68      1.0000 0.62755  0.10870  0.96551  Biso   1.000  N
  N69      1.0000 0.30690  0.65430  0.54260  Biso   1.000  N
  N70      1.0000 0.30690  0.84570  0.04260  Biso   1.000  N
  N71      1.0000 0.69310  0.34570  0.45740  Biso   1.000  N
  N72      1.0000 0.69310  0.15430  0.95740  Biso   1.000  N
  N73      1.0000 0.65611  0.60820  0.40638  Biso   1.000  N
  N74      1.0000 0.65611  0.89180  0.90638  Biso   1.000  N
  N75      1.0000 0.34389  0.39180  0.59362  Biso   1.000  N
  N76      1.0000 0.34389  0.10820  0.09362  Biso   1.000  N
  N77      1.0000 0.65882  0.66090  0.35392  Biso   1.000  N
  N78      1.0000 0.65882  0.83910  0.85392  Biso   1.000  N
  N79      1.0000 0.34118  0.33910  0.64608  Biso   1.000  N
  N80      1.0000 0.34118  0.16090  0.14608  Biso   1.000  N
  N81      1.0000 0.66210  0.70830  0.30431  Biso   1.000  N
  N82      1.0000 0.66210  0.79170  0.80431  Biso   1.000  N
  N83      1.0000 0.33790  0.29170  0.69569  Biso   1.000  N
  N84      1.0000 0.33790  0.20830  0.19569  Biso   1.000  N
  N85      1.0000 0.64580  0.64200  0.54351  Biso   1.000  N
  N86      1.0000 0.64580  0.85800  0.04351  Biso   1.000  N
  N87      1.0000 0.35420  0.35800  0.45649  Biso   1.000  N
  N88      1.0000 0.35420  0.14200  0.95649  Biso   1.000  N
  N89      1.0000 0.64038  0.60790  0.60226  Biso   1.000  N
  N90      1.0000 0.64038  0.89210  0.10226  Biso   1.000  N
  N91      1.0000 0.35962  0.39210  0.39774  Biso   1.000  N
  N92      1.0000 0.35962  0.10790  0.89774  Biso   1.000  N
  N93      1.0000 0.62990  0.57900  0.65785  Biso   1.000  N
  N94      1.0000 0.62990  0.92100  0.15785  Biso   1.000  N
  N95      1.0000 0.37010  0.42100  0.34215  Biso   1.000  N
  N96      1.0000 0.37010  0.07900  0.84215  Biso   1.000  N
  N97      1.0000 0.86071  0.60000  0.42614  Biso   1.000  N
  N98      1.0000 0.86071  0.90000  0.92614  Biso   1.000  N
  N99      1.0000 0.13929  0.40000  0.57386  Biso   1.000  N
  N100     1.0000 0.13929  0.10000  0.07386  Biso   1.000  N
  N101     1.0000 0.87108  0.57380  0.36596  Biso   1.000  N
  N102     1.0000 0.87108  0.92620  0.86596  Biso   1.000  N
  N103     1.0000 0.12892  0.42620  0.63404  Biso   1.000  N
  N104     1.0000 0.12892  0.07380  0.13404  Biso   1.000  N
  N105     1.0000 0.88420  0.55070  0.30942  Biso   1.000  N
  N106     1.0000 0.88420  0.94930  0.80942  Biso   1.000  N
  N107     1.0000 0.11580  0.44930  0.69058  Biso   1.000  N
  N108     1.0000 0.11580  0.05070  0.19058  Biso   1.000  N
  N109     1.0000 0.85270  0.66510  0.55040  Biso   1.000  N
  N110     1.0000 0.85270  0.83490  0.05040  Biso   1.000  N
  N111     1.0000 0.14730  0.33490  0.44960  Biso   1.000  N
  N112     1.0000 0.14730  0.16510  0.94960  Biso   1.000  N
  N113     1.0000 0.85033  0.68020  0.61243  Biso   1.000  N
  N114     1.0000 0.85033  0.81980  0.11243  Biso   1.000  N
  N115     1.0000 0.14967  0.31980  0.38757  Biso   1.000  N
  N116     1.0000 0.14967  0.18020  0.88757  Biso   1.000  N
  N117     1.0000 0.84950  0.69420  0.67112  Biso   1.000  N
  N118     1.0000 0.84950  0.80580  0.17112  Biso   1.000  N
  N119     1.0000 0.15050  0.30580  0.32888  Biso   1.000  N
  N120     1.0000 0.15050  0.19420  0.82888  Biso   1.000  N
  N121     1.0000 0.04886  0.70778  0.55208  Biso   1.000  N
  N122     1.0000 0.04886  0.79222  0.05208  Biso   1.000  N
  N123     1.0000 0.95114  0.29222  0.44792  Biso   1.000  N
  N124     1.0000 0.95114  0.20778  0.94792  Biso   1.000  N
  N125     1.0000 0.10059  0.68826  0.60032  Biso   1.000  N
  N126     1.0000 0.10059  0.81174  0.10032  Biso   1.000  N
  N127     1.0000 0.89941  0.31174  0.39968  Biso   1.000  N
  N128     1.0000 0.89941  0.18826  0.89968  Biso   1.000  N
  N129     1.0000 0.15050  0.67640  0.64717  Biso   1.000  N
  N130     1.0000 0.15050  0.82360  0.14717  Biso   1.000  N
  N131     1.0000 0.84950  0.32360  0.35283  Biso   1.000  N
  N132     1.0000 0.84950  0.17640  0.85283  Biso   1.000  N
  N133     1.0000 0.05075  0.54260  0.44256  Biso   1.000  N
  N134     1.0000 0.05075  0.95740  0.94256  Biso   1.000  N
  N135     1.0000 0.94925  0.45740  0.55744  Biso   1.000  N
  N136     1.0000 0.94925  0.04260  0.05744  Biso   1.000  N
  N137     1.0000 0.12796  0.56700  0.42907  Biso   1.000  N
  N138     1.0000 0.12796  0.93300  0.92907  Biso   1.000  N
  N139     1.0000 0.87204  0.43300  0.57093  Biso   1.000  N
  N140     1.0000 0.87204  0.06700  0.07093  Biso   1.000  N
  N141     1.0000 0.20120  0.58470  0.41400  Biso   1.000  N
  N142     1.0000 0.20120  0.91530  0.91400  Biso   1.000  N
  N143     1.0000 0.79880  0.41530  0.58600  Biso   1.000  N
  N144     1.0000 0.79880  0.08470  0.08600  Biso   1.000  N
  C1       1.0000 0.06020  0.94300  0.67285  Biso   1.000  C
  C2       1.0000 0.06020  0.55700  0.17285  Biso   1.000  C
  C3       1.0000 0.93980  0.05700  0.32715  Biso   1.000  C
  C4       1.0000 0.93980  0.44300  0.82715  Biso   1.000  C
  H1       1.0000 0.99480  0.93890  0.67160  Biso   1.000  H
  H2       1.0000 0.99480  0.56110  0.17160  Biso   1.000  H
  H3       1.0000 0.00520  0.06110  0.32840  Biso   1.000  H
  H4       1.0000 0.00520  0.43890  0.82840  Biso   1.000  H
  C5       1.0000 0.10440  0.97540  0.73343  Biso   1.000  C
  C6       1.0000 0.10440  0.52460  0.23343  Biso   1.000  C
  C7       1.0000 0.89560  0.02460  0.26657  Biso   1.000  C
  C8       1.0000 0.89560  0.47540  0.76657  Biso   1.000  C
  H5       1.0000 0.07000  0.99140  0.77350  Biso   1.000  H
  H6       1.0000 0.07000  0.50860  0.27350  Biso   1.000  H
  H7       1.0000 0.93000  0.00860  0.22650  Biso   1.000  H
  H8       1.0000 0.93000  0.49140  0.72650  Biso   1.000  H
  C9       1.0000 0.19920  0.98420  0.73521  Biso   1.000  C
  C10      1.0000 0.19920  0.51580  0.23521  Biso   1.000  C
  C11      1.0000 0.80080  0.01580  0.26479  Biso   1.000  C
  C12      1.0000 0.80080  0.48420  0.76479  Biso   1.000  C
  H9       1.0000 0.23100  0.00830  0.77600  Biso   1.000  H
  H10      1.0000 0.23100  0.49170  0.27600  Biso   1.000  H
  H11      1.0000 0.76900  0.99170  0.22400  Biso   1.000  H
  H12      1.0000 0.76900  0.50830  0.72400  Biso   1.000  H
  C13      1.0000 0.24730  0.95710  0.67611  Biso   1.000  C
  C14      1.0000 0.24730  0.54290  0.17611  Biso   1.000  C
  C15      1.0000 0.75270  0.04290  0.32389  Biso   1.000  C
  C16      1.0000 0.75270  0.45710  0.82389  Biso   1.000  C
  H13      1.0000 0.31260  0.96370  0.67570  Biso   1.000  H
  H14      1.0000 0.31260  0.53630  0.17570  Biso   1.000  H
  H15      1.0000 0.68740  0.03630  0.32430  Biso   1.000  H
  H16      1.0000 0.68740  0.46370  0.82430  Biso   1.000  H
  C17      1.0000 0.19937  0.92060  0.61784  Biso   1.000  C
  C18      1.0000 0.19937  0.57940  0.11784  Biso   1.000  C
  C19      1.0000 0.80063  0.07940  0.38216  Biso   1.000  C
  C20      1.0000 0.80063  0.42060  0.88216  Biso   1.000  C
  C21      1.0000 0.95720  0.82090  0.38761  Biso   1.000  C
  C22      1.0000 0.95720  0.67910  0.88761  Biso   1.000  C
  C23      1.0000 0.04280  0.17910  0.61239  Biso   1.000  C
  C24      1.0000 0.04280  0.32090  0.11239  Biso   1.000  C
  H17      1.0000 0.90100  0.83000  0.41130  Biso   1.000  H
  H18      1.0000 0.90100  0.67000  0.91130  Biso   1.000  H
  H19      1.0000 0.09900  0.17000  0.58870  Biso   1.000  H
  H20      1.0000 0.09900  0.33000  0.08870  Biso   1.000  H
  C25      1.0000 0.95390  0.78350  0.31975  Biso   1.000  C
  C26      1.0000 0.95390  0.71650  0.81975  Biso   1.000  C
  C27      1.0000 0.04610  0.21650  0.68025  Biso   1.000  C
  C28      1.0000 0.04610  0.28350  0.18025  Biso   1.000  C
  H21      1.0000 0.89650  0.77060  0.29630  Biso   1.000  H
  H22      1.0000 0.89650  0.72940  0.79630  Biso   1.000  H
  H23      1.0000 0.10350  0.22940  0.70370  Biso   1.000  H
  H24      1.0000 0.10350  0.27060  0.20370  Biso   1.000  H
  C29      1.0000 0.03560  0.76580  0.28747  Biso   1.000  C
  C30      1.0000 0.03560  0.73420  0.78747  Biso   1.000  C
  C31      1.0000 0.96440  0.23420  0.71253  Biso   1.000  C
  C32      1.0000 0.96440  0.26580  0.21253  Biso   1.000  C
  H25      1.0000 0.03520  0.73910  0.24140  Biso   1.000  H
  H26      1.0000 0.03520  0.76090  0.74140  Biso   1.000  H
  H27      1.0000 0.96480  0.26090  0.75860  Biso   1.000  H
  H28      1.0000 0.96480  0.23910  0.25860  Biso   1.000  H
  C33      1.0000 0.11900  0.78690  0.32185  Biso   1.000  C
  C34      1.0000 0.11900  0.71310  0.82185  Biso   1.000  C
  C35      1.0000 0.88100  0.21310  0.67815  Biso   1.000  C
  C36      1.0000 0.88100  0.28690  0.17815  Biso   1.000  C
  H29      1.0000 0.17590  0.77170  0.30070  Biso   1.000  H
  H30      1.0000 0.17590  0.72830  0.80070  Biso   1.000  H
  H31      1.0000 0.82410  0.22830  0.69930  Biso   1.000  H
  H32      1.0000 0.82410  0.27170  0.19930  Biso   1.000  H
  C37      1.0000 0.11739  0.83050  0.38781  Biso   1.000  C
  C38      1.0000 0.11739  0.66950  0.88781  Biso   1.000  C
  C39      1.0000 0.88261  0.16950  0.61219  Biso   1.000  C
  C40      1.0000 0.88261  0.33050  0.11219  Biso   1.000  C
  C41      1.0000 0.46860  0.92320  0.28628  Biso   1.000  C
  C42      1.0000 0.46860  0.57680  0.78628  Biso   1.000  C
  C43      1.0000 0.53140  0.07680  0.71372  Biso   1.000  C
  C44      1.0000 0.53140  0.42320  0.21372  Biso   1.000  C
  H33      1.0000 0.53410  0.92210  0.28730  Biso   1.000  H
  H34      1.0000 0.53410  0.57790  0.78730  Biso   1.000  H
  H35      1.0000 0.46590  0.07790  0.71270  Biso   1.000  H
  H36      1.0000 0.46590  0.42210  0.21270  Biso   1.000  H
  C45      1.0000 0.42180  0.94340  0.22367  Biso   1.000  C
  C46      1.0000 0.42180  0.55660  0.72367  Biso   1.000  C
  C47      1.0000 0.57820  0.05660  0.77633  Biso   1.000  C
  C48      1.0000 0.57820  0.44340  0.27633  Biso   1.000  C
  H37      1.0000 0.45480  0.95370  0.18200  Biso   1.000  H
  H38      1.0000 0.45480  0.54630  0.68200  Biso   1.000  H
  H39      1.0000 0.54520  0.04630  0.81800  Biso   1.000  H
  H40      1.0000 0.54520  0.45370  0.31800  Biso   1.000  H
  C49      1.0000 0.32650  0.94850  0.22259  Biso   1.000  C
  C50      1.0000 0.32650  0.55150  0.72259  Biso   1.000  C
  C51      1.0000 0.67350  0.05150  0.77741  Biso   1.000  C
  C52      1.0000 0.67350  0.44850  0.27741  Biso   1.000  C
  H41      1.0000 0.29320  0.96330  0.18030  Biso   1.000  H
  H42      1.0000 0.29320  0.53670  0.68030  Biso   1.000  H
  H43      1.0000 0.70680  0.03670  0.81970  Biso   1.000  H
  H44      1.0000 0.70680  0.46330  0.31970  Biso   1.000  H
  C53      1.0000 0.28010  0.93180  0.28401  Biso   1.000  C
  C54      1.0000 0.28010  0.56820  0.78401  Biso   1.000  C
  C55      1.0000 0.71990  0.06820  0.71599  Biso   1.000  C
  C56      1.0000 0.71990  0.43180  0.21599  Biso   1.000  C
  H45      1.0000 0.21490  0.93810  0.28500  Biso   1.000  H
  H46      1.0000 0.21490  0.56190  0.78500  Biso   1.000  H
  H47      1.0000 0.78510  0.06190  0.71500  Biso   1.000  H
  H48      1.0000 0.78510  0.43810  0.21500  Biso   1.000  H
  C57      1.0000 0.33051  0.90560  0.34384  Biso   1.000  C
  C58      1.0000 0.33051  0.59440  0.84384  Biso   1.000  C
  C59      1.0000 0.66949  0.09440  0.65616  Biso   1.000  C
  C60      1.0000 0.66949  0.40560  0.15616  Biso   1.000  C
  C61      1.0000 0.57961  0.85610  0.57992  Biso   1.000  C
  C62      1.0000 0.57961  0.64390  0.07992  Biso   1.000  C
  C63      1.0000 0.42039  0.14390  0.42008  Biso   1.000  C
  C64      1.0000 0.42039  0.35610  0.92008  Biso   1.000  C
  H49      1.0000 0.63550  0.86720  0.55630  Biso   1.000  H
  H50      1.0000 0.63550  0.63280  0.05630  Biso   1.000  H
  H51      1.0000 0.36450  0.13280  0.44370  Biso   1.000  H
  H52      1.0000 0.36450  0.36720  0.94370  Biso   1.000  H
  C65      1.0000 0.58390  0.82710  0.64932  Biso   1.000  C
  C66      1.0000 0.58390  0.67290  0.14932  Biso   1.000  C
  C67      1.0000 0.41610  0.17290  0.35068  Biso   1.000  C
  C68      1.0000 0.41610  0.32710  0.85068  Biso   1.000  C
  H53      1.0000 0.64150  0.82220  0.67390  Biso   1.000  H
  H54      1.0000 0.64150  0.67780  0.17390  Biso   1.000  H
  H55      1.0000 0.35850  0.17780  0.32610  Biso   1.000  H
  H56      1.0000 0.35850  0.32220  0.82610  Biso   1.000  H
  C69      1.0000 0.50260  0.80550  0.68204  Biso   1.000  C
  C70      1.0000 0.50260  0.69450  0.18204  Biso   1.000  C
  C71      1.0000 0.49740  0.19450  0.31796  Biso   1.000  C
  C72      1.0000 0.49740  0.30550  0.81796  Biso   1.000  C
  H57      1.0000 0.50390  0.78150  0.72890  Biso   1.000  H
  H58      1.0000 0.50390  0.71850  0.22890  Biso   1.000  H
  H59      1.0000 0.49610  0.21850  0.27110  Biso   1.000  H
  H60      1.0000 0.49610  0.28150  0.77110  Biso   1.000  H
  C73      1.0000 0.41880  0.81890  0.64632  Biso   1.000  C
  C74      1.0000 0.41880  0.68110  0.14632  Biso   1.000  C
  C75      1.0000 0.58120  0.18110  0.35368  Biso   1.000  C
  C76      1.0000 0.58120  0.31890  0.85368  Biso   1.000  C
  H61      1.0000 0.36240  0.80310  0.66810  Biso   1.000  H
  H62      1.0000 0.36240  0.69690  0.16810  Biso   1.000  H
  H63      1.0000 0.63760  0.19690  0.33190  Biso   1.000  H
  H64      1.0000 0.63760  0.30310  0.83190  Biso   1.000  H
  C77      1.0000 0.41878  0.85570  0.57823  Biso   1.000  C
  C78      1.0000 0.41878  0.64430  0.07823  Biso   1.000  C
  C79      1.0000 0.58122  0.14430  0.42177  Biso   1.000  C
  C80      1.0000 0.58122  0.35570  0.92177  Biso   1.000  C
  C81      1.0000 0.24196  0.88750  0.55125  Biso   1.000  C
  C82      1.0000 0.24196  0.61250  0.05125  Biso   1.000  C
  C83      1.0000 0.75804  0.11250  0.44875  Biso   1.000  C
  C84      1.0000 0.75804  0.38750  0.94875  Biso   1.000  C
  C85      1.0000 0.19924  0.86040  0.43141  Biso   1.000  C
  C86      1.0000 0.19924  0.63960  0.93141  Biso   1.000  C
  C87      1.0000 0.80076  0.13960  0.56859  Biso   1.000  C
  C88      1.0000 0.80076  0.36040  0.06859  Biso   1.000  C
  C89      1.0000 0.29033  0.87950  0.41294  Biso   1.000  C
  C90      1.0000 0.29033  0.62050  0.91294  Biso   1.000  C
  C91      1.0000 0.70967  0.12050  0.58706  Biso   1.000  C
  C92      1.0000 0.70967  0.37950  0.08706  Biso   1.000  C
  C93      1.0000 0.33517  0.87470  0.53406  Biso   1.000  C
  C94      1.0000 0.33517  0.62530  0.03406  Biso   1.000  C
  C95      1.0000 0.66483  0.12530  0.46594  Biso   1.000  C
  C96      1.0000 0.66483  0.37470  0.96594  Biso   1.000  C
