data_image0
_cell_length_a       7.35
_cell_length_b       10.214
_cell_length_c       12.348
_cell_angle_alpha    73.986
_cell_angle_beta     80.295
_cell_angle_gamma    75.429

_symmetry_space_group_name_H-M    "P 1"
_symmetry_int_tables_number       1

loop_
  _symmetry_equiv_pos_as_xyz
  'x, y, z'

loop_
  _atom_site_label
  _atom_site_occupancy
  _atom_site_fract_x
  _atom_site_fract_y
  _atom_site_fract_z
  _atom_site_thermal_displace_type
  _atom_site_B_iso_or_equiv
  _atom_site_type_symbol
  Cu1      1.0000 0.00000  0.00000  0.00000  Biso   1.000  Cu
  N1       1.0000 0.83930  0.91820  0.14170  Biso   1.000  N
  N2       1.0000 0.16070  0.08180  0.85830  Biso   1.000  N
  N3       1.0000 0.76230  0.73450  0.55550  Biso   1.000  N
  N4       1.0000 0.23770  0.26550  0.44450  Biso   1.000  N
  N5       1.0000 0.03480  0.76750  0.48040  Biso   1.000  N
  N6       1.0000 0.96520  0.23250  0.51960  Biso   1.000  N
  O1       1.0000 0.60000  0.71900  0.57180  Biso   1.000  O
  O2       1.0000 0.40000  0.28100  0.42820  Biso   1.000  O
  O3       1.0000 0.17190  0.79910  0.40760  Biso   1.000  O
  O4       1.0000 0.82810  0.20090  0.59240  Biso   1.000  O
  O5       1.0000 0.22620  0.84500  0.04170  Biso   1.000  O
  O6       1.0000 0.77380  0.15500  0.95830  Biso   1.000  O
  O7       1.0000 0.05790  0.76970  0.94530  Biso   1.000  O
  O8       1.0000 0.94210  0.23030  0.05470  Biso   1.000  O
  C1       1.0000 0.66310  0.90250  0.13470  Biso   1.000  C
  C2       1.0000 0.33690  0.09750  0.86530  Biso   1.000  C
  H1       1.0000 0.62180  0.92630  0.06330  Biso   1.000  H
  H2       1.0000 0.37820  0.07370  0.93670  Biso   1.000  H
  C3       1.0000 0.54380  0.85430  0.22560  Biso   1.000  C
  C4       1.0000 0.45620  0.14570  0.77440  Biso   1.000  C
  H3       1.0000 0.42350  0.84820  0.21610  Biso   1.000  H
  H4       1.0000 0.57650  0.15180  0.78390  Biso   1.000  H
  C5       1.0000 0.60530  0.81390  0.33390  Biso   1.000  C
  C6       1.0000 0.39470  0.18610  0.66610  Biso   1.000  C
  H5       1.0000 0.52570  0.78240  0.39760  Biso   1.000  H
  H6       1.0000 0.47430  0.21760  0.60240  Biso   1.000  H
  C7       1.0000 0.78930  0.82200  0.34460  Biso   1.000  C
  C8       1.0000 0.21070  0.17800  0.65540  Biso   1.000  C
  C9       1.0000 0.90420  0.87290  0.24610  Biso   1.000  C
  C10      1.0000 0.09580  0.12710  0.75390  Biso   1.000  C
  H7       1.0000 0.02740  0.87590  0.25230  Biso   1.000  H
  H8       1.0000 0.97260  0.12410  0.74770  Biso   1.000  H
  C11      1.0000 0.86200  0.77420  0.45940  Biso   1.000  C
  C12      1.0000 0.13800  0.22580  0.54060  Biso   1.000  C
  C13      1.0000 0.06650  0.71450  0.60520  Biso   1.000  C
  C14      1.0000 0.93350  0.28550  0.39480  Biso   1.000  C
  C15      1.0000 0.86300  0.69870  0.65780  Biso   1.000  C
  C16      1.0000 0.13700  0.30130  0.34220  Biso   1.000  C
  C17      1.0000 0.14080  0.82190  0.63910  Biso   1.000  C
  C18      1.0000 0.85920  0.17810  0.36090  Biso   1.000  C
  H9       1.0000 0.26590  0.82480  0.60180  Biso   1.000  H
  H10      1.0000 0.73410  0.17520  0.39820  Biso   1.000  H
  H11      1.0000 0.14450  0.79670  0.71970  Biso   1.000  H
  H12      1.0000 0.85550  0.20330  0.28030  Biso   1.000  H
  H13      1.0000 0.05900  0.91210  0.61720  Biso   1.000  H
  H14      1.0000 0.94100  0.08790  0.38280  Biso   1.000  H
  C19      1.0000 0.21900  0.57550  0.61600  Biso   1.000  C
  C20      1.0000 0.78100  0.42450  0.38400  Biso   1.000  C
  H15      1.0000 0.33920  0.59550  0.58110  Biso   1.000  H
  H16      1.0000 0.66080  0.40450  0.41890  Biso   1.000  H
  H17      1.0000 0.18380  0.51580  0.57890  Biso   1.000  H
  H18      1.0000 0.81620  0.48420  0.42110  Biso   1.000  H
  H19      1.0000 0.22780  0.52970  0.69460  Biso   1.000  H
  H20      1.0000 0.77220  0.47030  0.30540  Biso   1.000  H
  C21      1.0000 0.76330  0.79790  0.73070  Biso   1.000  C
  C22      1.0000 0.23670  0.20210  0.26930  Biso   1.000  C
  H21      1.0000 0.64020  0.77990  0.76040  Biso   1.000  H
  H22      1.0000 0.35980  0.22010  0.23960  Biso   1.000  H
  H23      1.0000 0.75060  0.89230  0.68590  Biso   1.000  H
  H24      1.0000 0.24940  0.10770  0.31410  Biso   1.000  H
  H25      1.0000 0.83570  0.78470  0.79220  Biso   1.000  H
  H26      1.0000 0.16430  0.21530  0.20780  Biso   1.000  H
  C23      1.0000 0.84700  0.54820  0.72460  Biso   1.000  C
  C24      1.0000 0.15300  0.45180  0.27540  Biso   1.000  C
  H27      1.0000 0.71810  0.54740  0.75450  Biso   1.000  H
  H28      1.0000 0.28190  0.45260  0.24550  Biso   1.000  H
  H29      1.0000 0.92510  0.51770  0.78580  Biso   1.000  H
  H30      1.0000 0.07490  0.48230  0.21420  Biso   1.000  H
  H31      1.0000 0.88880  0.48660  0.67480  Biso   1.000  H
  H32      1.0000 0.11120  0.51340  0.32520  Biso   1.000  H
  C25      1.0000 0.20140  0.75560  0.99410  Biso   1.000  C
  C26      1.0000 0.79860  0.24440  0.00590  Biso   1.000  C
  C27      1.0000 0.35650  0.62310  0.99700  Biso   1.000  C
  C28      1.0000 0.64350  0.37690  0.00300  Biso   1.000  C
  C29      1.0000 0.53010  0.61080  0.03600  Biso   1.000  C
  C30      1.0000 0.46990  0.38920  0.96400  Biso   1.000  C
  H33      1.0000 0.55130  0.68390  0.06000  Biso   1.000  H
  H34      1.0000 0.44870  0.31610  0.94000  Biso   1.000  H
  C31      1.0000 0.32600  0.51270  0.96080  Biso   1.000  C
  C32      1.0000 0.67400  0.48730  0.03920  Biso   1.000  C
  H35      1.0000 0.21140  0.52010  0.93470  Biso   1.000  H
  H36      1.0000 0.78860  0.47990  0.06530  Biso   1.000  H
