data_image0
_cell_length_a       17.5449
_cell_length_b       13.3798
_cell_length_c       24.248
_cell_angle_alpha    90
_cell_angle_beta     104.618
_cell_angle_gamma    90

_symmetry_space_group_name_H-M    "P 1"
_symmetry_int_tables_number       1

loop_
  _symmetry_equiv_pos_as_xyz
  'x, y, z'

loop_
  _atom_site_label
  _atom_site_occupancy
  _atom_site_fract_x
  _atom_site_fract_y
  _atom_site_fract_z
  _atom_site_thermal_displace_type
  _atom_site_B_iso_or_equiv
  _atom_site_type_symbol
  Cu1      1.0000 0.75410  0.44072  0.74918  Biso   1.000  Cu
  Cu2      1.0000 0.74590  0.94072  0.25082  Biso   1.000  Cu
  Cu3      1.0000 0.24590  0.55928  0.25082  Biso   1.000  Cu
  Cu4      1.0000 0.25410  0.05928  0.74918  Biso   1.000  Cu
  N1       1.0000 0.75433  0.28810  0.74405  Biso   1.000  N
  N2       1.0000 0.74567  0.78810  0.25595  Biso   1.000  N
  N3       1.0000 0.24567  0.71190  0.25595  Biso   1.000  N
  N4       1.0000 0.25433  0.21190  0.74405  Biso   1.000  N
  N5       1.0000 0.75398  0.59220  0.75567  Biso   1.000  N
  N6       1.0000 0.74602  0.09220  0.24433  Biso   1.000  N
  N7       1.0000 0.24602  0.40780  0.24433  Biso   1.000  N
  N8       1.0000 0.25398  0.90780  0.75567  Biso   1.000  N
  C1       1.0000 0.76012  0.24110  0.69611  Biso   1.000  C
  C2       1.0000 0.73988  0.74110  0.30389  Biso   1.000  C
  C3       1.0000 0.23988  0.75890  0.30389  Biso   1.000  C
  C4       1.0000 0.26012  0.25890  0.69611  Biso   1.000  C
  C5       1.0000 0.75920  0.13870  0.69071  Biso   1.000  C
  C6       1.0000 0.74080  0.63870  0.30929  Biso   1.000  C
  C7       1.0000 0.24080  0.86130  0.30929  Biso   1.000  C
  C8       1.0000 0.25920  0.36130  0.69071  Biso   1.000  C
  C9       1.0000 0.75149  0.07930  0.73648  Biso   1.000  C
  C10      1.0000 0.74851  0.57930  0.26352  Biso   1.000  C
  C11      1.0000 0.24851  0.92070  0.26352  Biso   1.000  C
  C12      1.0000 0.25149  0.42070  0.73648  Biso   1.000  C
  C13      1.0000 0.74650  0.12810  0.78537  Biso   1.000  C
  C14      1.0000 0.75350  0.62810  0.21463  Biso   1.000  C
  C15      1.0000 0.25350  0.87190  0.21463  Biso   1.000  C
  C16      1.0000 0.24650  0.37190  0.78537  Biso   1.000  C
  C17      1.0000 0.74728  0.23060  0.78772  Biso   1.000  C
  C18      1.0000 0.75272  0.73060  0.21228  Biso   1.000  C
  C19      1.0000 0.25272  0.76940  0.21228  Biso   1.000  C
  C20      1.0000 0.24728  0.26940  0.78772  Biso   1.000  C
  C21      1.0000 0.75010  0.96660  0.73020  Biso   1.000  C
  C22      1.0000 0.74990  0.46660  0.26980  Biso   1.000  C
  C23      1.0000 0.24990  0.03340  0.26980  Biso   1.000  C
  C24      1.0000 0.25010  0.53340  0.73020  Biso   1.000  C
  C25      1.0000 0.74930  0.90820  0.78456  Biso   1.000  C
  C26      1.0000 0.75070  0.40820  0.21544  Biso   1.000  C
  C27      1.0000 0.25070  0.09180  0.21544  Biso   1.000  C
  C28      1.0000 0.24930  0.59180  0.78456  Biso   1.000  C
  C29      1.0000 0.75070  0.79850  0.77449  Biso   1.000  C
  C30      1.0000 0.74930  0.29850  0.22551  Biso   1.000  C
  C31      1.0000 0.24930  0.20150  0.22551  Biso   1.000  C
  C32      1.0000 0.25070  0.70150  0.77449  Biso   1.000  C
  C33      1.0000 0.68240  0.74560  0.74945  Biso   1.000  C
  C34      1.0000 0.81760  0.24560  0.25055  Biso   1.000  C
  C35      1.0000 0.31760  0.25440  0.25055  Biso   1.000  C
  C36      1.0000 0.18240  0.75440  0.74945  Biso   1.000  C
  C37      1.0000 0.68610  0.64440  0.74045  Biso   1.000  C
  C38      1.0000 0.81390  0.14440  0.25955  Biso   1.000  C
  C39      1.0000 0.31390  0.35560  0.25955  Biso   1.000  C
  C40      1.0000 0.18610  0.85560  0.74045  Biso   1.000  C
  C41      1.0000 0.81990  0.64330  0.77925  Biso   1.000  C
  C42      1.0000 0.68010  0.14330  0.22075  Biso   1.000  C
  C43      1.0000 0.18010  0.35670  0.22075  Biso   1.000  C
  C44      1.0000 0.31990  0.85670  0.77925  Biso   1.000  C
  C45      1.0000 0.82060  0.74450  0.78871  Biso   1.000  C
  C46      1.0000 0.67940  0.24450  0.21129  Biso   1.000  C
  C47      1.0000 0.17940  0.25550  0.21129  Biso   1.000  C
  C48      1.0000 0.32060  0.75550  0.78871  Biso   1.000  C
  N9       1.0000 0.68446  0.44807  0.66942  Biso   1.000  N
  N10      1.0000 0.81554  0.94807  0.33058  Biso   1.000  N
  N11      1.0000 0.31554  0.55193  0.33058  Biso   1.000  N
  N12      1.0000 0.18446  0.05193  0.66942  Biso   1.000  N
  C49      1.0000 0.70710  0.49630  0.62789  Biso   1.000  C
  C50      1.0000 0.79290  0.99630  0.37211  Biso   1.000  C
  C51      1.0000 0.29290  0.50370  0.37211  Biso   1.000  C
  C52      1.0000 0.20710  0.00370  0.62789  Biso   1.000  C
  C53      1.0000 0.66100  0.50250  0.57295  Biso   1.000  C
  C54      1.0000 0.83900  0.00250  0.42705  Biso   1.000  C
  C55      1.0000 0.33900  0.49750  0.42705  Biso   1.000  C
  C56      1.0000 0.16100  0.99750  0.57295  Biso   1.000  C
  C57      1.0000 0.58780  0.45580  0.55906  Biso   1.000  C
  C58      1.0000 0.91220  0.95580  0.44094  Biso   1.000  C
  C59      1.0000 0.41220  0.54420  0.44094  Biso   1.000  C
  C60      1.0000 0.08780  0.04420  0.55906  Biso   1.000  C
  C61      1.0000 0.56520  0.40580  0.60159  Biso   1.000  C
  C62      1.0000 0.93480  0.90580  0.39841  Biso   1.000  C
  C63      1.0000 0.43480  0.59420  0.39841  Biso   1.000  C
  C64      1.0000 0.06520  0.09420  0.60159  Biso   1.000  C
  C65      1.0000 0.61380  0.40280  0.65548  Biso   1.000  C
  C66      1.0000 0.88620  0.90280  0.34452  Biso   1.000  C
  C67      1.0000 0.38620  0.59720  0.34452  Biso   1.000  C
  C68      1.0000 0.11380  0.09720  0.65548  Biso   1.000  C
  C69      1.0000 0.53420  0.46430  0.50010  Biso   1.000  C
  C70      1.0000 0.96580  0.96430  0.49990  Biso   1.000  C
  C71      1.0000 0.46580  0.53570  0.49990  Biso   1.000  C
  C72      1.0000 0.03420  0.03570  0.50010  Biso   1.000  C
  H1       1.0000 0.56450  0.48940  0.47360  Biso   1.000  H
  H2       1.0000 0.93550  0.98940  0.52640  Biso   1.000  H
  H3       1.0000 0.43550  0.51060  0.52640  Biso   1.000  H
  H4       1.0000 0.06450  0.01060  0.47360  Biso   1.000  H
  H5       1.0000 0.51320  0.39750  0.48680  Biso   1.000  H
  H6       1.0000 0.98680  0.89750  0.51320  Biso   1.000  H
  H7       1.0000 0.48680  0.60250  0.51320  Biso   1.000  H
  H8       1.0000 0.01320  0.10250  0.48680  Biso   1.000  H
  N13      1.0000 0.82076  0.43479  0.83064  Biso   1.000  N
  N14      1.0000 0.67924  0.93479  0.16936  Biso   1.000  N
  N15      1.0000 0.17924  0.56521  0.16936  Biso   1.000  N
  N16      1.0000 0.32076  0.06521  0.83064  Biso   1.000  N
  C73      1.0000 0.89510  0.40190  0.84244  Biso   1.000  C
  C74      1.0000 0.60490  0.90190  0.15756  Biso   1.000  C
  C75      1.0000 0.10490  0.59810  0.15756  Biso   1.000  C
  C76      1.0000 0.39510  0.09810  0.84244  Biso   1.000  C
  C77      1.0000 0.94440  0.40500  0.89662  Biso   1.000  C
  C78      1.0000 0.55560  0.90500  0.10338  Biso   1.000  C
  C79      1.0000 0.05560  0.59500  0.10338  Biso   1.000  C
  C80      1.0000 0.44440  0.09500  0.89662  Biso   1.000  C
  C81      1.0000 0.91790  0.44340  0.94072  Biso   1.000  C
  C82      1.0000 0.58210  0.94340  0.05928  Biso   1.000  C
  C83      1.0000 0.08210  0.55660  0.05928  Biso   1.000  C
  C84      1.0000 0.41790  0.05660  0.94072  Biso   1.000  C
  C85      1.0000 0.84100  0.47750  0.92865  Biso   1.000  C
  C86      1.0000 0.65900  0.97750  0.07135  Biso   1.000  C
  C87      1.0000 0.15900  0.52250  0.07135  Biso   1.000  C
  C88      1.0000 0.34100  0.02250  0.92865  Biso   1.000  C
  C89      1.0000 0.79450  0.47160  0.87407  Biso   1.000  C
  C90      1.0000 0.70550  0.97160  0.12593  Biso   1.000  C
  C91      1.0000 0.20550  0.52840  0.12593  Biso   1.000  C
  C92      1.0000 0.29450  0.02840  0.87407  Biso   1.000  C
  C93      1.0000 0.97190  0.45590  0.99927  Biso   1.000  C
  C94      1.0000 0.52810  0.95590  0.00073  Biso   1.000  C
  C95      1.0000 0.02810  0.54410  0.00073  Biso   1.000  C
  C96      1.0000 0.47190  0.04410  0.99927  Biso   1.000  C
  O1       1.0000 0.86942  0.45240  0.71473  Biso   1.000  O
  O2       1.0000 0.63058  0.95240  0.28527  Biso   1.000  O
  O3       1.0000 0.13058  0.54760  0.28527  Biso   1.000  O
  O4       1.0000 0.36942  0.04760  0.71473  Biso   1.000  O
  C97      1.0000 0.91310  0.40410  0.69388  Biso   1.000  C
  C98      1.0000 0.58690  0.90410  0.30612  Biso   1.000  C
  C99      1.0000 0.08690  0.59590  0.30612  Biso   1.000  C
  C100     1.0000 0.41310  0.09590  0.69388  Biso   1.000  C
  N17      1.0000 0.99010  0.41210  0.70544  Biso   1.000  N
  N18      1.0000 0.50990  0.91210  0.29456  Biso   1.000  N
  N19      1.0000 0.00990  0.58790  0.29456  Biso   1.000  N
  N20      1.0000 0.49010  0.08790  0.70544  Biso   1.000  N
  C101     1.0000 0.03270  0.48600  0.74590  Biso   1.000  C
  C102     1.0000 0.46730  0.98600  0.25410  Biso   1.000  C
  C103     1.0000 0.96730  0.51400  0.25410  Biso   1.000  C
  C104     1.0000 0.53270  0.01400  0.74590  Biso   1.000  C
  H9       1.0000 0.06570  0.52670  0.72750  Biso   1.000  H
  H10      1.0000 0.43430  0.02670  0.27250  Biso   1.000  H
  H11      1.0000 0.93430  0.47330  0.27250  Biso   1.000  H
  H12      1.0000 0.56570  0.97330  0.72750  Biso   1.000  H
  H13      1.0000 0.99500  0.52910  0.75820  Biso   1.000  H
  H14      1.0000 0.50500  0.02910  0.24180  Biso   1.000  H
  H15      1.0000 0.00500  0.47090  0.24180  Biso   1.000  H
  H16      1.0000 0.49500  0.97090  0.75820  Biso   1.000  H
  H17      1.0000 0.06600  0.45170  0.77900  Biso   1.000  H
  H18      1.0000 0.43400  0.95170  0.22100  Biso   1.000  H
  H19      1.0000 0.93400  0.54830  0.22100  Biso   1.000  H
  H20      1.0000 0.56600  0.04830  0.77900  Biso   1.000  H
  C105     1.0000 0.03650  0.34670  0.67970  Biso   1.000  C
  C106     1.0000 0.46350  0.84670  0.32030  Biso   1.000  C
  C107     1.0000 0.96350  0.65330  0.32030  Biso   1.000  C
  C108     1.0000 0.53650  0.15330  0.67970  Biso   1.000  C
  H21      1.0000 0.08340  0.32520  0.70860  Biso   1.000  H
  H22      1.0000 0.41660  0.82520  0.29140  Biso   1.000  H
  H23      1.0000 0.91660  0.67480  0.29140  Biso   1.000  H
  H24      1.0000 0.58340  0.17480  0.70860  Biso   1.000  H
  H25      1.0000 0.00510  0.28800  0.66390  Biso   1.000  H
  H26      1.0000 0.49490  0.78800  0.33610  Biso   1.000  H
  H27      1.0000 0.99490  0.71200  0.33610  Biso   1.000  H
  H28      1.0000 0.50510  0.21200  0.66390  Biso   1.000  H
  H29      1.0000 0.05250  0.38230  0.64920  Biso   1.000  H
  H30      1.0000 0.44750  0.88230  0.35080  Biso   1.000  H
  H31      1.0000 0.94750  0.61770  0.35080  Biso   1.000  H
  H32      1.0000 0.55250  0.11770  0.64920  Biso   1.000  H
  O5       1.0000 0.63594  0.44156  0.78558  Biso   1.000  O
  O6       1.0000 0.86406  0.94156  0.21442  Biso   1.000  O
  O7       1.0000 0.36406  0.55844  0.21442  Biso   1.000  O
  O8       1.0000 0.13594  0.05844  0.78558  Biso   1.000  O
  C109     1.0000 0.59100  0.39060  0.80422  Biso   1.000  C
  C110     1.0000 0.90900  0.89060  0.19578  Biso   1.000  C
  C111     1.0000 0.40900  0.60940  0.19578  Biso   1.000  C
  C112     1.0000 0.09100  0.10940  0.80422  Biso   1.000  C
  N21      1.0000 0.51386  0.40010  0.79241  Biso   1.000  N
  N22      1.0000 0.98614  0.90010  0.20759  Biso   1.000  N
  N23      1.0000 0.48614  0.59990  0.20759  Biso   1.000  N
  N24      1.0000 0.01386  0.09990  0.79241  Biso   1.000  N
  C113     1.0000 0.46470  0.33430  0.81470  Biso   1.000  C
  C114     1.0000 0.03530  0.83430  0.18530  Biso   1.000  C
  C115     1.0000 0.53530  0.66570  0.18530  Biso   1.000  C
  C116     1.0000 0.96470  0.16570  0.81470  Biso   1.000  C
  H33      1.0000 0.41960  0.31360  0.78390  Biso   1.000  H
  H34      1.0000 0.08040  0.81360  0.21610  Biso   1.000  H
  H35      1.0000 0.58040  0.68640  0.21610  Biso   1.000  H
  H36      1.0000 0.91960  0.18640  0.78390  Biso   1.000  H
  H37      1.0000 0.49500  0.27520  0.83120  Biso   1.000  H
  H38      1.0000 0.00500  0.77520  0.16880  Biso   1.000  H
  H39      1.0000 0.50500  0.72480  0.16880  Biso   1.000  H
  H40      1.0000 0.99500  0.22480  0.83120  Biso   1.000  H
  H41      1.0000 0.44570  0.36900  0.84420  Biso   1.000  H
  H42      1.0000 0.05430  0.86900  0.15580  Biso   1.000  H
  H43      1.0000 0.55430  0.63100  0.15580  Biso   1.000  H
  H44      1.0000 0.94570  0.13100  0.84420  Biso   1.000  H
  C117     1.0000 0.47250  0.47780  0.75430  Biso   1.000  C
  C118     1.0000 0.02750  0.97780  0.24570  Biso   1.000  C
  C119     1.0000 0.52750  0.52220  0.24570  Biso   1.000  C
  C120     1.0000 0.97250  0.02220  0.75430  Biso   1.000  C
  H45      1.0000 0.44170  0.51880  0.77430  Biso   1.000  H
  H46      1.0000 0.05830  0.01880  0.22570  Biso   1.000  H
  H47      1.0000 0.55830  0.48120  0.22570  Biso   1.000  H
  H48      1.0000 0.94170  0.98120  0.77430  Biso   1.000  H
  H49      1.0000 0.51090  0.52010  0.74210  Biso   1.000  H
  H50      1.0000 0.98910  0.02010  0.25790  Biso   1.000  H
  H51      1.0000 0.48910  0.47990  0.25790  Biso   1.000  H
  H52      1.0000 0.01090  0.97990  0.74210  Biso   1.000  H
  H53      1.0000 0.43720  0.44690  0.72080  Biso   1.000  H
  H54      1.0000 0.06280  0.94690  0.27920  Biso   1.000  H
  H55      1.0000 0.56280  0.55310  0.27920  Biso   1.000  H
  H56      1.0000 0.93720  0.05310  0.72080  Biso   1.000  H
  Cl1      1.0000 0.31443  0.85010  0.07321  Biso   1.000  Cl
  Cl2      1.0000 0.18557  0.35010  0.92679  Biso   1.000  Cl
  Cl3      1.0000 0.68557  0.14990  0.92679  Biso   1.000  Cl
  Cl4      1.0000 0.81443  0.64990  0.07321  Biso   1.000  Cl
  O9       1.0000 0.20050  0.70050  0.43230  Biso   1.000  O
  O10      1.0000 0.29950  0.20050  0.56770  Biso   1.000  O
  O11      1.0000 0.79950  0.29950  0.56770  Biso   1.000  O
  O12      1.0000 0.70050  0.79950  0.43230  Biso   1.000  O
  O13      1.0000 0.10850  0.77140  0.47680  Biso   1.000  O
  O14      1.0000 0.39150  0.27140  0.52320  Biso   1.000  O
  O15      1.0000 0.89150  0.22860  0.52320  Biso   1.000  O
  O16      1.0000 0.60850  0.72860  0.47680  Biso   1.000  O
  O17      1.0000 0.21570  0.86170  0.46600  Biso   1.000  O
  O18      1.0000 0.28430  0.36170  0.53400  Biso   1.000  O
  O19      1.0000 0.78430  0.13830  0.53400  Biso   1.000  O
  O20      1.0000 0.71570  0.63830  0.46600  Biso   1.000  O
  O21      1.0000 0.11810  0.82700  0.38860  Biso   1.000  O
  O22      1.0000 0.38190  0.32700  0.61140  Biso   1.000  O
  O23      1.0000 0.88190  0.17300  0.61140  Biso   1.000  O
  O24      1.0000 0.61810  0.67300  0.38860  Biso   1.000  O
  Cl5      1.0000 0.16100  0.78681  0.44280  Biso   1.000  Cl
  Cl6      1.0000 0.33900  0.28681  0.55720  Biso   1.000  Cl
  Cl7      1.0000 0.83900  0.21319  0.55720  Biso   1.000  Cl
  Cl8      1.0000 0.66100  0.71319  0.44280  Biso   1.000  Cl
  O25      1.0000 0.37460  0.83870  0.12390  Biso   1.000  O
  O26      1.0000 0.12540  0.33870  0.87610  Biso   1.000  O
  O27      1.0000 0.62540  0.16130  0.87610  Biso   1.000  O
  O28      1.0000 0.87460  0.66130  0.12390  Biso   1.000  O
  O29      1.0000 0.29010  0.94830  0.07980  Biso   1.000  O
  O30      1.0000 0.20990  0.44830  0.92020  Biso   1.000  O
  O31      1.0000 0.70990  0.05170  0.92020  Biso   1.000  O
  O32      1.0000 0.79010  0.55170  0.07980  Biso   1.000  O
  O33      1.0000 0.34480  0.84170  0.02590  Biso   1.000  O
  O34      1.0000 0.15520  0.34170  0.97410  Biso   1.000  O
  O35      1.0000 0.65520  0.15830  0.97410  Biso   1.000  O
  O36      1.0000 0.84480  0.65830  0.02590  Biso   1.000  O
  O37      1.0000 0.25430  0.78600  0.07500  Biso   1.000  O
  O38      1.0000 0.24570  0.28600  0.92500  Biso   1.000  O
  O39      1.0000 0.74570  0.21400  0.92500  Biso   1.000  O
  O40      1.0000 0.75430  0.71400  0.07500  Biso   1.000  O
  O41      1.0000 0.49260  0.16750  0.16810  Biso   1.000  O
  O42      1.0000 0.00740  0.66750  0.83190  Biso   1.000  O
  O43      1.0000 0.50740  0.83250  0.83190  Biso   1.000  O
  O44      1.0000 0.99260  0.33250  0.16810  Biso   1.000  O
  N25      1.0000 0.37990  0.23040  0.11640  Biso   1.000  N
  N26      1.0000 0.12010  0.73040  0.88360  Biso   1.000  N
  N27      1.0000 0.62010  0.76960  0.88360  Biso   1.000  N
  N28      1.0000 0.87990  0.26960  0.11640  Biso   1.000  N
  C121     1.0000 0.42850  0.15940  0.13760  Biso   1.000  C
  C122     1.0000 0.07150  0.65940  0.86240  Biso   1.000  C
  C123     1.0000 0.57150  0.84060  0.86240  Biso   1.000  C
  C124     1.0000 0.92850  0.34060  0.13760  Biso   1.000  C
  H57      1.0000 0.41070  0.09310  0.12770  Biso   1.000  H
  H58      1.0000 0.08930  0.59310  0.87230  Biso   1.000  H
  H59      1.0000 0.58930  0.90690  0.87230  Biso   1.000  H
  H60      1.0000 0.91070  0.40690  0.12770  Biso   1.000  H
  C125     1.0000 0.30570  0.20450  0.08000  Biso   1.000  C
  C126     1.0000 0.19430  0.70450  0.92000  Biso   1.000  C
  C127     1.0000 0.69430  0.79550  0.92000  Biso   1.000  C
  C128     1.0000 0.80570  0.29550  0.08000  Biso   1.000  C
  H61      1.0000 0.29660  0.24390  0.04490  Biso   1.000  H
  H62      1.0000 0.20340  0.74390  0.95510  Biso   1.000  H
  H63      1.0000 0.70340  0.75610  0.95510  Biso   1.000  H
  H64      1.0000 0.79660  0.25610  0.04490  Biso   1.000  H
  H65      1.0000 0.26410  0.21870  0.09930  Biso   1.000  H
  H66      1.0000 0.23590  0.71870  0.90070  Biso   1.000  H
  H67      1.0000 0.73590  0.78130  0.90070  Biso   1.000  H
  H68      1.0000 0.76410  0.28130  0.09930  Biso   1.000  H
  H69      1.0000 0.30530  0.13320  0.07080  Biso   1.000  H
  H70      1.0000 0.19470  0.63320  0.92920  Biso   1.000  H
  H71      1.0000 0.69470  0.86680  0.92920  Biso   1.000  H
  H72      1.0000 0.80530  0.36680  0.07080  Biso   1.000  H
  C129     1.0000 0.40270  0.33260  0.13070  Biso   1.000  C
  C130     1.0000 0.09730  0.83260  0.86930  Biso   1.000  C
  C131     1.0000 0.59730  0.66740  0.86930  Biso   1.000  C
  C132     1.0000 0.90270  0.16740  0.13070  Biso   1.000  C
  H73      1.0000 0.38930  0.37370  0.09610  Biso   1.000  H
  H74      1.0000 0.11070  0.87370  0.90390  Biso   1.000  H
  H75      1.0000 0.61070  0.62630  0.90390  Biso   1.000  H
  H76      1.0000 0.88930  0.12630  0.09610  Biso   1.000  H
  H77      1.0000 0.45970  0.33570  0.14760  Biso   1.000  H
  H78      1.0000 0.04030  0.83570  0.85240  Biso   1.000  H
  H79      1.0000 0.54030  0.66430  0.85240  Biso   1.000  H
  H80      1.0000 0.95970  0.16430  0.14760  Biso   1.000  H
  H81      1.0000 0.37480  0.35780  0.15810  Biso   1.000  H
  H82      1.0000 0.12520  0.85780  0.84190  Biso   1.000  H
  H83      1.0000 0.62520  0.64220  0.84190  Biso   1.000  H
  H84      1.0000 0.87480  0.14220  0.15810  Biso   1.000  H
  O45      1.0000 0.57340  0.45860  0.11130  Biso   1.000  O
  O46      1.0000 0.92660  0.95860  0.88870  Biso   1.000  O
  O47      1.0000 0.42660  0.54140  0.88870  Biso   1.000  O
  O48      1.0000 0.07340  0.04140  0.11130  Biso   1.000  O
  C133     1.0000 0.59950  0.47230  0.07110  Biso   1.000  C
  C134     1.0000 0.90050  0.97230  0.92890  Biso   1.000  C
  C135     1.0000 0.40050  0.52770  0.92890  Biso   1.000  C
  C136     1.0000 0.09950  0.02770  0.07110  Biso   1.000  C
  H85      1.0000 0.63140  0.53000  0.07200  Biso   1.000  H
  H86      1.0000 0.86860  0.03000  0.92800  Biso   1.000  H
  H87      1.0000 0.36860  0.47000  0.92800  Biso   1.000  H
  H88      1.0000 0.13140  0.97000  0.07200  Biso   1.000  H
  N29      1.0000 0.58820  0.41460  0.02500  Biso   1.000  N
  N30      1.0000 0.91180  0.91460  0.97500  Biso   1.000  N
  N31      1.0000 0.41180  0.58540  0.97500  Biso   1.000  N
  N32      1.0000 0.08820  0.08540  0.02500  Biso   1.000  N
  C137     1.0000 0.53710  0.32840  0.01930  Biso   1.000  C
  C138     1.0000 0.96290  0.82840  0.98070  Biso   1.000  C
  C139     1.0000 0.46290  0.67160  0.98070  Biso   1.000  C
  C140     1.0000 0.03710  0.17160  0.01930  Biso   1.000  C
  H89      1.0000 0.55000  0.28130  0.99210  Biso   1.000  H
  H90      1.0000 0.95000  0.78130  0.00790  Biso   1.000  H
  H91      1.0000 0.45000  0.71870  0.00790  Biso   1.000  H
  H92      1.0000 0.05000  0.21870  0.99210  Biso   1.000  H
  H93      1.0000 0.48210  0.34980  0.00560  Biso   1.000  H
  H94      1.0000 0.01790  0.84980  0.99440  Biso   1.000  H
  H95      1.0000 0.51790  0.65020  0.99440  Biso   1.000  H
  H96      1.0000 0.98210  0.15020  0.00560  Biso   1.000  H
  H97      1.0000 0.54450  0.29570  0.05650  Biso   1.000  H
  H98      1.0000 0.95550  0.79570  0.94350  Biso   1.000  H
  H99      1.0000 0.45550  0.70430  0.94350  Biso   1.000  H
  H100     1.0000 0.04450  0.20430  0.05650  Biso   1.000  H
  C141     1.0000 0.62270  0.43630  0.97640  Biso   1.000  C
  C142     1.0000 0.87730  0.93630  0.02360  Biso   1.000  C
  C143     1.0000 0.37730  0.56370  0.02360  Biso   1.000  C
  C144     1.0000 0.12270  0.06370  0.97640  Biso   1.000  C
  H101     1.0000 0.65090  0.37720  0.96810  Biso   1.000  H
  H102     1.0000 0.84910  0.87720  0.03190  Biso   1.000  H
  H103     1.0000 0.34910  0.62280  0.03190  Biso   1.000  H
  H104     1.0000 0.15090  0.12280  0.96810  Biso   1.000  H
  H105     1.0000 0.65950  0.49250  0.98620  Biso   1.000  H
  H106     1.0000 0.84050  0.99250  0.01380  Biso   1.000  H
  H107     1.0000 0.34050  0.50750  0.01380  Biso   1.000  H
  H108     1.0000 0.15950  0.00750  0.98620  Biso   1.000  H
  H109     1.0000 0.58050  0.45350  0.94280  Biso   1.000  H
  H110     1.0000 0.91950  0.95350  0.05720  Biso   1.000  H
  H111     1.0000 0.41950  0.54650  0.05720  Biso   1.000  H
  H112     1.0000 0.08050  0.04650  0.94280  Biso   1.000  H
  O49      1.0000 0.99820  0.15430  0.33580  Biso   1.000  O
  O50      1.0000 0.50180  0.65430  0.66420  Biso   1.000  O
  O51      1.0000 0.00180  0.84570  0.66420  Biso   1.000  O
  O52      1.0000 0.49820  0.34570  0.33580  Biso   1.000  O
  C145     1.0000 0.05410  0.19790  0.33680  Biso   1.000  C
  C146     1.0000 0.44590  0.69790  0.66320  Biso   1.000  C
  C147     1.0000 0.94590  0.80210  0.66320  Biso   1.000  C
  C148     1.0000 0.55410  0.30210  0.33680  Biso   1.000  C
  N33      1.0000 0.13060  0.19050  0.36770  Biso   1.000  N
  N34      1.0000 0.36940  0.69050  0.63230  Biso   1.000  N
  N35      1.0000 0.86940  0.80950  0.63230  Biso   1.000  N
  N36      1.0000 0.63060  0.30950  0.36770  Biso   1.000  N
  C149     1.0000 0.18620  0.27190  0.36260  Biso   1.000  C
  C150     1.0000 0.31380  0.77190  0.63740  Biso   1.000  C
  C151     1.0000 0.81380  0.72810  0.63740  Biso   1.000  C
  C152     1.0000 0.68620  0.22810  0.36260  Biso   1.000  C
  C153     1.0000 0.16580  0.10860  0.40610  Biso   1.000  C
  C154     1.0000 0.33420  0.60860  0.59390  Biso   1.000  C
  C155     1.0000 0.83420  0.89140  0.59390  Biso   1.000  C
  C156     1.0000 0.66580  0.39140  0.40610  Biso   1.000  C
  O53      1.0000 0.06270  0.58160  0.62280  Biso   1.000  O
  O54      1.0000 0.43730  0.08160  0.37720  Biso   1.000  O
  O55      1.0000 0.93730  0.41840  0.37720  Biso   1.000  O
  O56      1.0000 0.56270  0.91840  0.62280  Biso   1.000  O
  C157     1.0000 0.96840  0.37700  0.42200  Biso   1.000  C
  C158     1.0000 0.53160  0.87700  0.57800  Biso   1.000  C
  C159     1.0000 0.03160  0.62300  0.57800  Biso   1.000  C
  C160     1.0000 0.46840  0.12300  0.42200  Biso   1.000  C
  N37      1.0000 0.03800  0.39180  0.45590  Biso   1.000  N
  N38      1.0000 0.46200  0.89180  0.54410  Biso   1.000  N
  N39      1.0000 0.96200  0.60820  0.54410  Biso   1.000  N
  N40      1.0000 0.53800  0.10820  0.45590  Biso   1.000  N
  C161     1.0000 0.90780  0.53010  0.55530  Biso   1.000  C
  C162     1.0000 0.59220  0.03010  0.44470  Biso   1.000  C
  C163     1.0000 0.09220  0.46990  0.44470  Biso   1.000  C
  C164     1.0000 0.40780  0.96990  0.55530  Biso   1.000  C
  C165     1.0000 0.92310  0.66190  0.48600  Biso   1.000  C
  C166     1.0000 0.57690  0.16190  0.51400  Biso   1.000  C
  C167     1.0000 0.07690  0.33810  0.51400  Biso   1.000  C
  C168     1.0000 0.42310  0.83810  0.48600  Biso   1.000  C
  N41      1.0000 0.89160  0.56540  0.49520  Biso   1.000  N
  N42      1.0000 0.60840  0.06540  0.50480  Biso   1.000  N
  N43      1.0000 0.10840  0.43460  0.50480  Biso   1.000  N
  N44      1.0000 0.39160  0.93460  0.49520  Biso   1.000  N
  C169     1.0000 0.87330  0.48560  0.43900  Biso   1.000  C
  C170     1.0000 0.62670  0.98560  0.56100  Biso   1.000  C
  C171     1.0000 0.12670  0.51440  0.56100  Biso   1.000  C
  C172     1.0000 0.37330  0.01440  0.43900  Biso   1.000  C
  O57      1.0000 0.90500  0.48300  0.40210  Biso   1.000  O
  O58      1.0000 0.59500  0.98300  0.59790  Biso   1.000  O
  O59      1.0000 0.09500  0.51700  0.59790  Biso   1.000  O
  O60      1.0000 0.40500  0.01700  0.40210  Biso   1.000  O
  H113     1.0000 0.77070  0.28900  0.66150  Biso   1.000  H
  H114     1.0000 0.72930  0.78900  0.33850  Biso   1.000  H
  H115     1.0000 0.22930  0.71100  0.33850  Biso   1.000  H
  H116     1.0000 0.27070  0.21100  0.66150  Biso   1.000  H
  H117     1.0000 0.76600  0.10900  0.64910  Biso   1.000  H
  H118     1.0000 0.73400  0.60900  0.35090  Biso   1.000  H
  H119     1.0000 0.23400  0.89100  0.35090  Biso   1.000  H
  H120     1.0000 0.26600  0.39100  0.64910  Biso   1.000  H
  H121     1.0000 0.73500  0.08300  0.81530  Biso   1.000  H
  H122     1.0000 0.76500  0.58300  0.18470  Biso   1.000  H
  H123     1.0000 0.26500  0.91700  0.18470  Biso   1.000  H
  H124     1.0000 0.23500  0.41700  0.81530  Biso   1.000  H
  H125     1.0000 0.74900  0.26400  0.82190  Biso   1.000  H
  H126     1.0000 0.75100  0.76400  0.17810  Biso   1.000  H
  H127     1.0000 0.25100  0.73600  0.17810  Biso   1.000  H
  H128     1.0000 0.24900  0.23600  0.82190  Biso   1.000  H
  H129     1.0000 0.79800  0.94500  0.72160  Biso   1.000  H
  H130     1.0000 0.70200  0.44500  0.27840  Biso   1.000  H
  H131     1.0000 0.20200  0.05500  0.27840  Biso   1.000  H
  H132     1.0000 0.29800  0.55500  0.72160  Biso   1.000  H
  H133     1.0000 0.70000  0.95500  0.69500  Biso   1.000  H
  H134     1.0000 0.80000  0.45500  0.30500  Biso   1.000  H
  H135     1.0000 0.30000  0.04500  0.30500  Biso   1.000  H
  H136     1.0000 0.20000  0.54500  0.69500  Biso   1.000  H
  H137     1.0000 0.79400  0.92700  0.81220  Biso   1.000  H
  H138     1.0000 0.70600  0.42700  0.18780  Biso   1.000  H
  H139     1.0000 0.20600  0.07300  0.18780  Biso   1.000  H
  H140     1.0000 0.29400  0.57300  0.81220  Biso   1.000  H
  H141     1.0000 0.69900  0.91500  0.80100  Biso   1.000  H
  H142     1.0000 0.80100  0.41500  0.19900  Biso   1.000  H
  H143     1.0000 0.30100  0.08500  0.19900  Biso   1.000  H
  H144     1.0000 0.19900  0.58500  0.80100  Biso   1.000  H
  H145     1.0000 0.63100  0.78700  0.73550  Biso   1.000  H
  H146     1.0000 0.86900  0.28700  0.26450  Biso   1.000  H
  H147     1.0000 0.36900  0.21300  0.26450  Biso   1.000  H
  H148     1.0000 0.13100  0.71300  0.73550  Biso   1.000  H
  H149     1.0000 0.63900  0.60500  0.72450  Biso   1.000  H
  H150     1.0000 0.86100  0.10500  0.27550  Biso   1.000  H
  H151     1.0000 0.36100  0.39500  0.27550  Biso   1.000  H
  H152     1.0000 0.13900  0.89500  0.72450  Biso   1.000  H
  H153     1.0000 0.87000  0.60800  0.78850  Biso   1.000  H
  H154     1.0000 0.63000  0.10800  0.21150  Biso   1.000  H
  H155     1.0000 0.13000  0.39200  0.21150  Biso   1.000  H
  H156     1.0000 0.37000  0.89200  0.78850  Biso   1.000  H
  H157     1.0000 0.86900  0.78500  0.80300  Biso   1.000  H
  H158     1.0000 0.63100  0.28500  0.19700  Biso   1.000  H
  H159     1.0000 0.13100  0.21500  0.19700  Biso   1.000  H
  H160     1.0000 0.36900  0.71500  0.80300  Biso   1.000  H
  H161     1.0000 0.74900  0.52500  0.64050  Biso   1.000  H
  H162     1.0000 0.75100  0.02500  0.35950  Biso   1.000  H
  H163     1.0000 0.25100  0.47500  0.35950  Biso   1.000  H
  H164     1.0000 0.24900  0.97500  0.64050  Biso   1.000  H
  H165     1.0000 0.68000  0.54700  0.54800  Biso   1.000  H
  H166     1.0000 0.82000  0.04700  0.45200  Biso   1.000  H
  H167     1.0000 0.32000  0.45300  0.45200  Biso   1.000  H
  H168     1.0000 0.18000  0.95300  0.54800  Biso   1.000  H
  H169     1.0000 0.51900  0.37000  0.59310  Biso   1.000  H
  H170     1.0000 0.98100  0.87000  0.40690  Biso   1.000  H
  H171     1.0000 0.48100  0.63000  0.40690  Biso   1.000  H
  H172     1.0000 0.01900  0.13000  0.59310  Biso   1.000  H
  H173     1.0000 0.59600  0.37300  0.68750  Biso   1.000  H
  H174     1.0000 0.90400  0.87300  0.31250  Biso   1.000  H
  H175     1.0000 0.40400  0.62700  0.31250  Biso   1.000  H
  H176     1.0000 0.09600  0.12700  0.68750  Biso   1.000  H
  H177     1.0000 0.90900  0.37900  0.81230  Biso   1.000  H
  H178     1.0000 0.59100  0.87900  0.18770  Biso   1.000  H
  H179     1.0000 0.09100  0.62100  0.18770  Biso   1.000  H
  H180     1.0000 0.40900  0.12100  0.81230  Biso   1.000  H
  H181     1.0000 0.99700  0.38200  0.90200  Biso   1.000  H
  H182     1.0000 0.50300  0.88200  0.09800  Biso   1.000  H
  H183     1.0000 0.00300  0.61800  0.09800  Biso   1.000  H
  H184     1.0000 0.49700  0.11800  0.90200  Biso   1.000  H
  H185     1.0000 0.81100  0.49800  0.96000  Biso   1.000  H
  H186     1.0000 0.68900  0.99800  0.04000  Biso   1.000  H
  H187     1.0000 0.18900  0.50200  0.04000  Biso   1.000  H
  H188     1.0000 0.31100  0.00200  0.96000  Biso   1.000  H
  H189     1.0000 0.74200  0.48800  0.86430  Biso   1.000  H
  H190     1.0000 0.75800  0.98800  0.13570  Biso   1.000  H
  H191     1.0000 0.25800  0.51200  0.13570  Biso   1.000  H
  H192     1.0000 0.24200  0.01200  0.86430  Biso   1.000  H
  H193     1.0000 0.00200  0.40800  0.00510  Biso   1.000  H
  H194     1.0000 0.49800  0.90800  0.99490  Biso   1.000  H
  H195     1.0000 0.99800  0.59200  0.99490  Biso   1.000  H
  H196     1.0000 0.50200  0.09200  0.00510  Biso   1.000  H
  H197     1.0000 0.94100  0.46700  0.02900  Biso   1.000  H
  H198     1.0000 0.55900  0.96700  0.97100  Biso   1.000  H
  H199     1.0000 0.05900  0.53300  0.97100  Biso   1.000  H
  H200     1.0000 0.44100  0.03300  0.02900  Biso   1.000  H
  H201     1.0000 0.88300  0.34500  0.66300  Biso   1.000  H
  H202     1.0000 0.61700  0.84500  0.33700  Biso   1.000  H
  H203     1.0000 0.11700  0.65500  0.33700  Biso   1.000  H
  H204     1.0000 0.38300  0.15500  0.66300  Biso   1.000  H
  H205     1.0000 0.61400  0.34100  0.83280  Biso   1.000  H
  H206     1.0000 0.88600  0.84100  0.16720  Biso   1.000  H
  H207     1.0000 0.38600  0.65900  0.16720  Biso   1.000  H
  H208     1.0000 0.11400  0.15900  0.83280  Biso   1.000  H
  O61      1.0000 0.23500  0.15700  0.40290  Biso   1.000  O
  O62      1.0000 0.26500  0.65700  0.59710  Biso   1.000  O
  O63      1.0000 0.76500  0.84300  0.59710  Biso   1.000  O
  O64      1.0000 0.73500  0.34300  0.40290  Biso   1.000  O
