data_image0
_cell_length_a       26.2546
_cell_length_b       9.4605
_cell_length_c       18.2111
_cell_angle_alpha    90
_cell_angle_beta     106.665
_cell_angle_gamma    90

_symmetry_space_group_name_H-M    "P 1"
_symmetry_int_tables_number       1

loop_
  _symmetry_equiv_pos_as_xyz
  'x, y, z'

loop_
  _atom_site_label
  _atom_site_occupancy
  _atom_site_fract_x
  _atom_site_fract_y
  _atom_site_fract_z
  _atom_site_thermal_displace_type
  _atom_site_B_iso_or_equiv
  _atom_site_type_symbol
  Cu1      1.0000 0.50000  0.22792  0.75000  Biso   1.000  Cu
  Cu2      1.0000 0.00000  0.72792  0.75000  Biso   1.000  Cu
  Cu3      1.0000 0.50000  0.77208  0.25000  Biso   1.000  Cu
  Cu4      1.0000 0.00000  0.27208  0.25000  Biso   1.000  Cu
  N1       1.0000 0.52768  0.38030  0.83009  Biso   1.000  N
  N2       1.0000 0.47232  0.38030  0.66991  Biso   1.000  N
  N3       1.0000 0.02768  0.88030  0.83009  Biso   1.000  N
  N4       1.0000 0.97232  0.88030  0.66991  Biso   1.000  N
  N5       1.0000 0.47232  0.61970  0.16991  Biso   1.000  N
  N6       1.0000 0.52768  0.61970  0.33009  Biso   1.000  N
  N7       1.0000 0.97232  0.11970  0.16991  Biso   1.000  N
  N8       1.0000 0.02768  0.11970  0.33009  Biso   1.000  N
  N9       1.0000 0.53234  0.07500  0.82846  Biso   1.000  N
  N10      1.0000 0.46766  0.07500  0.67154  Biso   1.000  N
  N11      1.0000 0.03234  0.57500  0.82846  Biso   1.000  N
  N12      1.0000 0.96766  0.57500  0.67154  Biso   1.000  N
  N13      1.0000 0.46766  0.92500  0.17154  Biso   1.000  N
  N14      1.0000 0.53234  0.92500  0.32846  Biso   1.000  N
  N15      1.0000 0.96766  0.42500  0.17154  Biso   1.000  N
  N16      1.0000 0.03234  0.42500  0.32846  Biso   1.000  N
  C1       1.0000 0.49534  0.47770  0.84668  Biso   1.000  C
  C2       1.0000 0.50466  0.47770  0.65332  Biso   1.000  C
  C3       1.0000 0.99534  0.97770  0.84668  Biso   1.000  C
  C4       1.0000 0.00466  0.97770  0.65332  Biso   1.000  C
  C5       1.0000 0.50466  0.52230  0.15332  Biso   1.000  C
  C6       1.0000 0.49534  0.52230  0.34668  Biso   1.000  C
  C7       1.0000 0.00466  0.02230  0.15332  Biso   1.000  C
  C8       1.0000 0.99534  0.02230  0.34668  Biso   1.000  C
  C9       1.0000 0.51205  0.57210  0.90656  Biso   1.000  C
  C10      1.0000 0.48795  0.57210  0.59344  Biso   1.000  C
  C11      1.0000 0.01205  0.07210  0.90656  Biso   1.000  C
  C12      1.0000 0.98795  0.07210  0.59344  Biso   1.000  C
  C13      1.0000 0.48795  0.42790  0.09344  Biso   1.000  C
  C14      1.0000 0.51205  0.42790  0.40656  Biso   1.000  C
  C15      1.0000 0.98795  0.92790  0.09344  Biso   1.000  C
  C16      1.0000 0.01205  0.92790  0.40656  Biso   1.000  C
  C17      1.0000 0.56399  0.56880  0.95260  Biso   1.000  C
  C18      1.0000 0.43601  0.56880  0.54740  Biso   1.000  C
  C19      1.0000 0.06399  0.06880  0.95260  Biso   1.000  C
  C20      1.0000 0.93601  0.06880  0.54740  Biso   1.000  C
  C21      1.0000 0.43601  0.43120  0.04740  Biso   1.000  C
  C22      1.0000 0.56399  0.43120  0.45260  Biso   1.000  C
  C23      1.0000 0.93601  0.93120  0.04740  Biso   1.000  C
  C24      1.0000 0.06399  0.93120  0.45260  Biso   1.000  C
  C25      1.0000 0.59746  0.47040  0.93392  Biso   1.000  C
  C26      1.0000 0.40254  0.47040  0.56608  Biso   1.000  C
  C27      1.0000 0.09746  0.97040  0.93392  Biso   1.000  C
  C28      1.0000 0.90254  0.97040  0.56608  Biso   1.000  C
  C29      1.0000 0.40254  0.52960  0.06608  Biso   1.000  C
  C30      1.0000 0.59746  0.52960  0.43392  Biso   1.000  C
  C31      1.0000 0.90254  0.02960  0.06608  Biso   1.000  C
  C32      1.0000 0.09746  0.02960  0.43392  Biso   1.000  C
  C33      1.0000 0.57845  0.37990  0.87348  Biso   1.000  C
  C34      1.0000 0.42155  0.37990  0.62652  Biso   1.000  C
  C35      1.0000 0.07845  0.87990  0.87348  Biso   1.000  C
  C36      1.0000 0.92155  0.87990  0.62652  Biso   1.000  C
  C37      1.0000 0.42155  0.62010  0.12652  Biso   1.000  C
  C38      1.0000 0.57845  0.62010  0.37348  Biso   1.000  C
  C39      1.0000 0.92155  0.12010  0.12652  Biso   1.000  C
  C40      1.0000 0.07845  0.12010  0.37348  Biso   1.000  C
  C41      1.0000 0.58434  0.66720  0.01938  Biso   1.000  C
  C42      1.0000 0.41566  0.66720  0.48062  Biso   1.000  C
  C43      1.0000 0.08434  0.16720  0.01938  Biso   1.000  C
  C44      1.0000 0.91566  0.16720  0.48062  Biso   1.000  C
  C45      1.0000 0.41566  0.33280  0.98062  Biso   1.000  C
  C46      1.0000 0.58434  0.33280  0.51938  Biso   1.000  C
  C47      1.0000 0.91566  0.83280  0.98062  Biso   1.000  C
  C48      1.0000 0.08434  0.83280  0.51938  Biso   1.000  C
  C49      1.0000 0.61911  0.78640  0.00201  Biso   1.000  C
  C50      1.0000 0.38089  0.78640  0.49799  Biso   1.000  C
  C51      1.0000 0.11911  0.28640  0.00201  Biso   1.000  C
  C52      1.0000 0.88089  0.28640  0.49799  Biso   1.000  C
  C53      1.0000 0.38089  0.21360  0.99799  Biso   1.000  C
  C54      1.0000 0.61911  0.21360  0.50201  Biso   1.000  C
  C55      1.0000 0.88089  0.71360  0.99799  Biso   1.000  C
  C56      1.0000 0.11911  0.71360  0.50201  Biso   1.000  C
  C57      1.0000 0.58835  0.88600  0.94083  Biso   1.000  C
  C58      1.0000 0.41165  0.88600  0.55917  Biso   1.000  C
  C59      1.0000 0.08835  0.38600  0.94083  Biso   1.000  C
  C60      1.0000 0.91165  0.38600  0.55917  Biso   1.000  C
  C61      1.0000 0.41165  0.11400  0.05917  Biso   1.000  C
  C62      1.0000 0.58835  0.11400  0.44083  Biso   1.000  C
  C63      1.0000 0.91165  0.61400  0.05917  Biso   1.000  C
  C64      1.0000 0.08835  0.61400  0.44083  Biso   1.000  C
  C65      1.0000 0.55726  0.99260  0.95789  Biso   1.000  C
  C66      1.0000 0.44274  0.99260  0.54211  Biso   1.000  C
  C67      1.0000 0.05726  0.49260  0.95789  Biso   1.000  C
  C68      1.0000 0.94274  0.49260  0.54211  Biso   1.000  C
  C69      1.0000 0.44274  0.00740  0.04211  Biso   1.000  C
  C70      1.0000 0.55726  0.00740  0.45789  Biso   1.000  C
  C71      1.0000 0.94274  0.50740  0.04211  Biso   1.000  C
  C72      1.0000 0.05726  0.50740  0.45789  Biso   1.000  C
  C73      1.0000 0.52981  0.08310  0.90094  Biso   1.000  C
  C74      1.0000 0.47019  0.08310  0.59906  Biso   1.000  C
  C75      1.0000 0.02981  0.58310  0.90094  Biso   1.000  C
  C76      1.0000 0.97019  0.58310  0.59906  Biso   1.000  C
  C77      1.0000 0.47019  0.91690  0.09906  Biso   1.000  C
  C78      1.0000 0.52981  0.91690  0.40094  Biso   1.000  C
  C79      1.0000 0.97019  0.41690  0.09906  Biso   1.000  C
  C80      1.0000 0.02981  0.41690  0.40094  Biso   1.000  C
  C81      1.0000 0.56104  0.96960  0.81130  Biso   1.000  C
  C82      1.0000 0.43896  0.96960  0.68870  Biso   1.000  C
  C83      1.0000 0.06104  0.46960  0.81130  Biso   1.000  C
  C84      1.0000 0.93896  0.46960  0.68870  Biso   1.000  C
  C85      1.0000 0.43896  0.03040  0.18870  Biso   1.000  C
  C86      1.0000 0.56104  0.03040  0.31130  Biso   1.000  C
  C87      1.0000 0.93896  0.53040  0.18870  Biso   1.000  C
  C88      1.0000 0.06104  0.53040  0.31130  Biso   1.000  C
  C89      1.0000 0.58935  0.87450  0.86529  Biso   1.000  C
  C90      1.0000 0.41065  0.87450  0.63471  Biso   1.000  C
  C91      1.0000 0.08935  0.37450  0.86529  Biso   1.000  C
  C92      1.0000 0.91065  0.37450  0.63471  Biso   1.000  C
  C93      1.0000 0.41065  0.12550  0.13471  Biso   1.000  C
  C94      1.0000 0.58935  0.12550  0.36529  Biso   1.000  C
  C95      1.0000 0.91065  0.62550  0.13471  Biso   1.000  C
  C96      1.0000 0.08935  0.62550  0.36529  Biso   1.000  C
  N17      1.0000 0.32950  0.25590  0.77348  Biso   1.000  N
  N18      1.0000 0.67050  0.25590  0.72652  Biso   1.000  N
  N19      1.0000 0.82950  0.75590  0.77348  Biso   1.000  N
  N20      1.0000 0.17050  0.75590  0.72652  Biso   1.000  N
  N21      1.0000 0.67050  0.74410  0.22652  Biso   1.000  N
  N22      1.0000 0.32950  0.74410  0.27348  Biso   1.000  N
  N23      1.0000 0.17050  0.24410  0.22652  Biso   1.000  N
  N24      1.0000 0.82950  0.24410  0.27348  Biso   1.000  N
  O1       1.0000 0.41755  0.24040  0.78465  Biso   1.000  O
  O2       1.0000 0.58245  0.24040  0.71535  Biso   1.000  O
  O3       1.0000 0.91755  0.74040  0.78465  Biso   1.000  O
  O4       1.0000 0.08245  0.74040  0.71535  Biso   1.000  O
  O5       1.0000 0.58245  0.75960  0.21535  Biso   1.000  O
  O6       1.0000 0.41755  0.75960  0.28465  Biso   1.000  O
  O7       1.0000 0.08245  0.25960  0.21535  Biso   1.000  O
  O8       1.0000 0.91755  0.25960  0.28465  Biso   1.000  O
  C97      1.0000 0.37528  0.18810  0.78638  Biso   1.000  C
  C98      1.0000 0.62472  0.18810  0.71362  Biso   1.000  C
  C99      1.0000 0.87528  0.68810  0.78638  Biso   1.000  C
  C100     1.0000 0.12472  0.68810  0.71362  Biso   1.000  C
  C101     1.0000 0.62472  0.81190  0.21362  Biso   1.000  C
  C102     1.0000 0.37528  0.81190  0.28638  Biso   1.000  C
  C103     1.0000 0.12472  0.31190  0.21362  Biso   1.000  C
  C104     1.0000 0.87528  0.31190  0.28638  Biso   1.000  C
  C105     1.0000 0.32558  0.40400  0.75330  Biso   1.000  C
  C106     1.0000 0.67442  0.40400  0.74670  Biso   1.000  C
  C107     1.0000 0.82558  0.90400  0.75330  Biso   1.000  C
  C108     1.0000 0.17442  0.90400  0.74670  Biso   1.000  C
  C109     1.0000 0.67442  0.59600  0.24670  Biso   1.000  C
  C110     1.0000 0.32558  0.59600  0.25330  Biso   1.000  C
  C111     1.0000 0.17442  0.09600  0.24670  Biso   1.000  C
  C112     1.0000 0.82558  0.09600  0.25330  Biso   1.000  C
  H1       1.0000 0.35810  0.43400  0.74160  Biso   1.000  H
  H2       1.0000 0.64190  0.43400  0.75840  Biso   1.000  H
  H3       1.0000 0.85810  0.93400  0.74160  Biso   1.000  H
  H4       1.0000 0.14190  0.93400  0.75840  Biso   1.000  H
  H5       1.0000 0.64190  0.56600  0.25840  Biso   1.000  H
  H6       1.0000 0.35810  0.56600  0.24160  Biso   1.000  H
  H7       1.0000 0.14190  0.06600  0.25840  Biso   1.000  H
  H8       1.0000 0.85810  0.06600  0.24160  Biso   1.000  H
  H9       1.0000 0.32100  0.45960  0.79630  Biso   1.000  H
  H10      1.0000 0.67900  0.45960  0.70370  Biso   1.000  H
  H11      1.0000 0.82100  0.95960  0.79630  Biso   1.000  H
  H12      1.0000 0.17900  0.95960  0.70370  Biso   1.000  H
  H13      1.0000 0.67900  0.54040  0.20370  Biso   1.000  H
  H14      1.0000 0.32100  0.54040  0.29630  Biso   1.000  H
  H15      1.0000 0.17900  0.04040  0.20370  Biso   1.000  H
  H16      1.0000 0.82100  0.04040  0.29630  Biso   1.000  H
  H17      1.0000 0.29500  0.41880  0.70820  Biso   1.000  H
  H18      1.0000 0.70500  0.41880  0.79180  Biso   1.000  H
  H19      1.0000 0.79500  0.91880  0.70820  Biso   1.000  H
  H20      1.0000 0.20500  0.91880  0.79180  Biso   1.000  H
  H21      1.0000 0.70500  0.58120  0.29180  Biso   1.000  H
  H22      1.0000 0.29500  0.58120  0.20820  Biso   1.000  H
  H23      1.0000 0.20500  0.08120  0.29180  Biso   1.000  H
  H24      1.0000 0.79500  0.08120  0.20820  Biso   1.000  H
  C113     1.0000 0.28161  0.18450  0.77630  Biso   1.000  C
  C114     1.0000 0.71839  0.18450  0.72370  Biso   1.000  C
  C115     1.0000 0.78161  0.68450  0.77630  Biso   1.000  C
  C116     1.0000 0.21839  0.68450  0.72370  Biso   1.000  C
  C117     1.0000 0.71839  0.81550  0.22370  Biso   1.000  C
  C118     1.0000 0.28161  0.81550  0.27630  Biso   1.000  C
  C119     1.0000 0.21839  0.31550  0.22370  Biso   1.000  C
  C120     1.0000 0.78161  0.31550  0.27630  Biso   1.000  C
  H25      1.0000 0.26790  0.22840  0.81560  Biso   1.000  H
  H26      1.0000 0.73210  0.22840  0.68440  Biso   1.000  H
  H27      1.0000 0.76790  0.72840  0.81560  Biso   1.000  H
  H28      1.0000 0.23210  0.72840  0.68440  Biso   1.000  H
  H29      1.0000 0.73210  0.77160  0.18440  Biso   1.000  H
  H30      1.0000 0.26790  0.77160  0.31560  Biso   1.000  H
  H31      1.0000 0.23210  0.27160  0.18440  Biso   1.000  H
  H32      1.0000 0.76790  0.27160  0.31560  Biso   1.000  H
  H33      1.0000 0.28950  0.08470  0.78900  Biso   1.000  H
  H34      1.0000 0.71050  0.08470  0.71100  Biso   1.000  H
  H35      1.0000 0.78950  0.58470  0.78900  Biso   1.000  H
  H36      1.0000 0.21050  0.58470  0.71100  Biso   1.000  H
  H37      1.0000 0.71050  0.91530  0.21100  Biso   1.000  H
  H38      1.0000 0.28950  0.91530  0.28900  Biso   1.000  H
  H39      1.0000 0.21050  0.41530  0.21100  Biso   1.000  H
  H40      1.0000 0.78950  0.41530  0.28900  Biso   1.000  H
  H41      1.0000 0.25490  0.19180  0.72630  Biso   1.000  H
  H42      1.0000 0.74510  0.19180  0.77370  Biso   1.000  H
  H43      1.0000 0.75490  0.69180  0.72630  Biso   1.000  H
  H44      1.0000 0.24510  0.69180  0.77370  Biso   1.000  H
  H45      1.0000 0.74510  0.80820  0.27370  Biso   1.000  H
  H46      1.0000 0.25490  0.80820  0.22630  Biso   1.000  H
  H47      1.0000 0.24510  0.30820  0.27370  Biso   1.000  H
  H48      1.0000 0.75490  0.30820  0.22630  Biso   1.000  H
  Cl1      1.0000 0.37314  0.78395  0.84707  Biso   1.000  Cl
  Cl2      1.0000 0.62686  0.78395  0.65293  Biso   1.000  Cl
  Cl3      1.0000 0.87314  0.28395  0.84707  Biso   1.000  Cl
  Cl4      1.0000 0.12686  0.28395  0.65293  Biso   1.000  Cl
  Cl5      1.0000 0.62686  0.21605  0.15293  Biso   1.000  Cl
  Cl6      1.0000 0.37314  0.21605  0.34707  Biso   1.000  Cl
  Cl7      1.0000 0.12686  0.71605  0.15293  Biso   1.000  Cl
  Cl8      1.0000 0.87314  0.71605  0.34707  Biso   1.000  Cl
  O9       1.0000 0.37832  0.65840  0.88879  Biso   1.000  O
  O10      1.0000 0.62168  0.65840  0.61121  Biso   1.000  O
  O11      1.0000 0.87832  0.15840  0.88879  Biso   1.000  O
  O12      1.0000 0.12168  0.15840  0.61121  Biso   1.000  O
  O13      1.0000 0.62168  0.34160  0.11121  Biso   1.000  O
  O14      1.0000 0.37832  0.34160  0.38879  Biso   1.000  O
  O15      1.0000 0.12168  0.84160  0.11121  Biso   1.000  O
  O16      1.0000 0.87832  0.84160  0.38879  Biso   1.000  O
  O17      1.0000 0.33581  0.87230  0.86740  Biso   1.000  O
  O18      1.0000 0.66419  0.87230  0.63260  Biso   1.000  O
  O19      1.0000 0.83581  0.37230  0.86740  Biso   1.000  O
  O20      1.0000 0.16419  0.37230  0.63260  Biso   1.000  O
  O21      1.0000 0.66419  0.12770  0.13260  Biso   1.000  O
  O22      1.0000 0.33581  0.12770  0.36740  Biso   1.000  O
  O23      1.0000 0.16419  0.62770  0.13260  Biso   1.000  O
  O24      1.0000 0.83581  0.62770  0.36740  Biso   1.000  O
  O25      1.0000 0.35561  0.75720  0.76880  Biso   1.000  O
  O26      1.0000 0.64439  0.75720  0.73120  Biso   1.000  O
  O27      1.0000 0.85561  0.25720  0.76880  Biso   1.000  O
  O28      1.0000 0.14439  0.25720  0.73120  Biso   1.000  O
  O29      1.0000 0.64439  0.24280  0.23120  Biso   1.000  O
  O30      1.0000 0.35561  0.24280  0.26880  Biso   1.000  O
  O31      1.0000 0.14439  0.74280  0.23120  Biso   1.000  O
  O32      1.0000 0.85561  0.74280  0.26880  Biso   1.000  O
  O33      1.0000 0.42276  0.85900  0.86463  Biso   1.000  O
  O34      1.0000 0.57724  0.85900  0.63537  Biso   1.000  O
  O35      1.0000 0.92276  0.35900  0.86463  Biso   1.000  O
  O36      1.0000 0.07724  0.35900  0.63537  Biso   1.000  O
  O37      1.0000 0.57724  0.14100  0.13537  Biso   1.000  O
  O38      1.0000 0.42276  0.14100  0.36463  Biso   1.000  O
  O39      1.0000 0.07724  0.64100  0.13537  Biso   1.000  O
  O40      1.0000 0.92276  0.64100  0.36463  Biso   1.000  O
  N25      1.0000 0.27251  0.96670  0.03152  Biso   1.000  N
  N26      1.0000 0.72749  0.96670  0.46848  Biso   1.000  N
  N27      1.0000 0.77251  0.46670  0.03152  Biso   1.000  N
  N28      1.0000 0.22749  0.46670  0.46848  Biso   1.000  N
  N29      1.0000 0.72749  0.03330  0.96848  Biso   1.000  N
  N30      1.0000 0.27251  0.03330  0.53152  Biso   1.000  N
  N31      1.0000 0.22749  0.53330  0.96848  Biso   1.000  N
  N32      1.0000 0.77251  0.53330  0.53152  Biso   1.000  N
  O41      1.0000 0.31460  0.79250  0.09380  Biso   1.000  O
  O42      1.0000 0.68540  0.79250  0.40620  Biso   1.000  O
  O43      1.0000 0.81460  0.29250  0.09380  Biso   1.000  O
  O44      1.0000 0.18540  0.29250  0.40620  Biso   1.000  O
  O45      1.0000 0.68540  0.20750  0.90620  Biso   1.000  O
  O46      1.0000 0.31460  0.20750  0.59380  Biso   1.000  O
  O47      1.0000 0.18540  0.70750  0.90620  Biso   1.000  O
  O48      1.0000 0.81460  0.70750  0.59380  Biso   1.000  O
  C121     1.0000 0.30690  0.85090  0.04650  Biso   1.000  C
  C122     1.0000 0.69310  0.85090  0.45350  Biso   1.000  C
  C123     1.0000 0.80690  0.35090  0.04650  Biso   1.000  C
  C124     1.0000 0.19310  0.35090  0.45350  Biso   1.000  C
  C125     1.0000 0.69310  0.14910  0.95350  Biso   1.000  C
  C126     1.0000 0.30690  0.14910  0.54650  Biso   1.000  C
  C127     1.0000 0.19310  0.64910  0.95350  Biso   1.000  C
  C128     1.0000 0.80690  0.64910  0.54650  Biso   1.000  C
  C129     1.0000 0.25210  0.02240  0.09190  Biso   1.000  C
  C130     1.0000 0.74790  0.02240  0.40810  Biso   1.000  C
  C131     1.0000 0.75210  0.52240  0.09190  Biso   1.000  C
  C132     1.0000 0.24790  0.52240  0.40810  Biso   1.000  C
  C133     1.0000 0.74790  0.97760  0.90810  Biso   1.000  C
  C134     1.0000 0.25210  0.97760  0.59190  Biso   1.000  C
  C135     1.0000 0.24790  0.47760  0.90810  Biso   1.000  C
  C136     1.0000 0.75210  0.47760  0.59190  Biso   1.000  C
  C137     1.0000 0.25543  0.02660  0.95920  Biso   1.000  C
  C138     1.0000 0.74457  0.02660  0.54080  Biso   1.000  C
  C139     1.0000 0.75543  0.52660  0.95920  Biso   1.000  C
  C140     1.0000 0.24457  0.52660  0.54080  Biso   1.000  C
  C141     1.0000 0.74457  0.97340  0.04080  Biso   1.000  C
  C142     1.0000 0.25543  0.97340  0.45920  Biso   1.000  C
  C143     1.0000 0.24457  0.47340  0.04080  Biso   1.000  C
  C144     1.0000 0.75543  0.47340  0.45920  Biso   1.000  C
  H49      1.0000 0.45830  0.47200  0.81920  Biso   1.000  H
  H50      1.0000 0.54170  0.47200  0.68080  Biso   1.000  H
  H51      1.0000 0.95830  0.97200  0.81920  Biso   1.000  H
  H52      1.0000 0.04170  0.97200  0.68080  Biso   1.000  H
  H53      1.0000 0.54170  0.52800  0.18080  Biso   1.000  H
  H54      1.0000 0.45830  0.52800  0.31920  Biso   1.000  H
  H55      1.0000 0.04170  0.02800  0.18080  Biso   1.000  H
  H56      1.0000 0.95830  0.02800  0.31920  Biso   1.000  H
  H57      1.0000 0.48710  0.64300  0.91410  Biso   1.000  H
  H58      1.0000 0.51290  0.64300  0.58590  Biso   1.000  H
  H59      1.0000 0.98710  0.14300  0.91410  Biso   1.000  H
  H60      1.0000 0.01290  0.14300  0.58590  Biso   1.000  H
  H61      1.0000 0.51290  0.35700  0.08590  Biso   1.000  H
  H62      1.0000 0.48710  0.35700  0.41410  Biso   1.000  H
  H63      1.0000 0.01290  0.85700  0.08590  Biso   1.000  H
  H64      1.0000 0.98710  0.85700  0.41410  Biso   1.000  H
  H65      1.0000 0.63750  0.46500  0.96240  Biso   1.000  H
  H66      1.0000 0.36250  0.46500  0.53760  Biso   1.000  H
  H67      1.0000 0.13750  0.96500  0.96240  Biso   1.000  H
  H68      1.0000 0.86250  0.96500  0.53760  Biso   1.000  H
  H69      1.0000 0.36250  0.53500  0.03760  Biso   1.000  H
  H70      1.0000 0.63750  0.53500  0.46240  Biso   1.000  H
  H71      1.0000 0.86250  0.03500  0.03760  Biso   1.000  H
  H72      1.0000 0.13750  0.03500  0.46240  Biso   1.000  H
  H73      1.0000 0.59860  0.30900  0.85910  Biso   1.000  H
  H74      1.0000 0.40140  0.30900  0.64090  Biso   1.000  H
  H75      1.0000 0.09860  0.80900  0.85910  Biso   1.000  H
  H76      1.0000 0.90140  0.80900  0.64090  Biso   1.000  H
  H77      1.0000 0.40140  0.69100  0.14090  Biso   1.000  H
  H78      1.0000 0.59860  0.69100  0.35910  Biso   1.000  H
  H79      1.0000 0.90140  0.19100  0.14090  Biso   1.000  H
  H80      1.0000 0.09860  0.19100  0.35910  Biso   1.000  H
  H81      1.0000 0.55610  0.70600  0.03370  Biso   1.000  H
  H82      1.0000 0.44390  0.70600  0.46630  Biso   1.000  H
  H83      1.0000 0.05610  0.20600  0.03370  Biso   1.000  H
  H84      1.0000 0.94390  0.20600  0.46630  Biso   1.000  H
  H85      1.0000 0.44390  0.29400  0.96630  Biso   1.000  H
  H86      1.0000 0.55610  0.29400  0.53370  Biso   1.000  H
  H87      1.0000 0.94390  0.79400  0.96630  Biso   1.000  H
  H88      1.0000 0.05610  0.79400  0.53370  Biso   1.000  H
  H89      1.0000 0.60370  0.61100  0.06180  Biso   1.000  H
  H90      1.0000 0.39630  0.61100  0.43820  Biso   1.000  H
  H91      1.0000 0.10370  0.11100  0.06180  Biso   1.000  H
  H92      1.0000 0.89630  0.11100  0.43820  Biso   1.000  H
  H93      1.0000 0.39630  0.38900  0.93820  Biso   1.000  H
  H94      1.0000 0.60370  0.38900  0.56180  Biso   1.000  H
  H95      1.0000 0.89630  0.88900  0.93820  Biso   1.000  H
  H96      1.0000 0.10370  0.88900  0.56180  Biso   1.000  H
  H97      1.0000 0.63170  0.83600  0.04850  Biso   1.000  H
  H98      1.0000 0.36830  0.83600  0.45150  Biso   1.000  H
  H99      1.0000 0.13170  0.33600  0.04850  Biso   1.000  H
  H100     1.0000 0.86830  0.33600  0.45150  Biso   1.000  H
  H101     1.0000 0.36830  0.16400  0.95150  Biso   1.000  H
  H102     1.0000 0.63170  0.16400  0.54850  Biso   1.000  H
  H103     1.0000 0.86830  0.66400  0.95150  Biso   1.000  H
  H104     1.0000 0.13170  0.66400  0.54850  Biso   1.000  H
  H105     1.0000 0.64630  0.74400  0.98560  Biso   1.000  H
  H106     1.0000 0.35370  0.74400  0.51440  Biso   1.000  H
  H107     1.0000 0.14630  0.24400  0.98560  Biso   1.000  H
  H108     1.0000 0.85370  0.24400  0.51440  Biso   1.000  H
  H109     1.0000 0.35370  0.25600  0.01440  Biso   1.000  H
  H110     1.0000 0.64630  0.25600  0.48560  Biso   1.000  H
  H111     1.0000 0.85370  0.75600  0.01440  Biso   1.000  H
  H112     1.0000 0.14630  0.75600  0.48560  Biso   1.000  H
  H113     1.0000 0.55770  0.00800  0.01040  Biso   1.000  H
  H114     1.0000 0.44230  0.00800  0.48960  Biso   1.000  H
  H115     1.0000 0.05770  0.50800  0.01040  Biso   1.000  H
  H116     1.0000 0.94230  0.50800  0.48960  Biso   1.000  H
  H117     1.0000 0.44230  0.99200  0.98960  Biso   1.000  H
  H118     1.0000 0.55770  0.99200  0.51040  Biso   1.000  H
  H119     1.0000 0.94230  0.49200  0.98960  Biso   1.000  H
  H120     1.0000 0.05770  0.49200  0.51040  Biso   1.000  H
  H121     1.0000 0.50460  0.16100  0.90810  Biso   1.000  H
  H122     1.0000 0.49540  0.16100  0.59190  Biso   1.000  H
  H123     1.0000 0.00460  0.66100  0.90810  Biso   1.000  H
  H124     1.0000 0.99540  0.66100  0.59190  Biso   1.000  H
  H125     1.0000 0.49540  0.83900  0.09190  Biso   1.000  H
  H126     1.0000 0.50460  0.83900  0.40810  Biso   1.000  H
  H127     1.0000 0.99540  0.33900  0.09190  Biso   1.000  H
  H128     1.0000 0.00460  0.33900  0.40810  Biso   1.000  H
  H129     1.0000 0.56380  0.96700  0.76090  Biso   1.000  H
  H130     1.0000 0.43620  0.96700  0.73910  Biso   1.000  H
  H131     1.0000 0.06380  0.46700  0.76090  Biso   1.000  H
  H132     1.0000 0.93620  0.46700  0.73910  Biso   1.000  H
  H133     1.0000 0.43620  0.03300  0.23910  Biso   1.000  H
  H134     1.0000 0.56380  0.03300  0.26090  Biso   1.000  H
  H135     1.0000 0.93620  0.53300  0.23910  Biso   1.000  H
  H136     1.0000 0.06380  0.53300  0.26090  Biso   1.000  H
  H137     1.0000 0.60860  0.80000  0.85340  Biso   1.000  H
  H138     1.0000 0.39140  0.80000  0.64660  Biso   1.000  H
  H139     1.0000 0.10860  0.30000  0.85340  Biso   1.000  H
  H140     1.0000 0.89140  0.30000  0.64660  Biso   1.000  H
  H141     1.0000 0.39140  0.20000  0.14660  Biso   1.000  H
  H142     1.0000 0.60860  0.20000  0.35340  Biso   1.000  H
  H143     1.0000 0.89140  0.70000  0.14660  Biso   1.000  H
  H144     1.0000 0.10860  0.70000  0.35340  Biso   1.000  H
  H145     1.0000 0.37290  0.08800  0.79840  Biso   1.000  H
  H146     1.0000 0.62710  0.08800  0.70160  Biso   1.000  H
  H147     1.0000 0.87290  0.58800  0.79840  Biso   1.000  H
  H148     1.0000 0.12710  0.58800  0.70160  Biso   1.000  H
  H149     1.0000 0.62710  0.91200  0.20160  Biso   1.000  H
  H150     1.0000 0.37290  0.91200  0.29840  Biso   1.000  H
  H151     1.0000 0.12710  0.41200  0.20160  Biso   1.000  H
  H152     1.0000 0.87290  0.41200  0.29840  Biso   1.000  H
  O49      1.0000 0.22790  0.11410  0.95010  Biso   1.000  O
  O50      1.0000 0.77210  0.11410  0.54990  Biso   1.000  O
  O51      1.0000 0.72790  0.61410  0.95010  Biso   1.000  O
  O52      1.0000 0.27210  0.61410  0.54990  Biso   1.000  O
  O53      1.0000 0.77210  0.88590  0.04990  Biso   1.000  O
  O54      1.0000 0.22790  0.88590  0.45010  Biso   1.000  O
  O55      1.0000 0.27210  0.38590  0.04990  Biso   1.000  O
  O56      1.0000 0.72790  0.38590  0.45010  Biso   1.000  O
