data_image0
_cell_length_a       25.2
_cell_length_b       13.162
_cell_length_c       8.828
_cell_angle_alpha    90
_cell_angle_beta     93.85
_cell_angle_gamma    90

_symmetry_space_group_name_H-M    "P 1"
_symmetry_int_tables_number       1

loop_
  _symmetry_equiv_pos_as_xyz
  'x, y, z'

loop_
  _atom_site_label
  _atom_site_occupancy
  _atom_site_fract_x
  _atom_site_fract_y
  _atom_site_fract_z
  _atom_site_thermal_displace_type
  _atom_site_B_iso_or_equiv
  _atom_site_type_symbol
  Cu1      1.0000 0.29227  0.28302  0.08152  Biso   1.000  Cu
  Cu2      1.0000 0.70773  0.28302  0.41848  Biso   1.000  Cu
  Cu3      1.0000 0.79227  0.78302  0.08152  Biso   1.000  Cu
  Cu4      1.0000 0.20773  0.78302  0.41848  Biso   1.000  Cu
  Cu5      1.0000 0.70773  0.71698  0.91848  Biso   1.000  Cu
  Cu6      1.0000 0.29227  0.71698  0.58152  Biso   1.000  Cu
  Cu7      1.0000 0.20773  0.21698  0.91848  Biso   1.000  Cu
  Cu8      1.0000 0.79227  0.21698  0.58152  Biso   1.000  Cu
  O1       1.0000 0.32291  0.30040  0.88300  Biso   1.000  O
  O2       1.0000 0.67709  0.30040  0.61700  Biso   1.000  O
  O3       1.0000 0.82291  0.80040  0.88300  Biso   1.000  O
  O4       1.0000 0.17709  0.80040  0.61700  Biso   1.000  O
  O5       1.0000 0.67709  0.69960  0.11700  Biso   1.000  O
  O6       1.0000 0.32291  0.69960  0.38300  Biso   1.000  O
  O7       1.0000 0.17709  0.19960  0.11700  Biso   1.000  O
  O8       1.0000 0.82291  0.19960  0.38300  Biso   1.000  O
  O9       1.0000 0.25128  0.24670  0.74720  Biso   1.000  O
  O10      1.0000 0.74872  0.24670  0.75280  Biso   1.000  O
  O11      1.0000 0.75128  0.74670  0.74720  Biso   1.000  O
  O12      1.0000 0.24872  0.74670  0.75280  Biso   1.000  O
  O13      1.0000 0.74872  0.75330  0.25280  Biso   1.000  O
  O14      1.0000 0.25128  0.75330  0.24720  Biso   1.000  O
  O15      1.0000 0.24872  0.25330  0.25280  Biso   1.000  O
  O16      1.0000 0.75128  0.25330  0.24720  Biso   1.000  O
  O17      1.0000 0.25600  0.41510  0.05320  Biso   1.000  O
  O18      1.0000 0.74400  0.41510  0.44680  Biso   1.000  O
  O19      1.0000 0.75600  0.91510  0.05320  Biso   1.000  O
  O20      1.0000 0.24400  0.91510  0.44680  Biso   1.000  O
  O21      1.0000 0.74400  0.58490  0.94680  Biso   1.000  O
  O22      1.0000 0.25600  0.58490  0.55320  Biso   1.000  O
  O23      1.0000 0.24400  0.08490  0.94680  Biso   1.000  O
  O24      1.0000 0.75600  0.08490  0.55320  Biso   1.000  O
  O25      1.0000 0.18427  0.36010  0.91600  Biso   1.000  O
  O26      1.0000 0.81573  0.36010  0.58400  Biso   1.000  O
  O27      1.0000 0.68427  0.86010  0.91600  Biso   1.000  O
  O28      1.0000 0.31573  0.86010  0.58400  Biso   1.000  O
  O29      1.0000 0.81573  0.63990  0.08400  Biso   1.000  O
  O30      1.0000 0.18427  0.63990  0.41600  Biso   1.000  O
  O31      1.0000 0.31573  0.13990  0.08400  Biso   1.000  O
  O32      1.0000 0.68427  0.13990  0.41600  Biso   1.000  O
  N1       1.0000 0.35834  0.34540  0.22500  Biso   1.000  N
  N2       1.0000 0.64166  0.34540  0.27500  Biso   1.000  N
  N3       1.0000 0.85834  0.84540  0.22500  Biso   1.000  N
  N4       1.0000 0.14166  0.84540  0.27500  Biso   1.000  N
  N5       1.0000 0.64166  0.65460  0.77500  Biso   1.000  N
  N6       1.0000 0.35834  0.65460  0.72500  Biso   1.000  N
  N7       1.0000 0.14166  0.15460  0.77500  Biso   1.000  N
  N8       1.0000 0.85834  0.15460  0.72500  Biso   1.000  N
  C1       1.0000 0.29740  0.28120  0.75980  Biso   1.000  C
  C2       1.0000 0.70260  0.28120  0.74020  Biso   1.000  C
  C3       1.0000 0.79740  0.78120  0.75980  Biso   1.000  C
  C4       1.0000 0.20260  0.78120  0.74020  Biso   1.000  C
  C5       1.0000 0.70260  0.71880  0.24020  Biso   1.000  C
  C6       1.0000 0.29740  0.71880  0.25980  Biso   1.000  C
  C7       1.0000 0.20260  0.21880  0.24020  Biso   1.000  C
  C8       1.0000 0.79740  0.21880  0.25980  Biso   1.000  C
  C9       1.0000 0.32420  0.30250  0.61570  Biso   1.000  C
  C10      1.0000 0.67580  0.30250  0.88430  Biso   1.000  C
  C11      1.0000 0.82420  0.80250  0.61570  Biso   1.000  C
  C12      1.0000 0.17580  0.80250  0.88430  Biso   1.000  C
  C13      1.0000 0.67580  0.69750  0.38430  Biso   1.000  C
  C14      1.0000 0.32420  0.69750  0.11570  Biso   1.000  C
  C15      1.0000 0.17580  0.19750  0.38430  Biso   1.000  C
  C16      1.0000 0.82420  0.19750  0.11570  Biso   1.000  C
  H1       1.0000 0.30590  0.26700  0.53290  Biso   1.000  H
  H2       1.0000 0.69410  0.26700  0.96710  Biso   1.000  H
  H3       1.0000 0.80590  0.76700  0.53290  Biso   1.000  H
  H4       1.0000 0.19410  0.76700  0.96710  Biso   1.000  H
  H5       1.0000 0.69410  0.73300  0.46710  Biso   1.000  H
  H6       1.0000 0.30590  0.73300  0.03290  Biso   1.000  H
  H7       1.0000 0.19410  0.23300  0.46710  Biso   1.000  H
  H8       1.0000 0.80590  0.23300  0.03290  Biso   1.000  H
  H9       1.0000 0.36040  0.28000  0.62690  Biso   1.000  H
  H10      1.0000 0.63960  0.28000  0.87310  Biso   1.000  H
  H11      1.0000 0.86040  0.78000  0.62690  Biso   1.000  H
  H12      1.0000 0.13960  0.78000  0.87310  Biso   1.000  H
  H13      1.0000 0.63960  0.72000  0.37310  Biso   1.000  H
  H14      1.0000 0.36040  0.72000  0.12690  Biso   1.000  H
  H15      1.0000 0.13960  0.22000  0.37310  Biso   1.000  H
  H16      1.0000 0.86040  0.22000  0.12690  Biso   1.000  H
  H17      1.0000 0.32320  0.37420  0.59550  Biso   1.000  H
  H18      1.0000 0.67680  0.37420  0.90450  Biso   1.000  H
  H19      1.0000 0.82320  0.87420  0.59550  Biso   1.000  H
  H20      1.0000 0.17680  0.87420  0.90450  Biso   1.000  H
  H21      1.0000 0.67680  0.62580  0.40450  Biso   1.000  H
  H22      1.0000 0.32320  0.62580  0.09550  Biso   1.000  H
  H23      1.0000 0.17680  0.12580  0.40450  Biso   1.000  H
  H24      1.0000 0.82320  0.12580  0.09550  Biso   1.000  H
  C17      1.0000 0.21250  0.42880  0.98080  Biso   1.000  C
  C18      1.0000 0.78750  0.42880  0.51920  Biso   1.000  C
  C19      1.0000 0.71250  0.92880  0.98080  Biso   1.000  C
  C20      1.0000 0.28750  0.92880  0.51920  Biso   1.000  C
  C21      1.0000 0.78750  0.57120  0.01920  Biso   1.000  C
  C22      1.0000 0.21250  0.57120  0.48080  Biso   1.000  C
  C23      1.0000 0.28750  0.07120  0.01920  Biso   1.000  C
  C24      1.0000 0.71250  0.07120  0.48080  Biso   1.000  C
  C25      1.0000 0.19190  0.53670  0.96840  Biso   1.000  C
  C26      1.0000 0.80810  0.53670  0.53160  Biso   1.000  C
  C27      1.0000 0.69190  0.03670  0.96840  Biso   1.000  C
  C28      1.0000 0.30810  0.03670  0.53160  Biso   1.000  C
  C29      1.0000 0.80810  0.46330  0.03160  Biso   1.000  C
  C30      1.0000 0.19190  0.46330  0.46840  Biso   1.000  C
  C31      1.0000 0.30810  0.96330  0.03160  Biso   1.000  C
  C32      1.0000 0.69190  0.96330  0.46840  Biso   1.000  C
  H25      1.0000 0.15370  0.53590  0.96010  Biso   1.000  H
  H26      1.0000 0.84630  0.53590  0.53990  Biso   1.000  H
  H27      1.0000 0.65370  0.03590  0.96010  Biso   1.000  H
  H28      1.0000 0.34630  0.03590  0.53990  Biso   1.000  H
  H29      1.0000 0.84630  0.46410  0.03990  Biso   1.000  H
  H30      1.0000 0.15370  0.46410  0.46010  Biso   1.000  H
  H31      1.0000 0.34630  0.96410  0.03990  Biso   1.000  H
  H32      1.0000 0.65370  0.96410  0.46010  Biso   1.000  H
  H33      1.0000 0.20480  0.56840  0.88000  Biso   1.000  H
  H34      1.0000 0.79520  0.56840  0.62000  Biso   1.000  H
  H35      1.0000 0.70480  0.06840  0.88000  Biso   1.000  H
  H36      1.0000 0.29520  0.06840  0.62000  Biso   1.000  H
  H37      1.0000 0.79520  0.43160  0.12000  Biso   1.000  H
  H38      1.0000 0.20480  0.43160  0.38000  Biso   1.000  H
  H39      1.0000 0.29520  0.93160  0.12000  Biso   1.000  H
  H40      1.0000 0.70480  0.93160  0.38000  Biso   1.000  H
  H41      1.0000 0.20420  0.57410  0.05730  Biso   1.000  H
  H42      1.0000 0.79580  0.57410  0.44270  Biso   1.000  H
  H43      1.0000 0.70420  0.07410  0.05730  Biso   1.000  H
  H44      1.0000 0.29580  0.07410  0.44270  Biso   1.000  H
  H45      1.0000 0.79580  0.42590  0.94270  Biso   1.000  H
  H46      1.0000 0.20420  0.42590  0.55730  Biso   1.000  H
  H47      1.0000 0.29580  0.92590  0.94270  Biso   1.000  H
  H48      1.0000 0.70420  0.92590  0.55730  Biso   1.000  H
  C33      1.0000 0.40160  0.29160  0.26490  Biso   1.000  C
  C34      1.0000 0.59840  0.29160  0.23510  Biso   1.000  C
  C35      1.0000 0.90160  0.79160  0.26490  Biso   1.000  C
  C36      1.0000 0.09840  0.79160  0.23510  Biso   1.000  C
  C37      1.0000 0.59840  0.70840  0.73510  Biso   1.000  C
  C38      1.0000 0.40160  0.70840  0.76490  Biso   1.000  C
  C39      1.0000 0.09840  0.20840  0.73510  Biso   1.000  C
  C40      1.0000 0.90160  0.20840  0.76490  Biso   1.000  C
  H49      1.0000 0.40510  0.22730  0.22320  Biso   1.000  H
  H50      1.0000 0.59490  0.22730  0.27680  Biso   1.000  H
  H51      1.0000 0.90510  0.72730  0.22320  Biso   1.000  H
  H52      1.0000 0.09490  0.72730  0.27680  Biso   1.000  H
  H53      1.0000 0.59490  0.77270  0.77680  Biso   1.000  H
  H54      1.0000 0.40510  0.77270  0.72320  Biso   1.000  H
  H55      1.0000 0.09490  0.27270  0.77680  Biso   1.000  H
  H56      1.0000 0.90510  0.27270  0.72320  Biso   1.000  H
  C41      1.0000 0.44170  0.32760  0.36640  Biso   1.000  C
  C42      1.0000 0.55830  0.32760  0.13360  Biso   1.000  C
  C43      1.0000 0.94170  0.82760  0.36640  Biso   1.000  C
  C44      1.0000 0.05830  0.82760  0.13360  Biso   1.000  C
  C45      1.0000 0.55830  0.67240  0.63360  Biso   1.000  C
  C46      1.0000 0.44170  0.67240  0.86640  Biso   1.000  C
  C47      1.0000 0.05830  0.17240  0.63360  Biso   1.000  C
  C48      1.0000 0.94170  0.17240  0.86640  Biso   1.000  C
  H57      1.0000 0.47120  0.28720  0.39250  Biso   1.000  H
  H58      1.0000 0.52880  0.28720  0.10750  Biso   1.000  H
  H59      1.0000 0.97120  0.78720  0.39250  Biso   1.000  H
  H60      1.0000 0.02880  0.78720  0.10750  Biso   1.000  H
  H61      1.0000 0.52880  0.71280  0.60750  Biso   1.000  H
  H62      1.0000 0.47120  0.71280  0.89250  Biso   1.000  H
  H63      1.0000 0.02880  0.21280  0.60750  Biso   1.000  H
  H64      1.0000 0.97120  0.21280  0.89250  Biso   1.000  H
  C49      1.0000 0.43790  0.42340  0.42880  Biso   1.000  C
  C50      1.0000 0.56210  0.42340  0.07120  Biso   1.000  C
  C51      1.0000 0.93790  0.92340  0.42880  Biso   1.000  C
  C52      1.0000 0.06210  0.92340  0.07120  Biso   1.000  C
  C53      1.0000 0.56210  0.57660  0.57120  Biso   1.000  C
  C54      1.0000 0.43790  0.57660  0.92880  Biso   1.000  C
  C55      1.0000 0.06210  0.07660  0.57120  Biso   1.000  C
  C56      1.0000 0.93790  0.07660  0.92880  Biso   1.000  C
  C57      1.0000 0.39310  0.47910  0.38680  Biso   1.000  C
  C58      1.0000 0.60690  0.47910  0.11320  Biso   1.000  C
  C59      1.0000 0.89310  0.97910  0.38680  Biso   1.000  C
  C60      1.0000 0.10690  0.97910  0.11320  Biso   1.000  C
  C61      1.0000 0.60690  0.52090  0.61320  Biso   1.000  C
  C62      1.0000 0.39310  0.52090  0.88680  Biso   1.000  C
  C63      1.0000 0.10690  0.02090  0.61320  Biso   1.000  C
  C64      1.0000 0.89310  0.02090  0.88680  Biso   1.000  C
  H65      1.0000 0.38890  0.54420  0.42520  Biso   1.000  H
  H66      1.0000 0.61110  0.54420  0.07480  Biso   1.000  H
  H67      1.0000 0.88890  0.04420  0.42520  Biso   1.000  H
  H68      1.0000 0.11110  0.04420  0.07480  Biso   1.000  H
  H69      1.0000 0.61110  0.45580  0.57480  Biso   1.000  H
  H70      1.0000 0.38890  0.45580  0.92520  Biso   1.000  H
  H71      1.0000 0.11110  0.95580  0.57480  Biso   1.000  H
  H72      1.0000 0.88890  0.95580  0.92520  Biso   1.000  H
  C65      1.0000 0.35430  0.43730  0.28660  Biso   1.000  C
  C66      1.0000 0.64570  0.43730  0.21340  Biso   1.000  C
  C67      1.0000 0.85430  0.93730  0.28660  Biso   1.000  C
  C68      1.0000 0.14570  0.93730  0.21340  Biso   1.000  C
  C69      1.0000 0.64570  0.56270  0.71340  Biso   1.000  C
  C70      1.0000 0.35430  0.56270  0.78660  Biso   1.000  C
  C71      1.0000 0.14570  0.06270  0.71340  Biso   1.000  C
  C72      1.0000 0.85430  0.06270  0.78660  Biso   1.000  C
  H73      1.0000 0.32400  0.47540  0.26100  Biso   1.000  H
  H74      1.0000 0.67600  0.47540  0.23900  Biso   1.000  H
  H75      1.0000 0.82400  0.97540  0.26100  Biso   1.000  H
  H76      1.0000 0.17600  0.97540  0.23900  Biso   1.000  H
  H77      1.0000 0.67600  0.52460  0.73900  Biso   1.000  H
  H78      1.0000 0.32400  0.52460  0.76100  Biso   1.000  H
  H79      1.0000 0.17600  0.02460  0.73900  Biso   1.000  H
  H80      1.0000 0.82400  0.02460  0.76100  Biso   1.000  H
  C73      1.0000 0.48090  0.46610  0.53780  Biso   1.000  C
  C74      1.0000 0.51910  0.46610  0.96220  Biso   1.000  C
  C75      1.0000 0.98090  0.96610  0.53780  Biso   1.000  C
  C76      1.0000 0.01910  0.96610  0.96220  Biso   1.000  C
  C77      1.0000 0.51910  0.53390  0.46220  Biso   1.000  C
  C78      1.0000 0.48090  0.53390  0.03780  Biso   1.000  C
  C79      1.0000 0.01910  0.03390  0.46220  Biso   1.000  C
  C80      1.0000 0.98090  0.03390  0.03780  Biso   1.000  C
  H81      1.0000 0.46450  0.50440  0.61620  Biso   1.000  H
  H82      1.0000 0.53550  0.50440  0.88380  Biso   1.000  H
  H83      1.0000 0.96450  0.00440  0.61620  Biso   1.000  H
  H84      1.0000 0.03550  0.00440  0.88380  Biso   1.000  H
  H85      1.0000 0.53550  0.49560  0.38380  Biso   1.000  H
  H86      1.0000 0.46450  0.49560  0.11620  Biso   1.000  H
  H87      1.0000 0.03550  0.99560  0.38380  Biso   1.000  H
  H88      1.0000 0.96450  0.99560  0.11620  Biso   1.000  H
  H89      1.0000 0.50060  0.41040  0.58670  Biso   1.000  H
  H90      1.0000 0.49940  0.41040  0.91330  Biso   1.000  H
  H91      1.0000 0.00060  0.91040  0.58670  Biso   1.000  H
  H92      1.0000 0.99940  0.91040  0.91330  Biso   1.000  H
  H93      1.0000 0.49940  0.58960  0.41330  Biso   1.000  H
  H94      1.0000 0.50060  0.58960  0.08670  Biso   1.000  H
  H95      1.0000 0.99940  0.08960  0.41330  Biso   1.000  H
  H96      1.0000 0.00060  0.08960  0.08670  Biso   1.000  H
  O33      1.0000 0.50000  0.09100  0.25000  Biso   1.000  O
  O34      1.0000 0.00000  0.59100  0.25000  Biso   1.000  O
  O35      1.0000 0.50000  0.90900  0.75000  Biso   1.000  O
  O36      1.0000 0.00000  0.40900  0.75000  Biso   1.000  O
  O37      1.0000 0.50000  0.92800  0.25000  Biso   1.000  O
  O38      1.0000 0.00000  0.42800  0.25000  Biso   1.000  O
  O39      1.0000 0.50000  0.07200  0.75000  Biso   1.000  O
  O40      1.0000 0.00000  0.57200  0.75000  Biso   1.000  O
