data_image0
_cell_length_a       14.6637
_cell_length_b       14.6637
_cell_length_c       16.7085
_cell_angle_alpha    90
_cell_angle_beta     90
_cell_angle_gamma    90

_symmetry_space_group_name_H-M    "P 1"
_symmetry_int_tables_number       1

loop_
  _symmetry_equiv_pos_as_xyz
  'x, y, z'

loop_
  _atom_site_label
  _atom_site_occupancy
  _atom_site_fract_x
  _atom_site_fract_y
  _atom_site_fract_z
  _atom_site_thermal_displace_type
  _atom_site_B_iso_or_equiv
  _atom_site_type_symbol
  Cu1      1.0000 0.50000  0.00000  0.50000  Biso   1.000  Cu
  Cu2      1.0000 0.50000  0.00000  0.00000  Biso   1.000  Cu
  Cu3      1.0000 0.00000  0.50000  0.00000  Biso   1.000  Cu
  Cu4      1.0000 0.00000  0.50000  0.50000  Biso   1.000  Cu
  N1       1.0000 0.56680  0.07080  0.58490  Biso   1.000  N
  N2       1.0000 0.43320  0.07080  0.08490  Biso   1.000  N
  N3       1.0000 0.43320  0.92920  0.58490  Biso   1.000  N
  N4       1.0000 0.56680  0.92920  0.08490  Biso   1.000  N
  N5       1.0000 0.07080  0.56680  0.91510  Biso   1.000  N
  N6       1.0000 0.92920  0.56680  0.41510  Biso   1.000  N
  N7       1.0000 0.07080  0.43320  0.41510  Biso   1.000  N
  N8       1.0000 0.92920  0.43320  0.91510  Biso   1.000  N
  N9       1.0000 0.06680  0.57080  0.08490  Biso   1.000  N
  N10      1.0000 0.93320  0.57080  0.58490  Biso   1.000  N
  N11      1.0000 0.93320  0.42920  0.08490  Biso   1.000  N
  N12      1.0000 0.06680  0.42920  0.58490  Biso   1.000  N
  N13      1.0000 0.57080  0.06680  0.41510  Biso   1.000  N
  N14      1.0000 0.42920  0.06680  0.91510  Biso   1.000  N
  N15      1.0000 0.57080  0.93320  0.91510  Biso   1.000  N
  N16      1.0000 0.42920  0.93320  0.41510  Biso   1.000  N
  C1       1.0000 0.66080  0.06800  0.58400  Biso   1.000  C
  C2       1.0000 0.33920  0.06800  0.08400  Biso   1.000  C
  C3       1.0000 0.33920  0.93200  0.58400  Biso   1.000  C
  C4       1.0000 0.66080  0.93200  0.08400  Biso   1.000  C
  C5       1.0000 0.06800  0.66080  0.91600  Biso   1.000  C
  C6       1.0000 0.93200  0.66080  0.41600  Biso   1.000  C
  C7       1.0000 0.06800  0.33920  0.41600  Biso   1.000  C
  C8       1.0000 0.93200  0.33920  0.91600  Biso   1.000  C
  C9       1.0000 0.16080  0.56800  0.08400  Biso   1.000  C
  C10      1.0000 0.83920  0.56800  0.58400  Biso   1.000  C
  C11      1.0000 0.83920  0.43200  0.08400  Biso   1.000  C
  C12      1.0000 0.16080  0.43200  0.58400  Biso   1.000  C
  C13      1.0000 0.56800  0.16080  0.41600  Biso   1.000  C
  C14      1.0000 0.43200  0.16080  0.91600  Biso   1.000  C
  C15      1.0000 0.56800  0.83920  0.91600  Biso   1.000  C
  C16      1.0000 0.43200  0.83920  0.41600  Biso   1.000  C
  H1       1.0000 0.69090  0.03390  0.54530  Biso   1.000  H
  H2       1.0000 0.30910  0.03390  0.04530  Biso   1.000  H
  H3       1.0000 0.30910  0.96610  0.54530  Biso   1.000  H
  H4       1.0000 0.69090  0.96610  0.04530  Biso   1.000  H
  H5       1.0000 0.03390  0.69090  0.95470  Biso   1.000  H
  H6       1.0000 0.96610  0.69090  0.45470  Biso   1.000  H
  H7       1.0000 0.03390  0.30910  0.45470  Biso   1.000  H
  H8       1.0000 0.96610  0.30910  0.95470  Biso   1.000  H
  H9       1.0000 0.19090  0.53390  0.04530  Biso   1.000  H
  H10      1.0000 0.80910  0.53390  0.54530  Biso   1.000  H
  H11      1.0000 0.80910  0.46610  0.04530  Biso   1.000  H
  H12      1.0000 0.19090  0.46610  0.54530  Biso   1.000  H
  H13      1.0000 0.53390  0.19090  0.45470  Biso   1.000  H
  H14      1.0000 0.46610  0.19090  0.95470  Biso   1.000  H
  H15      1.0000 0.53390  0.80910  0.95470  Biso   1.000  H
  H16      1.0000 0.46610  0.80910  0.45470  Biso   1.000  H
  C17      1.0000 0.71090  0.11630  0.64090  Biso   1.000  C
  C18      1.0000 0.28910  0.11630  0.14090  Biso   1.000  C
  C19      1.0000 0.28910  0.88370  0.64090  Biso   1.000  C
  C20      1.0000 0.71090  0.88370  0.14090  Biso   1.000  C
  C21      1.0000 0.11630  0.71090  0.85910  Biso   1.000  C
  C22      1.0000 0.88370  0.71090  0.35910  Biso   1.000  C
  C23      1.0000 0.11630  0.28910  0.35910  Biso   1.000  C
  C24      1.0000 0.88370  0.28910  0.85910  Biso   1.000  C
  C25      1.0000 0.21090  0.61630  0.14090  Biso   1.000  C
  C26      1.0000 0.78910  0.61630  0.64090  Biso   1.000  C
  C27      1.0000 0.78910  0.38370  0.14090  Biso   1.000  C
  C28      1.0000 0.21090  0.38370  0.64090  Biso   1.000  C
  C29      1.0000 0.61630  0.21090  0.35910  Biso   1.000  C
  C30      1.0000 0.38370  0.21090  0.85910  Biso   1.000  C
  C31      1.0000 0.61630  0.78910  0.85910  Biso   1.000  C
  C32      1.0000 0.38370  0.78910  0.35910  Biso   1.000  C
  H17      1.0000 0.77420  0.11640  0.63780  Biso   1.000  H
  H18      1.0000 0.22580  0.11640  0.13780  Biso   1.000  H
  H19      1.0000 0.22580  0.88360  0.63780  Biso   1.000  H
  H20      1.0000 0.77420  0.88360  0.13780  Biso   1.000  H
  H21      1.0000 0.11640  0.77420  0.86220  Biso   1.000  H
  H22      1.0000 0.88360  0.77420  0.36220  Biso   1.000  H
  H23      1.0000 0.11640  0.22580  0.36220  Biso   1.000  H
  H24      1.0000 0.88360  0.22580  0.86220  Biso   1.000  H
  H25      1.0000 0.27420  0.61640  0.13780  Biso   1.000  H
  H26      1.0000 0.72580  0.61640  0.63780  Biso   1.000  H
  H27      1.0000 0.72580  0.38360  0.13780  Biso   1.000  H
  H28      1.0000 0.27420  0.38360  0.63780  Biso   1.000  H
  H29      1.0000 0.61640  0.27420  0.36220  Biso   1.000  H
  H30      1.0000 0.38360  0.27420  0.86220  Biso   1.000  H
  H31      1.0000 0.61640  0.72580  0.86220  Biso   1.000  H
  H32      1.0000 0.38360  0.72580  0.36220  Biso   1.000  H
  C33      1.0000 0.66850  0.16390  0.70190  Biso   1.000  C
  C34      1.0000 0.33150  0.16390  0.20190  Biso   1.000  C
  C35      1.0000 0.33150  0.83610  0.70190  Biso   1.000  C
  C36      1.0000 0.66850  0.83610  0.20190  Biso   1.000  C
  C37      1.0000 0.16390  0.66850  0.79810  Biso   1.000  C
  C38      1.0000 0.83610  0.66850  0.29810  Biso   1.000  C
  C39      1.0000 0.16390  0.33150  0.29810  Biso   1.000  C
  C40      1.0000 0.83610  0.33150  0.79810  Biso   1.000  C
  C41      1.0000 0.16850  0.66390  0.20190  Biso   1.000  C
  C42      1.0000 0.83150  0.66390  0.70190  Biso   1.000  C
  C43      1.0000 0.83150  0.33610  0.20190  Biso   1.000  C
  C44      1.0000 0.16850  0.33610  0.70190  Biso   1.000  C
  C45      1.0000 0.66390  0.16850  0.29810  Biso   1.000  C
  C46      1.0000 0.33610  0.16850  0.79810  Biso   1.000  C
  C47      1.0000 0.66390  0.83150  0.79810  Biso   1.000  C
  C48      1.0000 0.33610  0.83150  0.29810  Biso   1.000  C
  C49      1.0000 0.57820  0.16000  0.70160  Biso   1.000  C
  C50      1.0000 0.42180  0.16000  0.20160  Biso   1.000  C
  C51      1.0000 0.42180  0.84000  0.70160  Biso   1.000  C
  C52      1.0000 0.57820  0.84000  0.20160  Biso   1.000  C
  C53      1.0000 0.16000  0.57820  0.79840  Biso   1.000  C
  C54      1.0000 0.84000  0.57820  0.29840  Biso   1.000  C
  C55      1.0000 0.16000  0.42180  0.29840  Biso   1.000  C
  C56      1.0000 0.84000  0.42180  0.79840  Biso   1.000  C
  C57      1.0000 0.07820  0.66000  0.20160  Biso   1.000  C
  C58      1.0000 0.92180  0.66000  0.70160  Biso   1.000  C
  C59      1.0000 0.92180  0.34000  0.20160  Biso   1.000  C
  C60      1.0000 0.07820  0.34000  0.70160  Biso   1.000  C
  C61      1.0000 0.66000  0.07820  0.29840  Biso   1.000  C
  C62      1.0000 0.34000  0.07820  0.79840  Biso   1.000  C
  C63      1.0000 0.66000  0.92180  0.79840  Biso   1.000  C
  C64      1.0000 0.34000  0.92180  0.29840  Biso   1.000  C
  H33      1.0000 0.54580  0.18970  0.74180  Biso   1.000  H
  H34      1.0000 0.45420  0.18970  0.24180  Biso   1.000  H
  H35      1.0000 0.45420  0.81030  0.74180  Biso   1.000  H
  H36      1.0000 0.54580  0.81030  0.24180  Biso   1.000  H
  H37      1.0000 0.18970  0.54580  0.75820  Biso   1.000  H
  H38      1.0000 0.81030  0.54580  0.25820  Biso   1.000  H
  H39      1.0000 0.18970  0.45420  0.25820  Biso   1.000  H
  H40      1.0000 0.81030  0.45420  0.75820  Biso   1.000  H
  H41      1.0000 0.04580  0.68970  0.24180  Biso   1.000  H
  H42      1.0000 0.95420  0.68970  0.74180  Biso   1.000  H
  H43      1.0000 0.95420  0.31030  0.24180  Biso   1.000  H
  H44      1.0000 0.04580  0.31030  0.74180  Biso   1.000  H
  H45      1.0000 0.68970  0.04580  0.25820  Biso   1.000  H
  H46      1.0000 0.31030  0.04580  0.75820  Biso   1.000  H
  H47      1.0000 0.68970  0.95420  0.75820  Biso   1.000  H
  H48      1.0000 0.31030  0.95420  0.25820  Biso   1.000  H
  C65      1.0000 0.53140  0.11340  0.64370  Biso   1.000  C
  C66      1.0000 0.46860  0.11340  0.14370  Biso   1.000  C
  C67      1.0000 0.46860  0.88660  0.64370  Biso   1.000  C
  C68      1.0000 0.53140  0.88660  0.14370  Biso   1.000  C
  C69      1.0000 0.11340  0.53140  0.85630  Biso   1.000  C
  C70      1.0000 0.88660  0.53140  0.35630  Biso   1.000  C
  C71      1.0000 0.11340  0.46860  0.35630  Biso   1.000  C
  C72      1.0000 0.88660  0.46860  0.85630  Biso   1.000  C
  C73      1.0000 0.03140  0.61340  0.14370  Biso   1.000  C
  C74      1.0000 0.96860  0.61340  0.64370  Biso   1.000  C
  C75      1.0000 0.96860  0.38660  0.14370  Biso   1.000  C
  C76      1.0000 0.03140  0.38660  0.64370  Biso   1.000  C
  C77      1.0000 0.61340  0.03140  0.35630  Biso   1.000  C
  C78      1.0000 0.38660  0.03140  0.85630  Biso   1.000  C
  C79      1.0000 0.61340  0.96860  0.85630  Biso   1.000  C
  C80      1.0000 0.38660  0.96860  0.35630  Biso   1.000  C
  H49      1.0000 0.46820  0.11270  0.64760  Biso   1.000  H
  H50      1.0000 0.53180  0.11270  0.14760  Biso   1.000  H
  H51      1.0000 0.53180  0.88730  0.64760  Biso   1.000  H
  H52      1.0000 0.46820  0.88730  0.14760  Biso   1.000  H
  H53      1.0000 0.11270  0.46820  0.85240  Biso   1.000  H
  H54      1.0000 0.88730  0.46820  0.35240  Biso   1.000  H
  H55      1.0000 0.11270  0.53180  0.35240  Biso   1.000  H
  H56      1.0000 0.88730  0.53180  0.85240  Biso   1.000  H
  H57      1.0000 0.96820  0.61270  0.14760  Biso   1.000  H
  H58      1.0000 0.03180  0.61270  0.64760  Biso   1.000  H
  H59      1.0000 0.03180  0.38730  0.14760  Biso   1.000  H
  H60      1.0000 0.96820  0.38730  0.64760  Biso   1.000  H
  H61      1.0000 0.61270  0.96820  0.35240  Biso   1.000  H
  H62      1.0000 0.38730  0.96820  0.85240  Biso   1.000  H
  H63      1.0000 0.61270  0.03180  0.85240  Biso   1.000  H
  H64      1.0000 0.38730  0.03180  0.35240  Biso   1.000  H
  C81      1.0000 0.72100  0.21330  0.76620  Biso   1.000  C
  C82      1.0000 0.27900  0.21330  0.26620  Biso   1.000  C
  C83      1.0000 0.27900  0.78670  0.76620  Biso   1.000  C
  C84      1.0000 0.72100  0.78670  0.26620  Biso   1.000  C
  C85      1.0000 0.21330  0.72100  0.73380  Biso   1.000  C
  C86      1.0000 0.78670  0.72100  0.23380  Biso   1.000  C
  C87      1.0000 0.21330  0.27900  0.23380  Biso   1.000  C
  C88      1.0000 0.78670  0.27900  0.73380  Biso   1.000  C
  C89      1.0000 0.22100  0.71330  0.26620  Biso   1.000  C
  C90      1.0000 0.77900  0.71330  0.76620  Biso   1.000  C
  C91      1.0000 0.77900  0.28670  0.26620  Biso   1.000  C
  C92      1.0000 0.22100  0.28670  0.76620  Biso   1.000  C
  C93      1.0000 0.71330  0.22100  0.23380  Biso   1.000  C
  C94      1.0000 0.28670  0.22100  0.73380  Biso   1.000  C
  C95      1.0000 0.71330  0.77900  0.73380  Biso   1.000  C
  C96      1.0000 0.28670  0.77900  0.23380  Biso   1.000  C
  H65      1.0000 0.67840  0.24510  0.80070  Biso   1.000  H
  H66      1.0000 0.32160  0.24510  0.30070  Biso   1.000  H
  H67      1.0000 0.32160  0.75490  0.80070  Biso   1.000  H
  H68      1.0000 0.67840  0.75490  0.30070  Biso   1.000  H
  H69      1.0000 0.24510  0.67840  0.69930  Biso   1.000  H
  H70      1.0000 0.75490  0.67840  0.19930  Biso   1.000  H
  H71      1.0000 0.24510  0.32160  0.19930  Biso   1.000  H
  H72      1.0000 0.75490  0.32160  0.69930  Biso   1.000  H
  H73      1.0000 0.17840  0.74510  0.30070  Biso   1.000  H
  H74      1.0000 0.82160  0.74510  0.80070  Biso   1.000  H
  H75      1.0000 0.82160  0.25490  0.30070  Biso   1.000  H
  H76      1.0000 0.17840  0.25490  0.80070  Biso   1.000  H
  H77      1.0000 0.74510  0.17840  0.19930  Biso   1.000  H
  H78      1.0000 0.25490  0.17840  0.69930  Biso   1.000  H
  H79      1.0000 0.74510  0.82160  0.69930  Biso   1.000  H
  H80      1.0000 0.25490  0.82160  0.19930  Biso   1.000  H
  H81      1.0000 0.75330  0.16890  0.79860  Biso   1.000  H
  H82      1.0000 0.24670  0.16890  0.29860  Biso   1.000  H
  H83      1.0000 0.24670  0.83110  0.79860  Biso   1.000  H
  H84      1.0000 0.75330  0.83110  0.29860  Biso   1.000  H
  H85      1.0000 0.16890  0.75330  0.70140  Biso   1.000  H
  H86      1.0000 0.83110  0.75330  0.20140  Biso   1.000  H
  H87      1.0000 0.16890  0.24670  0.20140  Biso   1.000  H
  H88      1.0000 0.83110  0.24670  0.70140  Biso   1.000  H
  H89      1.0000 0.25330  0.66890  0.29860  Biso   1.000  H
  H90      1.0000 0.74670  0.66890  0.79860  Biso   1.000  H
  H91      1.0000 0.74670  0.33110  0.29860  Biso   1.000  H
  H92      1.0000 0.25330  0.33110  0.79860  Biso   1.000  H
  H93      1.0000 0.66890  0.25330  0.20140  Biso   1.000  H
  H94      1.0000 0.33110  0.25330  0.70140  Biso   1.000  H
  H95      1.0000 0.66890  0.74670  0.70140  Biso   1.000  H
  H96      1.0000 0.33110  0.74670  0.20140  Biso   1.000  H
  O1       1.0000 0.62000  0.88000  0.50000  Biso   1.000  O
  O2       1.0000 0.38000  0.88000  0.00000  Biso   1.000  O
  O3       1.0000 0.38000  0.12000  0.50000  Biso   1.000  O
  O4       1.0000 0.62000  0.12000  0.00000  Biso   1.000  O
  O5       1.0000 0.88000  0.62000  0.00000  Biso   1.000  O
  O6       1.0000 0.12000  0.62000  0.50000  Biso   1.000  O
  O7       1.0000 0.88000  0.38000  0.50000  Biso   1.000  O
  O8       1.0000 0.12000  0.38000  0.00000  Biso   1.000  O
  O9       1.0000 0.58990  0.73990  0.53030  Biso   1.000  O
  O10      1.0000 0.41010  0.73990  0.03030  Biso   1.000  O
  O11      1.0000 0.41010  0.26010  0.53030  Biso   1.000  O
  O12      1.0000 0.58990  0.26010  0.03030  Biso   1.000  O
  O13      1.0000 0.73990  0.58990  0.96970  Biso   1.000  O
  O14      1.0000 0.26010  0.58990  0.46970  Biso   1.000  O
  O15      1.0000 0.73990  0.41010  0.46970  Biso   1.000  O
  O16      1.0000 0.26010  0.41010  0.96970  Biso   1.000  O
  O17      1.0000 0.08990  0.23990  0.03030  Biso   1.000  O
  O18      1.0000 0.91010  0.23990  0.53030  Biso   1.000  O
  O19      1.0000 0.91010  0.76010  0.03030  Biso   1.000  O
  O20      1.0000 0.08990  0.76010  0.53030  Biso   1.000  O
  O21      1.0000 0.23990  0.08990  0.46970  Biso   1.000  O
  O22      1.0000 0.76010  0.08990  0.96970  Biso   1.000  O
  O23      1.0000 0.23990  0.91010  0.96970  Biso   1.000  O
  O24      1.0000 0.76010  0.91010  0.46970  Biso   1.000  O
  O25      1.0000 0.71870  0.78130  0.50000  Biso   1.000  O
  O26      1.0000 0.28130  0.78130  0.00000  Biso   1.000  O
  O27      1.0000 0.28130  0.21870  0.50000  Biso   1.000  O
  O28      1.0000 0.71870  0.21870  0.00000  Biso   1.000  O
  O29      1.0000 0.78130  0.71870  0.00000  Biso   1.000  O
  O30      1.0000 0.21870  0.71870  0.50000  Biso   1.000  O
  O31      1.0000 0.78130  0.28130  0.50000  Biso   1.000  O
  O32      1.0000 0.21870  0.28130  0.00000  Biso   1.000  O
  N17      1.0000 0.63990  0.80170  0.51090  Biso   1.000  N
  N18      1.0000 0.36010  0.80170  0.01090  Biso   1.000  N
  N19      1.0000 0.36010  0.19830  0.51090  Biso   1.000  N
  N20      1.0000 0.63990  0.19830  0.01090  Biso   1.000  N
  N21      1.0000 0.80170  0.63990  0.98910  Biso   1.000  N
  N22      1.0000 0.19830  0.63990  0.48910  Biso   1.000  N
  N23      1.0000 0.80170  0.36010  0.48910  Biso   1.000  N
  N24      1.0000 0.19830  0.36010  0.98910  Biso   1.000  N
  N25      1.0000 0.13990  0.30170  0.01090  Biso   1.000  N
  N26      1.0000 0.86010  0.30170  0.51090  Biso   1.000  N
  N27      1.0000 0.86010  0.69830  0.01090  Biso   1.000  N
  N28      1.0000 0.13990  0.69830  0.51090  Biso   1.000  N
  N29      1.0000 0.30170  0.13990  0.48910  Biso   1.000  N
  N30      1.0000 0.69830  0.13990  0.98910  Biso   1.000  N
  N31      1.0000 0.30170  0.86010  0.98910  Biso   1.000  N
  N32      1.0000 0.69830  0.86010  0.48910  Biso   1.000  N
  O33      1.0000 0.94300  0.10800  0.08700  Biso   1.000  O
  O34      1.0000 0.05700  0.10800  0.58700  Biso   1.000  O
  O35      1.0000 0.05700  0.89200  0.08700  Biso   1.000  O
  O36      1.0000 0.94300  0.89200  0.58700  Biso   1.000  O
  O37      1.0000 0.10800  0.94300  0.41300  Biso   1.000  O
  O38      1.0000 0.89200  0.94300  0.91300  Biso   1.000  O
  O39      1.0000 0.10800  0.05700  0.91300  Biso   1.000  O
  O40      1.0000 0.89200  0.05700  0.41300  Biso   1.000  O
  O41      1.0000 0.44300  0.60800  0.58700  Biso   1.000  O
  O42      1.0000 0.55700  0.60800  0.08700  Biso   1.000  O
  O43      1.0000 0.55700  0.39200  0.58700  Biso   1.000  O
  O44      1.0000 0.44300  0.39200  0.08700  Biso   1.000  O
  O45      1.0000 0.60800  0.44300  0.91300  Biso   1.000  O
  O46      1.0000 0.39200  0.44300  0.41300  Biso   1.000  O
  O47      1.0000 0.60800  0.55700  0.41300  Biso   1.000  O
  O48      1.0000 0.39200  0.55700  0.91300  Biso   1.000  O
  O49      1.0000 0.95700  0.11200  0.32700  Biso   1.000  O
  O50      1.0000 0.04300  0.11200  0.82700  Biso   1.000  O
  O51      1.0000 0.04300  0.88800  0.32700  Biso   1.000  O
  O52      1.0000 0.95700  0.88800  0.82700  Biso   1.000  O
  O53      1.0000 0.11200  0.95700  0.17300  Biso   1.000  O
  O54      1.0000 0.88800  0.95700  0.67300  Biso   1.000  O
  O55      1.0000 0.11200  0.04300  0.67300  Biso   1.000  O
  O56      1.0000 0.88800  0.04300  0.17300  Biso   1.000  O
  O57      1.0000 0.45700  0.61200  0.82700  Biso   1.000  O
  O58      1.0000 0.54300  0.61200  0.32700  Biso   1.000  O
  O59      1.0000 0.54300  0.38800  0.82700  Biso   1.000  O
  O60      1.0000 0.45700  0.38800  0.32700  Biso   1.000  O
  O61      1.0000 0.61200  0.45700  0.67300  Biso   1.000  O
  O62      1.0000 0.38800  0.45700  0.17300  Biso   1.000  O
  O63      1.0000 0.61200  0.54300  0.17300  Biso   1.000  O
  O64      1.0000 0.38800  0.54300  0.67300  Biso   1.000  O
