data_image0
_cell_length_a       15.949
_cell_length_b       13.623
_cell_length_c       9.793
_cell_angle_alpha    90
_cell_angle_beta     100.087
_cell_angle_gamma    90

_symmetry_space_group_name_H-M    "P 1"
_symmetry_int_tables_number       1

loop_
  _symmetry_equiv_pos_as_xyz
  'x, y, z'

loop_
  _atom_site_label
  _atom_site_occupancy
  _atom_site_fract_x
  _atom_site_fract_y
  _atom_site_fract_z
  _atom_site_thermal_displace_type
  _atom_site_B_iso_or_equiv
  _atom_site_type_symbol
  Cu1      1.0000 0.75000  0.75000  0.50000  Biso   1.000  Cu
  Cu2      1.0000 0.25000  0.75000  0.00000  Biso   1.000  Cu
  Cu3      1.0000 0.25000  0.25000  0.50000  Biso   1.000  Cu
  Cu4      1.0000 0.75000  0.25000  0.00000  Biso   1.000  Cu
  S1       1.0000 0.50000  0.44240  0.75000  Biso   1.000  S
  S2       1.0000 0.00000  0.94240  0.75000  Biso   1.000  S
  S3       1.0000 0.50000  0.55760  0.25000  Biso   1.000  S
  S4       1.0000 0.00000  0.05760  0.25000  Biso   1.000  S
  O1       1.0000 0.67663  0.88007  0.61260  Biso   1.000  O
  O2       1.0000 0.32337  0.88007  0.88740  Biso   1.000  O
  O3       1.0000 0.17663  0.38007  0.61260  Biso   1.000  O
  O4       1.0000 0.82337  0.38007  0.88740  Biso   1.000  O
  O5       1.0000 0.32337  0.11993  0.38740  Biso   1.000  O
  O6       1.0000 0.67663  0.11993  0.11260  Biso   1.000  O
  O7       1.0000 0.82337  0.61993  0.38740  Biso   1.000  O
  O8       1.0000 0.17663  0.61993  0.11260  Biso   1.000  O
  H1       1.0000 0.67500  0.86500  0.69230  Biso   1.000  H
  H2       1.0000 0.32500  0.86500  0.80770  Biso   1.000  H
  H3       1.0000 0.17500  0.36500  0.69230  Biso   1.000  H
  H4       1.0000 0.82500  0.36500  0.80770  Biso   1.000  H
  H5       1.0000 0.32500  0.13500  0.30770  Biso   1.000  H
  H6       1.0000 0.67500  0.13500  0.19230  Biso   1.000  H
  H7       1.0000 0.82500  0.63500  0.30770  Biso   1.000  H
  H8       1.0000 0.17500  0.63500  0.19230  Biso   1.000  H
  N1       1.0000 0.67215  0.64890  0.56140  Biso   1.000  N
  N2       1.0000 0.32785  0.64890  0.93860  Biso   1.000  N
  N3       1.0000 0.17215  0.14890  0.56140  Biso   1.000  N
  N4       1.0000 0.82785  0.14890  0.93860  Biso   1.000  N
  N5       1.0000 0.32785  0.35110  0.43860  Biso   1.000  N
  N6       1.0000 0.67215  0.35110  0.06140  Biso   1.000  N
  N7       1.0000 0.82785  0.85110  0.43860  Biso   1.000  N
  N8       1.0000 0.17215  0.85110  0.06140  Biso   1.000  N
  N9       1.0000 0.67186  0.76674  0.32120  Biso   1.000  N
  N10      1.0000 0.32814  0.76674  0.17880  Biso   1.000  N
  N11      1.0000 0.17186  0.26674  0.32120  Biso   1.000  N
  N12      1.0000 0.82814  0.26674  0.17880  Biso   1.000  N
  N13      1.0000 0.32814  0.23326  0.67880  Biso   1.000  N
  N14      1.0000 0.67186  0.23326  0.82120  Biso   1.000  N
  N15      1.0000 0.82814  0.73326  0.67880  Biso   1.000  N
  N16      1.0000 0.17186  0.73326  0.82120  Biso   1.000  N
  N17      1.0000 0.60490  0.76720  0.07980  Biso   1.000  N
  N18      1.0000 0.39510  0.76720  0.42020  Biso   1.000  N
  N19      1.0000 0.10490  0.26720  0.07980  Biso   1.000  N
  N20      1.0000 0.89510  0.26720  0.42020  Biso   1.000  N
  N21      1.0000 0.39510  0.23280  0.92020  Biso   1.000  N
  N22      1.0000 0.60490  0.23280  0.57980  Biso   1.000  N
  N23      1.0000 0.89510  0.73280  0.92020  Biso   1.000  N
  N24      1.0000 0.10490  0.73280  0.57980  Biso   1.000  N
  N25      1.0000 0.66100  0.82250  0.87740  Biso   1.000  N
  N26      1.0000 0.33900  0.82250  0.62260  Biso   1.000  N
  N27      1.0000 0.16100  0.32250  0.87740  Biso   1.000  N
  N28      1.0000 0.83900  0.32250  0.62260  Biso   1.000  N
  N29      1.0000 0.33900  0.17750  0.12260  Biso   1.000  N
  N30      1.0000 0.66100  0.17750  0.37740  Biso   1.000  N
  N31      1.0000 0.83900  0.67750  0.12260  Biso   1.000  N
  N32      1.0000 0.16100  0.67750  0.37740  Biso   1.000  N
  C1       1.0000 0.58968  0.67010  0.55610  Biso   1.000  C
  C2       1.0000 0.41032  0.67010  0.94390  Biso   1.000  C
  C3       1.0000 0.08968  0.17010  0.55610  Biso   1.000  C
  C4       1.0000 0.91032  0.17010  0.94390  Biso   1.000  C
  C5       1.0000 0.41032  0.32990  0.44390  Biso   1.000  C
  C6       1.0000 0.58968  0.32990  0.05610  Biso   1.000  C
  C7       1.0000 0.91032  0.82990  0.44390  Biso   1.000  C
  C8       1.0000 0.08968  0.82990  0.05610  Biso   1.000  C
  H9       1.0000 0.56850  0.72800  0.51300  Biso   1.000  H
  H10      1.0000 0.43150  0.72800  0.98700  Biso   1.000  H
  H11      1.0000 0.06850  0.22800  0.51300  Biso   1.000  H
  H12      1.0000 0.93150  0.22800  0.98700  Biso   1.000  H
  H13      1.0000 0.43150  0.27200  0.48700  Biso   1.000  H
  H14      1.0000 0.56850  0.27200  0.01300  Biso   1.000  H
  H15      1.0000 0.93150  0.77200  0.48700  Biso   1.000  H
  H16      1.0000 0.06850  0.77200  0.01300  Biso   1.000  H
  C9       1.0000 0.53495  0.61030  0.61130  Biso   1.000  C
  C10      1.0000 0.46505  0.61030  0.88870  Biso   1.000  C
  C11      1.0000 0.03495  0.11030  0.61130  Biso   1.000  C
  C12      1.0000 0.96505  0.11030  0.88870  Biso   1.000  C
  C13      1.0000 0.46505  0.38970  0.38870  Biso   1.000  C
  C14      1.0000 0.53495  0.38970  0.11130  Biso   1.000  C
  C15      1.0000 0.96505  0.88970  0.38870  Biso   1.000  C
  C16      1.0000 0.03495  0.88970  0.11130  Biso   1.000  C
  H17      1.0000 0.47790  0.62750  0.60480  Biso   1.000  H
  H18      1.0000 0.52210  0.62750  0.89520  Biso   1.000  H
  H19      1.0000 0.97790  0.12750  0.60480  Biso   1.000  H
  H20      1.0000 0.02210  0.12750  0.89520  Biso   1.000  H
  H21      1.0000 0.52210  0.37250  0.39520  Biso   1.000  H
  H22      1.0000 0.47790  0.37250  0.10480  Biso   1.000  H
  H23      1.0000 0.02210  0.87250  0.39520  Biso   1.000  H
  H24      1.0000 0.97790  0.87250  0.10480  Biso   1.000  H
  C17      1.0000 0.56544  0.52474  0.67630  Biso   1.000  C
  C18      1.0000 0.43456  0.52474  0.82370  Biso   1.000  C
  C19      1.0000 0.06544  0.02474  0.67630  Biso   1.000  C
  C20      1.0000 0.93456  0.02474  0.82370  Biso   1.000  C
  C21      1.0000 0.43456  0.47526  0.32370  Biso   1.000  C
  C22      1.0000 0.56544  0.47526  0.17630  Biso   1.000  C
  C23      1.0000 0.93456  0.97526  0.32370  Biso   1.000  C
  C24      1.0000 0.06544  0.97526  0.17630  Biso   1.000  C
  C25      1.0000 0.64988  0.50080  0.67850  Biso   1.000  C
  C26      1.0000 0.35012  0.50080  0.82150  Biso   1.000  C
  C27      1.0000 0.14988  0.00080  0.67850  Biso   1.000  C
  C28      1.0000 0.85012  0.00080  0.82150  Biso   1.000  C
  C29      1.0000 0.35012  0.49920  0.32150  Biso   1.000  C
  C30      1.0000 0.64988  0.49920  0.17850  Biso   1.000  C
  C31      1.0000 0.85012  0.99920  0.32150  Biso   1.000  C
  C32      1.0000 0.14988  0.99920  0.17850  Biso   1.000  C
  H25      1.0000 0.67220  0.44250  0.71890  Biso   1.000  H
  H26      1.0000 0.32780  0.44250  0.78110  Biso   1.000  H
  H27      1.0000 0.17220  0.94250  0.71890  Biso   1.000  H
  H28      1.0000 0.82780  0.94250  0.78110  Biso   1.000  H
  H29      1.0000 0.32780  0.55750  0.28110  Biso   1.000  H
  H30      1.0000 0.67220  0.55750  0.21890  Biso   1.000  H
  H31      1.0000 0.82780  0.05750  0.28110  Biso   1.000  H
  H32      1.0000 0.17220  0.05750  0.21890  Biso   1.000  H
  C33      1.0000 0.70021  0.56420  0.62020  Biso   1.000  C
  C34      1.0000 0.29979  0.56420  0.87980  Biso   1.000  C
  C35      1.0000 0.20021  0.06420  0.62020  Biso   1.000  C
  C36      1.0000 0.79979  0.06420  0.87980  Biso   1.000  C
  C37      1.0000 0.29979  0.43580  0.37980  Biso   1.000  C
  C38      1.0000 0.70021  0.43580  0.12020  Biso   1.000  C
  C39      1.0000 0.79979  0.93580  0.37980  Biso   1.000  C
  C40      1.0000 0.20021  0.93580  0.12020  Biso   1.000  C
  H33      1.0000 0.75680  0.54720  0.62170  Biso   1.000  H
  H34      1.0000 0.24320  0.54720  0.87830  Biso   1.000  H
  H35      1.0000 0.25680  0.04720  0.62170  Biso   1.000  H
  H36      1.0000 0.74320  0.04720  0.87830  Biso   1.000  H
  H37      1.0000 0.24320  0.45280  0.37830  Biso   1.000  H
  H38      1.0000 0.75680  0.45280  0.12170  Biso   1.000  H
  H39      1.0000 0.74320  0.95280  0.37830  Biso   1.000  H
  H40      1.0000 0.25680  0.95280  0.12170  Biso   1.000  H
  C41      1.0000 0.64453  0.76910  0.20590  Biso   1.000  C
  C42      1.0000 0.35547  0.76910  0.29410  Biso   1.000  C
  C43      1.0000 0.14453  0.26910  0.20590  Biso   1.000  C
  C44      1.0000 0.85547  0.26910  0.29410  Biso   1.000  C
  C45      1.0000 0.35547  0.23090  0.79410  Biso   1.000  C
  C46      1.0000 0.64453  0.23090  0.70590  Biso   1.000  C
  C47      1.0000 0.85547  0.73090  0.79410  Biso   1.000  C
  C48      1.0000 0.14453  0.73090  0.70590  Biso   1.000  C
  C49      1.0000 0.63860  0.79710  0.97620  Biso   1.000  C
  C50      1.0000 0.36140  0.79710  0.52380  Biso   1.000  C
  C51      1.0000 0.13860  0.29710  0.97620  Biso   1.000  C
  C52      1.0000 0.86140  0.29710  0.52380  Biso   1.000  C
  C53      1.0000 0.36140  0.20290  0.02380  Biso   1.000  C
  C54      1.0000 0.63860  0.20290  0.47620  Biso   1.000  C
  C55      1.0000 0.86140  0.70290  0.02380  Biso   1.000  C
  C56      1.0000 0.13860  0.70290  0.47620  Biso   1.000  C
  C57      1.0000 0.60520  0.94020  0.57130  Biso   1.000  C
  C58      1.0000 0.39480  0.94020  0.92870  Biso   1.000  C
  C59      1.0000 0.10520  0.44020  0.57130  Biso   1.000  C
  C60      1.0000 0.89480  0.44020  0.92870  Biso   1.000  C
  C61      1.0000 0.39480  0.05980  0.42870  Biso   1.000  C
  C62      1.0000 0.60520  0.05980  0.07130  Biso   1.000  C
  C63      1.0000 0.89480  0.55980  0.42870  Biso   1.000  C
  C64      1.0000 0.10520  0.55980  0.07130  Biso   1.000  C
  H41      1.0000 0.56080  0.92170  0.62090  Biso   1.000  H
  H42      1.0000 0.43920  0.92170  0.87910  Biso   1.000  H
  H43      1.0000 0.06080  0.42170  0.62090  Biso   1.000  H
  H44      1.0000 0.93920  0.42170  0.87910  Biso   1.000  H
  H45      1.0000 0.43920  0.07830  0.37910  Biso   1.000  H
  H46      1.0000 0.56080  0.07830  0.12090  Biso   1.000  H
  H47      1.0000 0.93920  0.57830  0.37910  Biso   1.000  H
  H48      1.0000 0.06080  0.57830  0.12090  Biso   1.000  H
  H49      1.0000 0.58530  0.93260  0.47350  Biso   1.000  H
  H50      1.0000 0.41470  0.93260  0.02650  Biso   1.000  H
  H51      1.0000 0.08530  0.43260  0.47350  Biso   1.000  H
  H52      1.0000 0.91470  0.43260  0.02650  Biso   1.000  H
  H53      1.0000 0.41470  0.06740  0.52650  Biso   1.000  H
  H54      1.0000 0.58530  0.06740  0.97350  Biso   1.000  H
  H55      1.0000 0.91470  0.56740  0.52650  Biso   1.000  H
  H56      1.0000 0.08530  0.56740  0.97350  Biso   1.000  H
  H57      1.0000 0.62060  0.00750  0.59110  Biso   1.000  H
  H58      1.0000 0.37940  0.00750  0.90890  Biso   1.000  H
  H59      1.0000 0.12060  0.50750  0.59110  Biso   1.000  H
  H60      1.0000 0.87940  0.50750  0.90890  Biso   1.000  H
  H61      1.0000 0.37940  0.99250  0.40890  Biso   1.000  H
  H62      1.0000 0.62060  0.99250  0.09110  Biso   1.000  H
  H63      1.0000 0.87940  0.49250  0.40890  Biso   1.000  H
  H64      1.0000 0.12060  0.49250  0.09110  Biso   1.000  H
