data_image0
_cell_length_a       12.282
_cell_length_b       11.7714
_cell_length_c       17.797
_cell_angle_alpha    90
_cell_angle_beta     101.01
_cell_angle_gamma    90

_symmetry_space_group_name_H-M    "P 1"
_symmetry_int_tables_number       1

loop_
  _symmetry_equiv_pos_as_xyz
  'x, y, z'

loop_
  _atom_site_label
  _atom_site_occupancy
  _atom_site_fract_x
  _atom_site_fract_y
  _atom_site_fract_z
  _atom_site_thermal_displace_type
  _atom_site_B_iso_or_equiv
  _atom_site_type_symbol
  Cu1      1.0000 0.47991  0.48712  0.06996  Biso   1.000  Cu
  Cu2      1.0000 0.02009  0.98712  0.43004  Biso   1.000  Cu
  Cu3      1.0000 0.52009  0.51288  0.93004  Biso   1.000  Cu
  Cu4      1.0000 0.97991  0.01288  0.56996  Biso   1.000  Cu
  Cu5      1.0000 0.48180  0.49118  0.42430  Biso   1.000  Cu
  Cu6      1.0000 0.01820  0.99118  0.07570  Biso   1.000  Cu
  Cu7      1.0000 0.51820  0.50882  0.57570  Biso   1.000  Cu
  Cu8      1.0000 0.98180  0.00882  0.92430  Biso   1.000  Cu
  O1       1.0000 0.63529  0.43600  0.09439  Biso   1.000  O
  O2       1.0000 0.86471  0.93600  0.40561  Biso   1.000  O
  O3       1.0000 0.36471  0.56400  0.90561  Biso   1.000  O
  O4       1.0000 0.13529  0.06400  0.59439  Biso   1.000  O
  O5       1.0000 0.66972  0.45686  0.97717  Biso   1.000  O
  O6       1.0000 0.83028  0.95686  0.52283  Biso   1.000  O
  O7       1.0000 0.33028  0.54314  0.02283  Biso   1.000  O
  O8       1.0000 0.16972  0.04314  0.47717  Biso   1.000  O
  O9       1.0000 0.53240  0.64551  0.08244  Biso   1.000  O
  O10      1.0000 0.96760  0.14551  0.41756  Biso   1.000  O
  O11      1.0000 0.46760  0.35449  0.91756  Biso   1.000  O
  O12      1.0000 0.03240  0.85449  0.58244  Biso   1.000  O
  O13      1.0000 0.56731  0.66641  0.96514  Biso   1.000  O
  O14      1.0000 0.93269  0.16641  0.53486  Biso   1.000  O
  O15      1.0000 0.43269  0.33359  0.03486  Biso   1.000  O
  O16      1.0000 0.06731  0.83359  0.46514  Biso   1.000  O
  O17      1.0000 0.43996  0.48192  0.18068  Biso   1.000  O
  O18      1.0000 0.06004  0.98192  0.31932  Biso   1.000  O
  O19      1.0000 0.56004  0.51808  0.81932  Biso   1.000  O
  O20      1.0000 0.93996  0.01808  0.68068  Biso   1.000  O
  O21      1.0000 0.43344  0.48836  0.30229  Biso   1.000  O
  O22      1.0000 0.06656  0.98836  0.19771  Biso   1.000  O
  O23      1.0000 0.56656  0.51164  0.69771  Biso   1.000  O
  O24      1.0000 0.93344  0.01164  0.80229  Biso   1.000  O
  O25      1.0000 0.45062  0.65907  0.55458  Biso   1.000  O
  O26      1.0000 0.04938  0.15907  0.94542  Biso   1.000  O
  O27      1.0000 0.54938  0.34093  0.44542  Biso   1.000  O
  O28      1.0000 0.95062  0.84093  0.05458  Biso   1.000  O
  O29      1.0000 0.42227  0.64637  0.42770  Biso   1.000  O
  O30      1.0000 0.07773  0.14637  0.07230  Biso   1.000  O
  O31      1.0000 0.57773  0.35363  0.57230  Biso   1.000  O
  O32      1.0000 0.92227  0.85363  0.92770  Biso   1.000  O
  O33      1.0000 0.63196  0.55508  0.43227  Biso   1.000  O
  O34      1.0000 0.86804  0.05508  0.06773  Biso   1.000  O
  O35      1.0000 0.36804  0.44492  0.56773  Biso   1.000  O
  O36      1.0000 0.13196  0.94492  0.93227  Biso   1.000  O
  O37      1.0000 0.66125  0.57123  0.55922  Biso   1.000  O
  O38      1.0000 0.83875  0.07123  0.94078  Biso   1.000  O
  O39      1.0000 0.33875  0.42877  0.44078  Biso   1.000  O
  O40      1.0000 0.16125  0.92877  0.05922  Biso   1.000  O
  C1       1.0000 0.69770  0.43190  0.04678  Biso   1.000  C
  C2       1.0000 0.80230  0.93190  0.45322  Biso   1.000  C
  C3       1.0000 0.30230  0.56810  0.95322  Biso   1.000  C
  C4       1.0000 0.19770  0.06810  0.54678  Biso   1.000  C
  C5       1.0000 0.81620  0.39610  0.07515  Biso   1.000  C
  C6       1.0000 0.68380  0.89610  0.42485  Biso   1.000  C
  C7       1.0000 0.18380  0.60390  0.92485  Biso   1.000  C
  C8       1.0000 0.31620  0.10390  0.57515  Biso   1.000  C
  H1       1.0000 0.86390  0.46110  0.07740  Biso   1.000  H
  H2       1.0000 0.63610  0.96110  0.42260  Biso   1.000  H
  H3       1.0000 0.13610  0.53890  0.92260  Biso   1.000  H
  H4       1.0000 0.36390  0.03890  0.57740  Biso   1.000  H
  H5       1.0000 0.83700  0.34080  0.04080  Biso   1.000  H
  H6       1.0000 0.66300  0.84080  0.45920  Biso   1.000  H
  H7       1.0000 0.16300  0.65920  0.95920  Biso   1.000  H
  H8       1.0000 0.33700  0.15920  0.54080  Biso   1.000  H
  H9       1.0000 0.82330  0.36350  0.12530  Biso   1.000  H
  H10      1.0000 0.67670  0.86350  0.37470  Biso   1.000  H
  H11      1.0000 0.17670  0.63650  0.87470  Biso   1.000  H
  H12      1.0000 0.32330  0.13650  0.62530  Biso   1.000  H
  C9       1.0000 0.56660  0.70060  0.03110  Biso   1.000  C
  C10      1.0000 0.93340  0.20060  0.46890  Biso   1.000  C
  C11      1.0000 0.43340  0.29940  0.96890  Biso   1.000  C
  C12      1.0000 0.06660  0.79940  0.53110  Biso   1.000  C
  C13      1.0000 0.61150  0.81840  0.05180  Biso   1.000  C
  C14      1.0000 0.88850  0.31840  0.44820  Biso   1.000  C
  C15      1.0000 0.38850  0.18160  0.94820  Biso   1.000  C
  C16      1.0000 0.11150  0.68160  0.55180  Biso   1.000  C
  H13      1.0000 0.59310  0.84100  0.09970  Biso   1.000  H
  H14      1.0000 0.90690  0.34100  0.40030  Biso   1.000  H
  H15      1.0000 0.40690  0.15900  0.90030  Biso   1.000  H
  H16      1.0000 0.09310  0.65900  0.59970  Biso   1.000  H
  H17      1.0000 0.57940  0.87100  0.01260  Biso   1.000  H
  H18      1.0000 0.92060  0.37100  0.48740  Biso   1.000  H
  H19      1.0000 0.42060  0.12900  0.98740  Biso   1.000  H
  H20      1.0000 0.07940  0.62900  0.51260  Biso   1.000  H
  H21      1.0000 0.69070  0.81800  0.05640  Biso   1.000  H
  H22      1.0000 0.80930  0.31800  0.44360  Biso   1.000  H
  H23      1.0000 0.30930  0.18200  0.94360  Biso   1.000  H
  H24      1.0000 0.19070  0.68200  0.55640  Biso   1.000  H
  C17      1.0000 0.47660  0.45350  0.24755  Biso   1.000  C
  C18      1.0000 0.02340  0.95350  0.25245  Biso   1.000  C
  C19      1.0000 0.52340  0.54650  0.75245  Biso   1.000  C
  C20      1.0000 0.97660  0.04650  0.74755  Biso   1.000  C
  C21      1.0000 0.57240  0.37210  0.26436  Biso   1.000  C
  C22      1.0000 0.92760  0.87210  0.23564  Biso   1.000  C
  C23      1.0000 0.42760  0.62790  0.73564  Biso   1.000  C
  C24      1.0000 0.07240  0.12790  0.76436  Biso   1.000  C
  H25      1.0000 0.54570  0.29830  0.27490  Biso   1.000  H
  H26      1.0000 0.95430  0.79830  0.22510  Biso   1.000  H
  H27      1.0000 0.45430  0.70170  0.72510  Biso   1.000  H
  H28      1.0000 0.04570  0.20170  0.77490  Biso   1.000  H
  H29      1.0000 0.62470  0.39840  0.30810  Biso   1.000  H
  H30      1.0000 0.87530  0.89840  0.19190  Biso   1.000  H
  H31      1.0000 0.37530  0.60160  0.69190  Biso   1.000  H
  H32      1.0000 0.12470  0.10160  0.80810  Biso   1.000  H
  H33      1.0000 0.60790  0.36770  0.22090  Biso   1.000  H
  H34      1.0000 0.89210  0.86770  0.27910  Biso   1.000  H
  H35      1.0000 0.39210  0.63230  0.77910  Biso   1.000  H
  H36      1.0000 0.10790  0.13230  0.72090  Biso   1.000  H
  C25      1.0000 0.41710  0.69740  0.48841  Biso   1.000  C
  C26      1.0000 0.08290  0.19740  0.01159  Biso   1.000  C
  C27      1.0000 0.58290  0.30260  0.51159  Biso   1.000  C
  C28      1.0000 0.91710  0.80260  0.98841  Biso   1.000  C
  C29      1.0000 0.36780  0.81520  0.48211  Biso   1.000  C
  C30      1.0000 0.13220  0.31520  0.01789  Biso   1.000  C
  C31      1.0000 0.63220  0.18480  0.51789  Biso   1.000  C
  C32      1.0000 0.86780  0.68480  0.98211  Biso   1.000  C
  H37      1.0000 0.40440  0.86100  0.44980  Biso   1.000  H
  H38      1.0000 0.09560  0.36100  0.05020  Biso   1.000  H
  H39      1.0000 0.59560  0.13900  0.55020  Biso   1.000  H
  H40      1.0000 0.90440  0.63900  0.94980  Biso   1.000  H
  H41      1.0000 0.37760  0.84890  0.53210  Biso   1.000  H
  H42      1.0000 0.12240  0.34890  0.96790  Biso   1.000  H
  H43      1.0000 0.62240  0.15110  0.46790  Biso   1.000  H
  H44      1.0000 0.87760  0.65110  0.03210  Biso   1.000  H
  H45      1.0000 0.29010  0.81070  0.46040  Biso   1.000  H
  H46      1.0000 0.20990  0.31070  0.03960  Biso   1.000  H
  H47      1.0000 0.70990  0.18930  0.53960  Biso   1.000  H
  H48      1.0000 0.79010  0.68930  0.96040  Biso   1.000  H
  C33      1.0000 0.69120  0.57880  0.49620  Biso   1.000  C
  C34      1.0000 0.80880  0.07880  0.00380  Biso   1.000  C
  C35      1.0000 0.30880  0.42120  0.50380  Biso   1.000  C
  C36      1.0000 0.19120  0.92120  0.99620  Biso   1.000  C
  C37      1.0000 0.80770  0.61920  0.49700  Biso   1.000  C
  C38      1.0000 0.69230  0.11920  0.00300  Biso   1.000  C
  C39      1.0000 0.19230  0.38080  0.50300  Biso   1.000  C
  C40      1.0000 0.30770  0.88080  0.99700  Biso   1.000  C
  H49      1.0000 0.81780  0.69280  0.52050  Biso   1.000  H
  H50      1.0000 0.68220  0.19280  0.97950  Biso   1.000  H
  H51      1.0000 0.18220  0.30720  0.47950  Biso   1.000  H
  H52      1.0000 0.31780  0.80720  0.02050  Biso   1.000  H
  H53      1.0000 0.82000  0.62400  0.44540  Biso   1.000  H
  H54      1.0000 0.68000  0.12400  0.05460  Biso   1.000  H
  H55      1.0000 0.18000  0.37600  0.55460  Biso   1.000  H
  H56      1.0000 0.32000  0.87600  0.94540  Biso   1.000  H
  H57      1.0000 0.85950  0.56670  0.52550  Biso   1.000  H
  H58      1.0000 0.64050  0.06670  0.97450  Biso   1.000  H
  H59      1.0000 0.14050  0.43330  0.47450  Biso   1.000  H
  H60      1.0000 0.35950  0.93330  0.02550  Biso   1.000  H
  C41      1.0000 0.32990  0.72760  0.19190  Biso   1.000  C
  C42      1.0000 0.17010  0.22760  0.30810  Biso   1.000  C
  C43      1.0000 0.67010  0.27240  0.80810  Biso   1.000  C
  C44      1.0000 0.82990  0.77240  0.69190  Biso   1.000  C
  H61      1.0000 0.27930  0.78790  0.17110  Biso   1.000  H
  H62      1.0000 0.22070  0.28790  0.32890  Biso   1.000  H
  H63      1.0000 0.72070  0.21210  0.82890  Biso   1.000  H
  H64      1.0000 0.77930  0.71210  0.67110  Biso   1.000  H
  H65      1.0000 0.35270  0.68870  0.14940  Biso   1.000  H
  H66      1.0000 0.14730  0.18870  0.35060  Biso   1.000  H
  H67      1.0000 0.64730  0.31130  0.85060  Biso   1.000  H
  H68      1.0000 0.85270  0.81130  0.64940  Biso   1.000  H
  C45      1.0000 0.43000  0.77860  0.24190  Biso   1.000  C
  C46      1.0000 0.07000  0.27860  0.25810  Biso   1.000  C
  C47      1.0000 0.57000  0.22140  0.75810  Biso   1.000  C
  C48      1.0000 0.93000  0.72140  0.74190  Biso   1.000  C
  H69      1.0000 0.40740  0.82110  0.28230  Biso   1.000  H
  H70      1.0000 0.09260  0.32110  0.21770  Biso   1.000  H
  H71      1.0000 0.59260  0.17890  0.71770  Biso   1.000  H
  H72      1.0000 0.90740  0.67890  0.78230  Biso   1.000  H
  H73      1.0000 0.46670  0.82820  0.21190  Biso   1.000  H
  H74      1.0000 0.03330  0.32820  0.28810  Biso   1.000  H
  H75      1.0000 0.53330  0.17180  0.78810  Biso   1.000  H
  H76      1.0000 0.96670  0.67180  0.71190  Biso   1.000  H
  H77      1.0000 0.47980  0.71920  0.26340  Biso   1.000  H
  H78      1.0000 0.02020  0.21920  0.23660  Biso   1.000  H
  H79      1.0000 0.52020  0.28080  0.73660  Biso   1.000  H
  H80      1.0000 0.97980  0.78080  0.76340  Biso   1.000  H
  C49      1.0000 0.19710  0.56650  0.17980  Biso   1.000  C
  C50      1.0000 0.30290  0.06650  0.32020  Biso   1.000  C
  C51      1.0000 0.80290  0.43350  0.82020  Biso   1.000  C
  C52      1.0000 0.69710  0.93350  0.67980  Biso   1.000  C
  H81      1.0000 0.24090  0.53050  0.14650  Biso   1.000  H
  H82      1.0000 0.25910  0.03050  0.35350  Biso   1.000  H
  H83      1.0000 0.75910  0.46950  0.85350  Biso   1.000  H
  H84      1.0000 0.74090  0.96950  0.64650  Biso   1.000  H
  H85      1.0000 0.17100  0.50730  0.20990  Biso   1.000  H
  H86      1.0000 0.32900  0.00730  0.29010  Biso   1.000  H
  H87      1.0000 0.82900  0.49270  0.79010  Biso   1.000  H
  H88      1.0000 0.67100  0.99270  0.70990  Biso   1.000  H
  C53      1.0000 0.10060  0.62150  0.13210  Biso   1.000  C
  C54      1.0000 0.39940  0.12150  0.36790  Biso   1.000  C
  C55      1.0000 0.89940  0.37850  0.86790  Biso   1.000  C
  C56      1.0000 0.60060  0.87850  0.63210  Biso   1.000  C
  H89      1.0000 0.05330  0.65200  0.16430  Biso   1.000  H
  H90      1.0000 0.44670  0.15200  0.33570  Biso   1.000  H
  H91      1.0000 0.94670  0.34800  0.83570  Biso   1.000  H
  H92      1.0000 0.55330  0.84800  0.66430  Biso   1.000  H
  H93      1.0000 0.06010  0.56660  0.09780  Biso   1.000  H
  H94      1.0000 0.43990  0.06660  0.40220  Biso   1.000  H
  H95      1.0000 0.93990  0.43340  0.90220  Biso   1.000  H
  H96      1.0000 0.56010  0.93340  0.59780  Biso   1.000  H
  H97      1.0000 0.12530  0.68170  0.10300  Biso   1.000  H
  H98      1.0000 0.37470  0.18170  0.39700  Biso   1.000  H
  H99      1.0000 0.87470  0.31830  0.89700  Biso   1.000  H
  H100     1.0000 0.62530  0.81830  0.60300  Biso   1.000  H
  C57      1.0000 0.21240  0.70660  0.28783  Biso   1.000  C
  C58      1.0000 0.28760  0.20660  0.21217  Biso   1.000  C
  C59      1.0000 0.78760  0.29340  0.71217  Biso   1.000  C
  C60      1.0000 0.71240  0.79340  0.78783  Biso   1.000  C
  H101     1.0000 0.26610  0.75120  0.32280  Biso   1.000  H
  H102     1.0000 0.23390  0.25120  0.17720  Biso   1.000  H
  H103     1.0000 0.73390  0.24880  0.67720  Biso   1.000  H
  H104     1.0000 0.76610  0.74880  0.82280  Biso   1.000  H
  H105     1.0000 0.15900  0.75880  0.25910  Biso   1.000  H
  H106     1.0000 0.34100  0.25880  0.24090  Biso   1.000  H
  H107     1.0000 0.84100  0.24120  0.74090  Biso   1.000  H
  H108     1.0000 0.65900  0.74120  0.75910  Biso   1.000  H
  C61      1.0000 0.15340  0.62980  0.33340  Biso   1.000  C
  C62      1.0000 0.34660  0.12980  0.16660  Biso   1.000  C
  C63      1.0000 0.84660  0.37020  0.66660  Biso   1.000  C
  C64      1.0000 0.65340  0.87020  0.83340  Biso   1.000  C
  H109     1.0000 0.09620  0.58930  0.29960  Biso   1.000  H
  H110     1.0000 0.40380  0.08930  0.20040  Biso   1.000  H
  H111     1.0000 0.90380  0.41070  0.70040  Biso   1.000  H
  H112     1.0000 0.59620  0.91070  0.79960  Biso   1.000  H
  H113     1.0000 0.12080  0.67400  0.36870  Biso   1.000  H
  H114     1.0000 0.37920  0.17400  0.13130  Biso   1.000  H
  H115     1.0000 0.87920  0.32600  0.63130  Biso   1.000  H
  H116     1.0000 0.62080  0.82600  0.86870  Biso   1.000  H
  H117     1.0000 0.20510  0.57660  0.36120  Biso   1.000  H
  H118     1.0000 0.29490  0.07660  0.13880  Biso   1.000  H
  H119     1.0000 0.79490  0.42340  0.63880  Biso   1.000  H
  H120     1.0000 0.70510  0.92340  0.86120  Biso   1.000  H
  N1       1.0000 0.27110  0.64640  0.23332  Biso   1.000  N
  N2       1.0000 0.22890  0.14640  0.26668  Biso   1.000  N
  N3       1.0000 0.72890  0.35360  0.76668  Biso   1.000  N
  N4       1.0000 0.77110  0.85360  0.73332  Biso   1.000  N
  H121     1.0000 0.32410  0.60260  0.26230  Biso   1.000  H
  H122     1.0000 0.17590  0.10260  0.23770  Biso   1.000  H
  H123     1.0000 0.67590  0.39740  0.73770  Biso   1.000  H
  H124     1.0000 0.82410  0.89740  0.76230  Biso   1.000  H
  C65      1.0000 0.71360  0.64950  0.26050  Biso   1.000  C
  C66      1.0000 0.78640  0.14950  0.23950  Biso   1.000  C
  C67      1.0000 0.28640  0.35050  0.73950  Biso   1.000  C
  C68      1.0000 0.21360  0.85050  0.76050  Biso   1.000  C
  H125     1.0000 0.66170  0.63140  0.21450  Biso   1.000  H
  H126     1.0000 0.83830  0.13140  0.28550  Biso   1.000  H
  H127     1.0000 0.33830  0.36860  0.78550  Biso   1.000  H
  H128     1.0000 0.16170  0.86860  0.71450  Biso   1.000  H
  H129     1.0000 0.73580  0.72750  0.25880  Biso   1.000  H
  H130     1.0000 0.76420  0.22750  0.24120  Biso   1.000  H
  H131     1.0000 0.26420  0.27250  0.74120  Biso   1.000  H
  H132     1.0000 0.23580  0.77250  0.75880  Biso   1.000  H
  H133     1.0000 0.67920  0.63790  0.30400  Biso   1.000  H
  H134     1.0000 0.82080  0.13790  0.19600  Biso   1.000  H
  H135     1.0000 0.32080  0.36210  0.69600  Biso   1.000  H
  H136     1.0000 0.17920  0.86210  0.80400  Biso   1.000  H
  C69      1.0000 0.80860  0.57800  0.26660  Biso   1.000  C
  C70      1.0000 0.69140  0.07800  0.23340  Biso   1.000  C
  C71      1.0000 0.19140  0.42200  0.73340  Biso   1.000  C
  C72      1.0000 0.30860  0.92200  0.76660  Biso   1.000  C
  N5       1.0000 0.88190  0.51930  0.27180  Biso   1.000  N
  N6       1.0000 0.61810  0.01930  0.22820  Biso   1.000  N
  N7       1.0000 0.11810  0.48070  0.72820  Biso   1.000  N
  N8       1.0000 0.38190  0.98070  0.77180  Biso   1.000  N
