data_image0
_cell_length_a       12.1705
_cell_length_b       11.5257
_cell_length_c       17.7529
_cell_angle_alpha    90
_cell_angle_beta     101.631
_cell_angle_gamma    90

_symmetry_space_group_name_H-M    "P 1"
_symmetry_int_tables_number       1

loop_
  _symmetry_equiv_pos_as_xyz
  'x, y, z'

loop_
  _atom_site_label
  _atom_site_occupancy
  _atom_site_fract_x
  _atom_site_fract_y
  _atom_site_fract_z
  _atom_site_thermal_displace_type
  _atom_site_B_iso_or_equiv
  _atom_site_type_symbol
  Cu1      1.0000 0.51891  0.01400  0.93009  Biso   1.000  Cu
  Cu2      1.0000 0.98109  0.51400  0.56991  Biso   1.000  Cu
  Cu3      1.0000 0.48109  0.98600  0.06991  Biso   1.000  Cu
  Cu4      1.0000 0.01891  0.48600  0.43009  Biso   1.000  Cu
  Cu5      1.0000 0.51618  0.00932  0.57545  Biso   1.000  Cu
  Cu6      1.0000 0.98382  0.50932  0.92455  Biso   1.000  Cu
  Cu7      1.0000 0.48382  0.99068  0.42455  Biso   1.000  Cu
  Cu8      1.0000 0.01618  0.49068  0.07545  Biso   1.000  Cu
  O1       1.0000 0.56689  0.17094  0.96603  Biso   1.000  O
  O2       1.0000 0.93311  0.67094  0.53397  Biso   1.000  O
  O3       1.0000 0.43311  0.82906  0.03397  Biso   1.000  O
  O4       1.0000 0.06689  0.32906  0.46603  Biso   1.000  O
  O5       1.0000 0.53413  0.14796  0.08484  Biso   1.000  O
  O6       1.0000 0.96587  0.64796  0.41516  Biso   1.000  O
  O7       1.0000 0.46587  0.85204  0.91516  Biso   1.000  O
  O8       1.0000 0.03413  0.35204  0.58484  Biso   1.000  O
  O9       1.0000 0.36124  0.06567  0.90424  Biso   1.000  O
  O10      1.0000 0.13876  0.56567  0.59576  Biso   1.000  O
  O11      1.0000 0.63876  0.93433  0.09576  Biso   1.000  O
  O12      1.0000 0.86124  0.43433  0.40424  Biso   1.000  O
  O13      1.0000 0.32911  0.04372  0.02302  Biso   1.000  O
  O14      1.0000 0.17089  0.54372  0.47698  Biso   1.000  O
  O15      1.0000 0.67089  0.95628  0.97698  Biso   1.000  O
  O16      1.0000 0.82911  0.45628  0.52302  Biso   1.000  O
  O17      1.0000 0.56038  0.02086  0.82022  Biso   1.000  O
  O18      1.0000 0.93962  0.52086  0.67978  Biso   1.000  O
  O19      1.0000 0.43962  0.97914  0.17978  Biso   1.000  O
  O20      1.0000 0.06038  0.47914  0.32022  Biso   1.000  O
  O21      1.0000 0.56543  0.01484  0.69723  Biso   1.000  O
  O22      1.0000 0.93457  0.51484  0.80277  Biso   1.000  O
  O23      1.0000 0.43457  0.98516  0.30277  Biso   1.000  O
  O24      1.0000 0.06543  0.48516  0.19723  Biso   1.000  O
  O25      1.0000 0.36518  0.94160  0.56762  Biso   1.000  O
  O26      1.0000 0.13482  0.44160  0.93238  Biso   1.000  O
  O27      1.0000 0.63482  0.05840  0.43238  Biso   1.000  O
  O28      1.0000 0.86518  0.55840  0.06762  Biso   1.000  O
  O29      1.0000 0.33916  0.92482  0.43945  Biso   1.000  O
  O30      1.0000 0.16084  0.42482  0.06055  Biso   1.000  O
  O31      1.0000 0.66084  0.07518  0.56055  Biso   1.000  O
  O32      1.0000 0.83916  0.57518  0.93945  Biso   1.000  O
  O33      1.0000 0.57924  0.85131  0.57512  Biso   1.000  O
  O34      1.0000 0.92076  0.35131  0.92488  Biso   1.000  O
  O35      1.0000 0.42076  0.14869  0.42488  Biso   1.000  O
  O36      1.0000 0.07924  0.64869  0.07512  Biso   1.000  O
  O37      1.0000 0.55641  0.83909  0.44690  Biso   1.000  O
  O38      1.0000 0.94359  0.33909  0.05310  Biso   1.000  O
  O39      1.0000 0.44359  0.16091  0.55310  Biso   1.000  O
  O40      1.0000 0.05641  0.66091  0.94690  Biso   1.000  O
  C1       1.0000 0.56821  0.20575  0.03343  Biso   1.000  C
  C2       1.0000 0.93179  0.70575  0.46657  Biso   1.000  C
  C3       1.0000 0.43179  0.79425  0.96657  Biso   1.000  C
  C4       1.0000 0.06821  0.29425  0.53343  Biso   1.000  C
  C5       1.0000 0.61560  0.32461  0.05492  Biso   1.000  C
  C6       1.0000 0.88440  0.82461  0.44508  Biso   1.000  C
  C7       1.0000 0.38440  0.67539  0.94508  Biso   1.000  C
  C8       1.0000 0.11560  0.17539  0.55492  Biso   1.000  C
  H1       1.0000 0.58570  0.35430  0.09850  Biso   1.000  H
  H2       1.0000 0.91430  0.85430  0.40150  Biso   1.000  H
  H3       1.0000 0.41430  0.64570  0.90150  Biso   1.000  H
  H4       1.0000 0.08570  0.14570  0.59850  Biso   1.000  H
  H5       1.0000 0.59440  0.37700  0.01090  Biso   1.000  H
  H6       1.0000 0.90560  0.87700  0.48910  Biso   1.000  H
  H7       1.0000 0.40560  0.62300  0.98910  Biso   1.000  H
  H8       1.0000 0.09440  0.12300  0.51090  Biso   1.000  H
  H9       1.0000 0.69760  0.31990  0.06930  Biso   1.000  H
  H10      1.0000 0.80240  0.81990  0.43070  Biso   1.000  H
  H11      1.0000 0.30240  0.68010  0.93070  Biso   1.000  H
  H12      1.0000 0.19760  0.18010  0.56930  Biso   1.000  H
  C9       1.0000 0.29923  0.06929  0.95286  Biso   1.000  C
  C10      1.0000 0.20077  0.56929  0.54714  Biso   1.000  C
  C11      1.0000 0.70077  0.93071  0.04714  Biso   1.000  C
  C12      1.0000 0.79923  0.43071  0.45286  Biso   1.000  C
  C13      1.0000 0.17952  0.10693  0.92411  Biso   1.000  C
  C14      1.0000 0.32048  0.60693  0.57589  Biso   1.000  C
  C15      1.0000 0.82048  0.89307  0.07589  Biso   1.000  C
  C16      1.0000 0.67952  0.39307  0.42411  Biso   1.000  C
  H13      1.0000 0.13770  0.09940  0.96560  Biso   1.000  H
  H14      1.0000 0.36230  0.59940  0.53440  Biso   1.000  H
  H15      1.0000 0.86230  0.90060  0.03440  Biso   1.000  H
  H16      1.0000 0.63770  0.40060  0.46560  Biso   1.000  H
  H17      1.0000 0.14490  0.05780  0.88070  Biso   1.000  H
  H18      1.0000 0.35510  0.55780  0.61930  Biso   1.000  H
  H19      1.0000 0.85510  0.94220  0.11930  Biso   1.000  H
  H20      1.0000 0.64490  0.44220  0.38070  Biso   1.000  H
  H21      1.0000 0.17820  0.18800  0.90730  Biso   1.000  H
  H22      1.0000 0.32180  0.68800  0.59270  Biso   1.000  H
  H23      1.0000 0.82180  0.81200  0.09270  Biso   1.000  H
  H24      1.0000 0.67820  0.31200  0.40730  Biso   1.000  H
  C17      1.0000 0.52194  0.04997  0.75230  Biso   1.000  C
  C18      1.0000 0.97806  0.54997  0.74770  Biso   1.000  C
  C19      1.0000 0.47806  0.95003  0.24770  Biso   1.000  C
  C20      1.0000 0.02194  0.45003  0.25230  Biso   1.000  C
  C21      1.0000 0.42213  0.13096  0.73501  Biso   1.000  C
  C22      1.0000 0.07787  0.63096  0.76499  Biso   1.000  C
  C23      1.0000 0.57787  0.86904  0.26499  Biso   1.000  C
  C24      1.0000 0.92213  0.36904  0.23501  Biso   1.000  C
  H25      1.0000 0.37590  0.12050  0.77370  Biso   1.000  H
  H26      1.0000 0.12410  0.62050  0.72630  Biso   1.000  H
  H27      1.0000 0.62410  0.87950  0.22630  Biso   1.000  H
  H28      1.0000 0.87590  0.37950  0.27370  Biso   1.000  H
  H29      1.0000 0.37740  0.11340  0.68390  Biso   1.000  H
  H30      1.0000 0.12260  0.61340  0.81610  Biso   1.000  H
  H31      1.0000 0.62260  0.88660  0.31610  Biso   1.000  H
  H32      1.0000 0.87740  0.38660  0.18390  Biso   1.000  H
  H33      1.0000 0.44850  0.21140  0.73620  Biso   1.000  H
  H34      1.0000 0.05150  0.71140  0.76380  Biso   1.000  H
  H35      1.0000 0.55150  0.78860  0.26380  Biso   1.000  H
  H36      1.0000 0.94850  0.28860  0.23620  Biso   1.000  H
  C25      1.0000 0.30646  0.91702  0.50207  Biso   1.000  C
  C26      1.0000 0.19354  0.41702  0.99793  Biso   1.000  C
  C27      1.0000 0.69354  0.08298  0.49793  Biso   1.000  C
  C28      1.0000 0.80646  0.58298  0.00207  Biso   1.000  C
  C29      1.0000 0.18876  0.87388  0.49866  Biso   1.000  C
  C30      1.0000 0.31124  0.37388  0.00134  Biso   1.000  C
  C31      1.0000 0.81124  0.12612  0.50134  Biso   1.000  C
  C32      1.0000 0.68876  0.62612  0.99866  Biso   1.000  C
  H37      1.0000 0.13560  0.92500  0.46550  Biso   1.000  H
  H38      1.0000 0.36440  0.42500  0.03450  Biso   1.000  H
  H39      1.0000 0.86440  0.07500  0.53450  Biso   1.000  H
  H40      1.0000 0.63560  0.57500  0.96550  Biso   1.000  H
  H41      1.0000 0.17260  0.87360  0.55050  Biso   1.000  H
  H42      1.0000 0.32740  0.37360  0.94950  Biso   1.000  H
  H43      1.0000 0.82740  0.12640  0.44950  Biso   1.000  H
  H44      1.0000 0.67260  0.62640  0.05050  Biso   1.000  H
  H45      1.0000 0.18160  0.79490  0.47770  Biso   1.000  H
  H46      1.0000 0.31840  0.29490  0.02230  Biso   1.000  H
  H47      1.0000 0.81840  0.20510  0.52230  Biso   1.000  H
  H48      1.0000 0.68160  0.70510  0.97770  Biso   1.000  H
  C33      1.0000 0.58794  0.79981  0.51407  Biso   1.000  C
  C34      1.0000 0.91206  0.29981  0.98593  Biso   1.000  C
  C35      1.0000 0.41206  0.20019  0.48593  Biso   1.000  C
  C36      1.0000 0.08794  0.70019  0.01407  Biso   1.000  C
  C37      1.0000 0.64109  0.68089  0.52171  Biso   1.000  C
  C38      1.0000 0.85891  0.18089  0.97829  Biso   1.000  C
  C39      1.0000 0.35891  0.31911  0.47829  Biso   1.000  C
  C40      1.0000 0.14109  0.81911  0.02171  Biso   1.000  C
  H49      1.0000 0.63460  0.64630  0.47060  Biso   1.000  H
  H50      1.0000 0.86540  0.14630  0.02940  Biso   1.000  H
  H51      1.0000 0.36540  0.35370  0.52940  Biso   1.000  H
  H52      1.0000 0.13460  0.85370  0.97060  Biso   1.000  H
  H53      1.0000 0.60270  0.63150  0.55320  Biso   1.000  H
  H54      1.0000 0.89730  0.13150  0.94680  Biso   1.000  H
  H55      1.0000 0.39730  0.36850  0.44680  Biso   1.000  H
  H56      1.0000 0.10270  0.86850  0.05320  Biso   1.000  H
  H57      1.0000 0.72050  0.68770  0.54630  Biso   1.000  H
  H58      1.0000 0.77950  0.18770  0.95370  Biso   1.000  H
  H59      1.0000 0.27950  0.31230  0.45370  Biso   1.000  H
  H60      1.0000 0.22050  0.81230  0.04630  Biso   1.000  H
  N1       1.0000 0.27163  0.14539  0.23418  Biso   1.000  N
  N2       1.0000 0.22837  0.64539  0.26582  Biso   1.000  N
  N3       1.0000 0.72837  0.85461  0.76582  Biso   1.000  N
  N4       1.0000 0.77163  0.35461  0.73418  Biso   1.000  N
  H61      1.0000 0.32610  0.09950  0.26450  Biso   1.000  H
  H62      1.0000 0.17390  0.59950  0.23550  Biso   1.000  H
  H63      1.0000 0.67390  0.90050  0.73550  Biso   1.000  H
  H64      1.0000 0.82610  0.40050  0.76450  Biso   1.000  H
  C41      1.0000 0.21084  0.20819  0.28729  Biso   1.000  C
  C42      1.0000 0.28916  0.70819  0.21271  Biso   1.000  C
  C43      1.0000 0.78916  0.79181  0.71271  Biso   1.000  C
  C44      1.0000 0.71084  0.29181  0.78729  Biso   1.000  C
  H65      1.0000 0.15500  0.26100  0.25660  Biso   1.000  H
  H66      1.0000 0.34500  0.76100  0.24340  Biso   1.000  H
  H67      1.0000 0.84500  0.73900  0.74340  Biso   1.000  H
  H68      1.0000 0.65500  0.23900  0.75660  Biso   1.000  H
  H69      1.0000 0.26530  0.25630  0.32300  Biso   1.000  H
  H70      1.0000 0.23470  0.75630  0.17700  Biso   1.000  H
  H71      1.0000 0.73470  0.74370  0.67700  Biso   1.000  H
  H72      1.0000 0.76530  0.24370  0.82300  Biso   1.000  H
  C45      1.0000 0.15112  0.12790  0.33395  Biso   1.000  C
  C46      1.0000 0.34888  0.62790  0.16605  Biso   1.000  C
  C47      1.0000 0.84888  0.87210  0.66605  Biso   1.000  C
  C48      1.0000 0.65112  0.37210  0.83395  Biso   1.000  C
  H73      1.0000 0.12230  0.17320  0.37250  Biso   1.000  H
  H74      1.0000 0.37770  0.67320  0.12750  Biso   1.000  H
  H75      1.0000 0.87770  0.82680  0.62750  Biso   1.000  H
  H76      1.0000 0.62230  0.32680  0.87250  Biso   1.000  H
  H77      1.0000 0.20400  0.06940  0.35980  Biso   1.000  H
  H78      1.0000 0.29600  0.56940  0.14020  Biso   1.000  H
  H79      1.0000 0.79600  0.93060  0.64020  Biso   1.000  H
  H80      1.0000 0.70400  0.43060  0.85980  Biso   1.000  H
  H81      1.0000 0.08860  0.08940  0.29960  Biso   1.000  H
  H82      1.0000 0.41140  0.58940  0.20040  Biso   1.000  H
  H83      1.0000 0.91140  0.91060  0.70040  Biso   1.000  H
  H84      1.0000 0.58860  0.41060  0.79960  Biso   1.000  H
  C49      1.0000 0.19597  0.06521  0.17927  Biso   1.000  C
  C50      1.0000 0.30403  0.56521  0.32073  Biso   1.000  C
  C51      1.0000 0.80403  0.93479  0.82073  Biso   1.000  C
  C52      1.0000 0.69597  0.43479  0.67927  Biso   1.000  C
  H85      1.0000 0.24020  0.02910  0.14440  Biso   1.000  H
  H86      1.0000 0.25980  0.52910  0.35560  Biso   1.000  H
  H87      1.0000 0.75980  0.97090  0.85560  Biso   1.000  H
  H88      1.0000 0.74020  0.47090  0.64440  Biso   1.000  H
  H89      1.0000 0.16970  0.00230  0.20930  Biso   1.000  H
  H90      1.0000 0.33030  0.50230  0.29070  Biso   1.000  H
  H91      1.0000 0.83030  0.99770  0.79070  Biso   1.000  H
  H92      1.0000 0.66970  0.49770  0.70930  Biso   1.000  H
  C53      1.0000 0.09554  0.12440  0.13153  Biso   1.000  C
  C54      1.0000 0.40446  0.62440  0.36847  Biso   1.000  C
  C55      1.0000 0.90446  0.87560  0.86847  Biso   1.000  C
  C56      1.0000 0.59554  0.37560  0.63153  Biso   1.000  C
  H93      1.0000 0.05490  0.06950  0.09380  Biso   1.000  H
  H94      1.0000 0.44510  0.56950  0.40620  Biso   1.000  H
  H95      1.0000 0.94510  0.93050  0.90620  Biso   1.000  H
  H96      1.0000 0.55490  0.43050  0.59380  Biso   1.000  H
  H97      1.0000 0.12030  0.19070  0.10470  Biso   1.000  H
  H98      1.0000 0.37970  0.69070  0.39530  Biso   1.000  H
  H99      1.0000 0.87970  0.80930  0.89530  Biso   1.000  H
  H100     1.0000 0.62030  0.30930  0.60470  Biso   1.000  H
  H101     1.0000 0.04590  0.15160  0.16500  Biso   1.000  H
  H102     1.0000 0.45410  0.65160  0.33500  Biso   1.000  H
  H103     1.0000 0.95410  0.84840  0.83500  Biso   1.000  H
  H104     1.0000 0.54590  0.34840  0.66500  Biso   1.000  H
  C57      1.0000 0.33154  0.22986  0.19235  Biso   1.000  C
  C58      1.0000 0.16846  0.72986  0.30765  Biso   1.000  C
  C59      1.0000 0.66846  0.77014  0.80765  Biso   1.000  C
  C60      1.0000 0.83154  0.27014  0.69235  Biso   1.000  C
  H105     1.0000 0.27960  0.29340  0.17140  Biso   1.000  H
  H106     1.0000 0.22040  0.79340  0.32860  Biso   1.000  H
  H107     1.0000 0.72040  0.70660  0.82860  Biso   1.000  H
  H108     1.0000 0.77960  0.20660  0.67140  Biso   1.000  H
  H109     1.0000 0.35430  0.19000  0.14850  Biso   1.000  H
  H110     1.0000 0.14570  0.69000  0.35150  Biso   1.000  H
  H111     1.0000 0.64570  0.81000  0.85150  Biso   1.000  H
  H112     1.0000 0.85430  0.31000  0.64850  Biso   1.000  H
  C61      1.0000 0.43380  0.28045  0.24379  Biso   1.000  C
  C62      1.0000 0.06620  0.78045  0.25621  Biso   1.000  C
  C63      1.0000 0.56620  0.71955  0.75621  Biso   1.000  C
  C64      1.0000 0.93380  0.21955  0.74379  Biso   1.000  C
  H113     1.0000 0.47360  0.33030  0.21340  Biso   1.000  H
  H114     1.0000 0.02640  0.83030  0.28660  Biso   1.000  H
  H115     1.0000 0.52640  0.66970  0.78660  Biso   1.000  H
  H116     1.0000 0.97360  0.16970  0.71340  Biso   1.000  H
  H117     1.0000 0.48350  0.21760  0.26700  Biso   1.000  H
  H118     1.0000 0.01650  0.71760  0.23300  Biso   1.000  H
  H119     1.0000 0.51650  0.78240  0.73300  Biso   1.000  H
  H120     1.0000 0.98350  0.28240  0.76700  Biso   1.000  H
  H121     1.0000 0.41090  0.32640  0.28440  Biso   1.000  H
  H122     1.0000 0.08910  0.82640  0.21560  Biso   1.000  H
  H123     1.0000 0.58910  0.67360  0.71560  Biso   1.000  H
  H124     1.0000 0.91090  0.17360  0.78440  Biso   1.000  H
  N5       1.0000 0.88110  0.01840  0.26729  Biso   1.000  N
  N6       1.0000 0.61890  0.51840  0.23271  Biso   1.000  N
  N7       1.0000 0.11890  0.98160  0.73271  Biso   1.000  N
  N8       1.0000 0.38110  0.48160  0.76729  Biso   1.000  N
  C65      1.0000 0.80540  0.07640  0.26542  Biso   1.000  C
  C66      1.0000 0.69460  0.57640  0.23458  Biso   1.000  C
  C67      1.0000 0.19460  0.92360  0.73458  Biso   1.000  C
  C68      1.0000 0.30540  0.42360  0.76542  Biso   1.000  C
  C69      1.0000 0.70723  0.14827  0.26313  Biso   1.000  C
  C70      1.0000 0.79277  0.64827  0.23687  Biso   1.000  C
  C71      1.0000 0.29277  0.85173  0.73687  Biso   1.000  C
  C72      1.0000 0.20723  0.35173  0.76313  Biso   1.000  C
  H125     1.0000 0.65470  0.13660  0.21410  Biso   1.000  H
  H126     1.0000 0.84530  0.63660  0.28590  Biso   1.000  H
  H127     1.0000 0.34530  0.86340  0.78590  Biso   1.000  H
  H128     1.0000 0.15470  0.36340  0.71410  Biso   1.000  H
  H129     1.0000 0.72970  0.23000  0.26820  Biso   1.000  H
  H130     1.0000 0.77030  0.73000  0.23180  Biso   1.000  H
  H131     1.0000 0.27030  0.77000  0.73180  Biso   1.000  H
  H132     1.0000 0.22970  0.27000  0.76820  Biso   1.000  H
  H133     1.0000 0.67080  0.12690  0.30560  Biso   1.000  H
  H134     1.0000 0.82920  0.62690  0.19440  Biso   1.000  H
  H135     1.0000 0.32920  0.87310  0.69440  Biso   1.000  H
  H136     1.0000 0.17080  0.37310  0.80560  Biso   1.000  H
