data_image0
_cell_length_a       18.272
_cell_length_b       11.149
_cell_length_c       24.667
_cell_angle_alpha    90
_cell_angle_beta     91.518
_cell_angle_gamma    90

_symmetry_space_group_name_H-M    "P 1"
_symmetry_int_tables_number       1

loop_
  _symmetry_equiv_pos_as_xyz
  'x, y, z'

loop_
  _atom_site_label
  _atom_site_occupancy
  _atom_site_fract_x
  _atom_site_fract_y
  _atom_site_fract_z
  _atom_site_thermal_displace_type
  _atom_site_B_iso_or_equiv
  _atom_site_type_symbol
  Cu1      1.0000 0.00000  0.40640  0.75000  Biso   1.000  Cu
  Cu2      1.0000 0.50000  0.90640  0.75000  Biso   1.000  Cu
  Cu3      1.0000 0.00000  0.59360  0.25000  Biso   1.000  Cu
  Cu4      1.0000 0.50000  0.09360  0.25000  Biso   1.000  Cu
  N1       1.0000 0.03830  0.40450  0.67190  Biso   1.000  N
  N2       1.0000 0.53830  0.90450  0.67190  Biso   1.000  N
  N3       1.0000 0.46170  0.90450  0.82810  Biso   1.000  N
  N4       1.0000 0.96170  0.40450  0.82810  Biso   1.000  N
  N5       1.0000 0.96170  0.59550  0.32810  Biso   1.000  N
  N6       1.0000 0.46170  0.09550  0.32810  Biso   1.000  N
  N7       1.0000 0.53830  0.09550  0.17190  Biso   1.000  N
  N8       1.0000 0.03830  0.59550  0.17190  Biso   1.000  N
  N9       1.0000 0.12110  0.46930  0.39480  Biso   1.000  N
  N10      1.0000 0.62110  0.96930  0.39480  Biso   1.000  N
  N11      1.0000 0.37890  0.96930  0.10520  Biso   1.000  N
  N12      1.0000 0.87890  0.46930  0.10520  Biso   1.000  N
  N13      1.0000 0.87890  0.53070  0.60520  Biso   1.000  N
  N14      1.0000 0.37890  0.03070  0.60520  Biso   1.000  N
  N15      1.0000 0.62110  0.03070  0.89480  Biso   1.000  N
  N16      1.0000 0.12110  0.53070  0.89480  Biso   1.000  N
  O1       1.0000 0.12240  0.40600  0.79120  Biso   1.000  O
  O2       1.0000 0.62240  0.90600  0.79120  Biso   1.000  O
  O3       1.0000 0.37760  0.90600  0.70880  Biso   1.000  O
  O4       1.0000 0.87760  0.40600  0.70880  Biso   1.000  O
  O5       1.0000 0.87760  0.59400  0.20880  Biso   1.000  O
  O6       1.0000 0.37760  0.09400  0.20880  Biso   1.000  O
  O7       1.0000 0.62240  0.09400  0.29120  Biso   1.000  O
  O8       1.0000 0.12240  0.59400  0.29120  Biso   1.000  O
  C1       1.0000 0.00550  0.33650  0.63400  Biso   1.000  C
  C2       1.0000 0.50550  0.83650  0.63400  Biso   1.000  C
  C3       1.0000 0.49450  0.83650  0.86600  Biso   1.000  C
  C4       1.0000 0.99450  0.33650  0.86600  Biso   1.000  C
  C5       1.0000 0.99450  0.66350  0.36600  Biso   1.000  C
  C6       1.0000 0.49450  0.16350  0.36600  Biso   1.000  C
  C7       1.0000 0.50550  0.16350  0.13400  Biso   1.000  C
  C8       1.0000 0.00550  0.66350  0.13400  Biso   1.000  C
  C9       1.0000 0.02340  0.34160  0.58070  Biso   1.000  C
  C10      1.0000 0.52340  0.84160  0.58070  Biso   1.000  C
  C11      1.0000 0.47660  0.84160  0.91930  Biso   1.000  C
  C12      1.0000 0.97660  0.34160  0.91930  Biso   1.000  C
  C13      1.0000 0.97660  0.65840  0.41930  Biso   1.000  C
  C14      1.0000 0.47660  0.15840  0.41930  Biso   1.000  C
  C15      1.0000 0.52340  0.15840  0.08070  Biso   1.000  C
  C16      1.0000 0.02340  0.65840  0.08070  Biso   1.000  C
  C17      1.0000 0.07620  0.41890  0.56350  Biso   1.000  C
  C18      1.0000 0.57620  0.91890  0.56350  Biso   1.000  C
  C19      1.0000 0.42380  0.91890  0.93650  Biso   1.000  C
  C20      1.0000 0.92380  0.41890  0.93650  Biso   1.000  C
  C21      1.0000 0.92380  0.58110  0.43650  Biso   1.000  C
  C22      1.0000 0.42380  0.08110  0.43650  Biso   1.000  C
  C23      1.0000 0.57620  0.08110  0.06350  Biso   1.000  C
  C24      1.0000 0.07620  0.58110  0.06350  Biso   1.000  C
  C25      1.0000 0.11290  0.48470  0.60280  Biso   1.000  C
  C26      1.0000 0.61290  0.98470  0.60280  Biso   1.000  C
  C27      1.0000 0.38710  0.98470  0.89720  Biso   1.000  C
  C28      1.0000 0.88710  0.48470  0.89720  Biso   1.000  C
  C29      1.0000 0.88710  0.51530  0.39720  Biso   1.000  C
  C30      1.0000 0.38710  0.01530  0.39720  Biso   1.000  C
  C31      1.0000 0.61290  0.01530  0.10280  Biso   1.000  C
  C32      1.0000 0.11290  0.51530  0.10280  Biso   1.000  C
  C33      1.0000 0.09270  0.47330  0.65690  Biso   1.000  C
  C34      1.0000 0.59270  0.97330  0.65690  Biso   1.000  C
  C35      1.0000 0.40730  0.97330  0.84310  Biso   1.000  C
  C36      1.0000 0.90730  0.47330  0.84310  Biso   1.000  C
  C37      1.0000 0.90730  0.52670  0.34310  Biso   1.000  C
  C38      1.0000 0.40730  0.02670  0.34310  Biso   1.000  C
  C39      1.0000 0.59270  0.02670  0.15690  Biso   1.000  C
  C40      1.0000 0.09270  0.52670  0.15690  Biso   1.000  C
  C41      1.0000 0.15430  0.53460  0.43350  Biso   1.000  C
  C42      1.0000 0.65430  0.03460  0.43350  Biso   1.000  C
  C43      1.0000 0.34570  0.03460  0.06650  Biso   1.000  C
  C44      1.0000 0.84570  0.53460  0.06650  Biso   1.000  C
  C45      1.0000 0.84570  0.46540  0.56650  Biso   1.000  C
  C46      1.0000 0.34570  0.96540  0.56650  Biso   1.000  C
  C47      1.0000 0.65430  0.96540  0.93350  Biso   1.000  C
  C48      1.0000 0.15430  0.46540  0.93350  Biso   1.000  C
  C49      1.0000 0.14120  0.52120  0.48800  Biso   1.000  C
  C50      1.0000 0.64120  0.02120  0.48800  Biso   1.000  C
  C51      1.0000 0.35880  0.02120  0.01200  Biso   1.000  C
  C52      1.0000 0.85880  0.52120  0.01200  Biso   1.000  C
  C53      1.0000 0.85880  0.47880  0.51200  Biso   1.000  C
  C54      1.0000 0.35880  0.97880  0.51200  Biso   1.000  C
  C55      1.0000 0.64120  0.97880  0.98800  Biso   1.000  C
  C56      1.0000 0.14120  0.47880  0.98800  Biso   1.000  C
  C57      1.0000 0.09410  0.43450  0.50520  Biso   1.000  C
  C58      1.0000 0.59410  0.93450  0.50520  Biso   1.000  C
  C59      1.0000 0.40590  0.93450  0.99480  Biso   1.000  C
  C60      1.0000 0.90590  0.43450  0.99480  Biso   1.000  C
  C61      1.0000 0.90590  0.56550  0.49480  Biso   1.000  C
  C62      1.0000 0.40590  0.06550  0.49480  Biso   1.000  C
  C63      1.0000 0.59410  0.06550  0.00520  Biso   1.000  C
  C64      1.0000 0.09410  0.56550  0.00520  Biso   1.000  C
  C65      1.0000 0.06050  0.36550  0.46480  Biso   1.000  C
  C66      1.0000 0.56050  0.86550  0.46480  Biso   1.000  C
  C67      1.0000 0.43950  0.86550  0.03520  Biso   1.000  C
  C68      1.0000 0.93950  0.36550  0.03520  Biso   1.000  C
  C69      1.0000 0.93950  0.63450  0.53520  Biso   1.000  C
  C70      1.0000 0.43950  0.13450  0.53520  Biso   1.000  C
  C71      1.0000 0.56050  0.13450  0.96480  Biso   1.000  C
  C72      1.0000 0.06050  0.63450  0.96480  Biso   1.000  C
  C73      1.0000 0.07680  0.38720  0.41160  Biso   1.000  C
  C74      1.0000 0.57680  0.88720  0.41160  Biso   1.000  C
  C75      1.0000 0.42320  0.88720  0.08840  Biso   1.000  C
  C76      1.0000 0.92320  0.38720  0.08840  Biso   1.000  C
  C77      1.0000 0.92320  0.61280  0.58840  Biso   1.000  C
  C78      1.0000 0.42320  0.11280  0.58840  Biso   1.000  C
  C79      1.0000 0.57680  0.11280  0.91160  Biso   1.000  C
  C80      1.0000 0.07680  0.61280  0.91160  Biso   1.000  C
  C81      1.0000 0.05910  0.16150  0.73740  Biso   1.000  C
  C82      1.0000 0.55910  0.66150  0.73740  Biso   1.000  C
  C83      1.0000 0.44090  0.66150  0.76260  Biso   1.000  C
  C84      1.0000 0.94090  0.16150  0.76260  Biso   1.000  C
  C85      1.0000 0.94090  0.83850  0.26260  Biso   1.000  C
  C86      1.0000 0.44090  0.33850  0.26260  Biso   1.000  C
  C87      1.0000 0.55910  0.33850  0.23740  Biso   1.000  C
  C88      1.0000 0.05910  0.83850  0.23740  Biso   1.000  C
  C89      1.0000 0.06170  0.04110  0.73630  Biso   1.000  C
  C90      1.0000 0.56170  0.54110  0.73630  Biso   1.000  C
  C91      1.0000 0.43830  0.54110  0.76370  Biso   1.000  C
  C92      1.0000 0.93830  0.04110  0.76370  Biso   1.000  C
  C93      1.0000 0.93830  0.95890  0.26370  Biso   1.000  C
  C94      1.0000 0.43830  0.45890  0.26370  Biso   1.000  C
  C95      1.0000 0.56170  0.45890  0.23630  Biso   1.000  C
  C96      1.0000 0.06170  0.95890  0.23630  Biso   1.000  C
  C97      1.0000 0.00000  0.97460  0.75000  Biso   1.000  C
  C98      1.0000 0.50000  0.47460  0.75000  Biso   1.000  C
  C99      1.0000 0.00000  0.02540  0.25000  Biso   1.000  C
  C100     1.0000 0.50000  0.52540  0.25000  Biso   1.000  C
  C101     1.0000 0.00000  0.84410  0.75000  Biso   1.000  C
  C102     1.0000 0.50000  0.34410  0.75000  Biso   1.000  C
  C103     1.0000 0.00000  0.15590  0.25000  Biso   1.000  C
  C104     1.0000 0.50000  0.65590  0.25000  Biso   1.000  C
  C105     1.0000 0.06290  0.77790  0.73560  Biso   1.000  C
  C106     1.0000 0.56290  0.27790  0.73560  Biso   1.000  C
  C107     1.0000 0.43710  0.27790  0.76440  Biso   1.000  C
  C108     1.0000 0.93710  0.77790  0.76440  Biso   1.000  C
  C109     1.0000 0.93710  0.22210  0.26440  Biso   1.000  C
  C110     1.0000 0.43710  0.72210  0.26440  Biso   1.000  C
  C111     1.0000 0.56290  0.72210  0.23560  Biso   1.000  C
  C112     1.0000 0.06290  0.22210  0.23560  Biso   1.000  C
  C113     1.0000 0.06030  0.65480  0.73590  Biso   1.000  C
  C114     1.0000 0.56030  0.15480  0.73590  Biso   1.000  C
  C115     1.0000 0.43970  0.15480  0.76410  Biso   1.000  C
  C116     1.0000 0.93970  0.65480  0.76410  Biso   1.000  C
  C117     1.0000 0.93970  0.34520  0.26410  Biso   1.000  C
  C118     1.0000 0.43970  0.84520  0.26410  Biso   1.000  C
  C119     1.0000 0.56030  0.84520  0.23590  Biso   1.000  C
  C120     1.0000 0.06030  0.34520  0.23590  Biso   1.000  C
  N17      1.0000 0.00000  0.22260  0.75000  Biso   1.000  N
  N18      1.0000 0.50000  0.72260  0.75000  Biso   1.000  N
  N19      1.0000 0.00000  0.77740  0.25000  Biso   1.000  N
  N20      1.0000 0.50000  0.27740  0.25000  Biso   1.000  N
  N21      1.0000 0.00000  0.58980  0.75000  Biso   1.000  N
  N22      1.0000 0.50000  0.08980  0.75000  Biso   1.000  N
  N23      1.0000 0.00000  0.41020  0.25000  Biso   1.000  N
  N24      1.0000 0.50000  0.91020  0.25000  Biso   1.000  N
  O9       1.0000 0.24720  0.30980  0.75480  Biso   1.000  O
  O10      1.0000 0.74720  0.80980  0.75480  Biso   1.000  O
  O11      1.0000 0.25280  0.80980  0.74520  Biso   1.000  O
  O12      1.0000 0.75280  0.30980  0.74520  Biso   1.000  O
  O13      1.0000 0.75280  0.69020  0.24520  Biso   1.000  O
  O14      1.0000 0.25280  0.19020  0.24520  Biso   1.000  O
  O15      1.0000 0.74720  0.19020  0.25480  Biso   1.000  O
  O16      1.0000 0.24720  0.69020  0.25480  Biso   1.000  O
  N25      1.0000 0.28430  0.28630  0.36010  Biso   1.000  N
  N26      1.0000 0.78430  0.78630  0.36010  Biso   1.000  N
  N27      1.0000 0.21570  0.78630  0.13990  Biso   1.000  N
  N28      1.0000 0.71570  0.28630  0.13990  Biso   1.000  N
  N29      1.0000 0.71570  0.71370  0.63990  Biso   1.000  N
  N30      1.0000 0.21570  0.21370  0.63990  Biso   1.000  N
  N31      1.0000 0.78430  0.21370  0.86010  Biso   1.000  N
  N32      1.0000 0.28430  0.71370  0.86010  Biso   1.000  N
  C121     1.0000 0.23800  0.19560  0.37710  Biso   1.000  C
  C122     1.0000 0.73800  0.69560  0.37710  Biso   1.000  C
  C123     1.0000 0.26200  0.69560  0.12290  Biso   1.000  C
  C124     1.0000 0.76200  0.19560  0.12290  Biso   1.000  C
  C125     1.0000 0.76200  0.80440  0.62290  Biso   1.000  C
  C126     1.0000 0.26200  0.30440  0.62290  Biso   1.000  C
  C127     1.0000 0.73800  0.30440  0.87710  Biso   1.000  C
  C128     1.0000 0.23800  0.80440  0.87710  Biso   1.000  C
  C129     1.0000 0.22490  0.18120  0.43200  Biso   1.000  C
  C130     1.0000 0.72490  0.68120  0.43200  Biso   1.000  C
  C131     1.0000 0.27510  0.68120  0.06800  Biso   1.000  C
  C132     1.0000 0.77510  0.18120  0.06800  Biso   1.000  C
  C133     1.0000 0.77510  0.81880  0.56800  Biso   1.000  C
  C134     1.0000 0.27510  0.31880  0.56800  Biso   1.000  C
  C135     1.0000 0.72490  0.31880  0.93200  Biso   1.000  C
  C136     1.0000 0.22490  0.81880  0.93200  Biso   1.000  C
  C137     1.0000 0.25810  0.25740  0.46980  Biso   1.000  C
  C138     1.0000 0.75810  0.75740  0.46980  Biso   1.000  C
  C139     1.0000 0.24190  0.75740  0.03020  Biso   1.000  C
  C140     1.0000 0.74190  0.25740  0.03020  Biso   1.000  C
  C141     1.0000 0.74190  0.74260  0.53020  Biso   1.000  C
  C142     1.0000 0.24190  0.24260  0.53020  Biso   1.000  C
  C143     1.0000 0.75810  0.24260  0.96980  Biso   1.000  C
  C144     1.0000 0.25810  0.74260  0.96980  Biso   1.000  C
  C145     1.0000 0.30440  0.34810  0.45280  Biso   1.000  C
  C146     1.0000 0.80440  0.84810  0.45280  Biso   1.000  C
  C147     1.0000 0.19560  0.84810  0.04720  Biso   1.000  C
  C148     1.0000 0.69560  0.34810  0.04720  Biso   1.000  C
  C149     1.0000 0.69560  0.65190  0.54720  Biso   1.000  C
  C150     1.0000 0.19560  0.15190  0.54720  Biso   1.000  C
  C151     1.0000 0.80440  0.15190  0.95280  Biso   1.000  C
  C152     1.0000 0.30440  0.65190  0.95280  Biso   1.000  C
  C153     1.0000 0.31750  0.36250  0.39800  Biso   1.000  C
  C154     1.0000 0.81750  0.86250  0.39800  Biso   1.000  C
  C155     1.0000 0.18250  0.86250  0.10200  Biso   1.000  C
  C156     1.0000 0.68250  0.36250  0.10200  Biso   1.000  C
  C157     1.0000 0.68250  0.63750  0.60200  Biso   1.000  C
  C158     1.0000 0.18250  0.13750  0.60200  Biso   1.000  C
  C159     1.0000 0.81750  0.13750  0.89800  Biso   1.000  C
  C160     1.0000 0.31750  0.63750  0.89800  Biso   1.000  C
  N33      1.0000 0.86860  0.03720  0.64070  Biso   1.000  N
  N34      1.0000 0.36860  0.53720  0.64070  Biso   1.000  N
  N35      1.0000 0.63140  0.53720  0.85930  Biso   1.000  N
  N36      1.0000 0.13140  0.03720  0.85930  Biso   1.000  N
  N37      1.0000 0.13140  0.96280  0.35930  Biso   1.000  N
  N38      1.0000 0.63140  0.46280  0.35930  Biso   1.000  N
  N39      1.0000 0.36860  0.46280  0.14070  Biso   1.000  N
  N40      1.0000 0.86860  0.96280  0.14070  Biso   1.000  N
  C161     1.0000 0.82730  0.12020  0.61110  Biso   1.000  C
  C162     1.0000 0.32730  0.62020  0.61110  Biso   1.000  C
  C163     1.0000 0.67270  0.62020  0.88890  Biso   1.000  C
  C164     1.0000 0.17270  0.12020  0.88890  Biso   1.000  C
  C165     1.0000 0.17270  0.87980  0.38890  Biso   1.000  C
  C166     1.0000 0.67270  0.37980  0.38890  Biso   1.000  C
  C167     1.0000 0.32730  0.37980  0.11110  Biso   1.000  C
  C168     1.0000 0.82730  0.87980  0.11110  Biso   1.000  C
  C169     1.0000 0.84280  0.14230  0.55710  Biso   1.000  C
  C170     1.0000 0.34280  0.64230  0.55710  Biso   1.000  C
  C171     1.0000 0.65720  0.64230  0.94290  Biso   1.000  C
  C172     1.0000 0.15720  0.14230  0.94290  Biso   1.000  C
  C173     1.0000 0.15720  0.85770  0.44290  Biso   1.000  C
  C174     1.0000 0.65720  0.35770  0.44290  Biso   1.000  C
  C175     1.0000 0.34280  0.35770  0.05710  Biso   1.000  C
  C176     1.0000 0.84280  0.85770  0.05710  Biso   1.000  C
  C177     1.0000 0.89960  0.08140  0.53280  Biso   1.000  C
  C178     1.0000 0.39960  0.58140  0.53280  Biso   1.000  C
  C179     1.0000 0.60040  0.58140  0.96720  Biso   1.000  C
  C180     1.0000 0.10040  0.08140  0.96720  Biso   1.000  C
  C181     1.0000 0.10040  0.91860  0.46720  Biso   1.000  C
  C182     1.0000 0.60040  0.41860  0.46720  Biso   1.000  C
  C183     1.0000 0.39960  0.41860  0.03280  Biso   1.000  C
  C184     1.0000 0.89960  0.91860  0.03280  Biso   1.000  C
  C185     1.0000 0.94090  0.99830  0.56240  Biso   1.000  C
  C186     1.0000 0.44090  0.49830  0.56240  Biso   1.000  C
  C187     1.0000 0.55910  0.49830  0.93760  Biso   1.000  C
  C188     1.0000 0.05910  0.99830  0.93760  Biso   1.000  C
  C189     1.0000 0.05910  0.00170  0.43760  Biso   1.000  C
  C190     1.0000 0.55910  0.50170  0.43760  Biso   1.000  C
  C191     1.0000 0.44090  0.50170  0.06240  Biso   1.000  C
  C192     1.0000 0.94090  0.00170  0.06240  Biso   1.000  C
  C193     1.0000 0.92540  0.97620  0.61640  Biso   1.000  C
  C194     1.0000 0.42540  0.47620  0.61640  Biso   1.000  C
  C195     1.0000 0.57460  0.47620  0.88360  Biso   1.000  C
  C196     1.0000 0.07460  0.97620  0.88360  Biso   1.000  C
  C197     1.0000 0.07460  0.02380  0.38360  Biso   1.000  C
  C198     1.0000 0.57460  0.52380  0.38360  Biso   1.000  C
  C199     1.0000 0.42540  0.52380  0.11640  Biso   1.000  C
  C200     1.0000 0.92540  0.02380  0.11640  Biso   1.000  C
  N41      1.0000 0.94210  0.13770  0.36790  Biso   1.000  N
  N42      1.0000 0.44210  0.63770  0.36790  Biso   1.000  N
  N43      1.0000 0.55790  0.63770  0.13210  Biso   1.000  N
  N44      1.0000 0.05790  0.13770  0.13210  Biso   1.000  N
  N45      1.0000 0.05790  0.86230  0.63210  Biso   1.000  N
  N46      1.0000 0.55790  0.36230  0.63210  Biso   1.000  N
  N47      1.0000 0.44210  0.36230  0.86790  Biso   1.000  N
  N48      1.0000 0.94210  0.86230  0.86790  Biso   1.000  N
  C201     1.0000 0.98900  0.06250  0.39740  Biso   1.000  C
  C202     1.0000 0.48900  0.56250  0.39740  Biso   1.000  C
  C203     1.0000 0.51100  0.56250  0.10260  Biso   1.000  C
  C204     1.0000 0.01100  0.06250  0.10260  Biso   1.000  C
  C205     1.0000 0.01100  0.93750  0.60260  Biso   1.000  C
  C206     1.0000 0.51100  0.43750  0.60260  Biso   1.000  C
  C207     1.0000 0.48900  0.43750  0.89740  Biso   1.000  C
  C208     1.0000 0.98900  0.93750  0.89740  Biso   1.000  C
  C209     1.0000 0.97690  0.04060  0.45190  Biso   1.000  C
  C210     1.0000 0.47690  0.54060  0.45190  Biso   1.000  C
  C211     1.0000 0.52310  0.54060  0.04810  Biso   1.000  C
  C212     1.0000 0.02310  0.04060  0.04810  Biso   1.000  C
  C213     1.0000 0.02310  0.95940  0.54810  Biso   1.000  C
  C214     1.0000 0.52310  0.45940  0.54810  Biso   1.000  C
  C215     1.0000 0.47690  0.45940  0.95190  Biso   1.000  C
  C216     1.0000 0.97690  0.95940  0.95190  Biso   1.000  C
  C217     1.0000 0.91800  0.09390  0.47690  Biso   1.000  C
  C218     1.0000 0.41800  0.59390  0.47690  Biso   1.000  C
  C219     1.0000 0.58200  0.59390  0.02310  Biso   1.000  C
  C220     1.0000 0.08200  0.09390  0.02310  Biso   1.000  C
  C221     1.0000 0.08200  0.90610  0.52310  Biso   1.000  C
  C222     1.0000 0.58200  0.40610  0.52310  Biso   1.000  C
  C223     1.0000 0.41800  0.40610  0.97690  Biso   1.000  C
  C224     1.0000 0.91800  0.90610  0.97690  Biso   1.000  C
  C225     1.0000 0.87110  0.16910  0.44750  Biso   1.000  C
  C226     1.0000 0.37110  0.66910  0.44750  Biso   1.000  C
  C227     1.0000 0.62890  0.66910  0.05250  Biso   1.000  C
  C228     1.0000 0.12890  0.16910  0.05250  Biso   1.000  C
  C229     1.0000 0.12890  0.83090  0.55250  Biso   1.000  C
  C230     1.0000 0.62890  0.33090  0.55250  Biso   1.000  C
  C231     1.0000 0.37110  0.33090  0.94750  Biso   1.000  C
  C232     1.0000 0.87110  0.83090  0.94750  Biso   1.000  C
  C233     1.0000 0.88310  0.19100  0.39300  Biso   1.000  C
  C234     1.0000 0.38310  0.69100  0.39300  Biso   1.000  C
  C235     1.0000 0.61690  0.69100  0.10700  Biso   1.000  C
  C236     1.0000 0.11690  0.19100  0.10700  Biso   1.000  C
  C237     1.0000 0.11690  0.80900  0.60700  Biso   1.000  C
  C238     1.0000 0.61690  0.30900  0.60700  Biso   1.000  C
  C239     1.0000 0.38310  0.30900  0.89300  Biso   1.000  C
  C240     1.0000 0.88310  0.80900  0.89300  Biso   1.000  C
