data_image0
_cell_length_a       13.9659
_cell_length_b       13.2766
_cell_length_c       18.0272
_cell_angle_alpha    90
_cell_angle_beta     104.667
_cell_angle_gamma    90

_symmetry_space_group_name_H-M    "P 1"
_symmetry_int_tables_number       1

loop_
  _symmetry_equiv_pos_as_xyz
  'x, y, z'

loop_
  _atom_site_label
  _atom_site_occupancy
  _atom_site_fract_x
  _atom_site_fract_y
  _atom_site_fract_z
  _atom_site_thermal_displace_type
  _atom_site_B_iso_or_equiv
  _atom_site_type_symbol
  Cu1      1.0000 0.57631  0.16205  0.22376  Biso   1.000  Cu
  Cu2      1.0000 0.92369  0.66205  0.27624  Biso   1.000  Cu
  Cu3      1.0000 0.42369  0.83795  0.77624  Biso   1.000  Cu
  Cu4      1.0000 0.07631  0.33795  0.72376  Biso   1.000  Cu
  N1       1.0000 0.58701  0.01760  0.27752  Biso   1.000  N
  N2       1.0000 0.91299  0.51760  0.22248  Biso   1.000  N
  N3       1.0000 0.41299  0.98240  0.72248  Biso   1.000  N
  N4       1.0000 0.08701  0.48240  0.77752  Biso   1.000  N
  N5       1.0000 0.53133  0.19610  0.32217  Biso   1.000  N
  N6       1.0000 0.96867  0.69610  0.17783  Biso   1.000  N
  N7       1.0000 0.46867  0.80390  0.67783  Biso   1.000  N
  N8       1.0000 0.03133  0.30390  0.82217  Biso   1.000  N
  N9       1.0000 0.44447  0.13740  0.40063  Biso   1.000  N
  N10      1.0000 0.05553  0.63740  0.09937  Biso   1.000  N
  N11      1.0000 0.55553  0.86260  0.59937  Biso   1.000  N
  N12      1.0000 0.94447  0.36260  0.90063  Biso   1.000  N
  H1       1.0000 0.41620  0.09390  0.42520  Biso   1.000  H
  H2       1.0000 0.08380  0.59390  0.07480  Biso   1.000  H
  H3       1.0000 0.58380  0.90610  0.57480  Biso   1.000  H
  H4       1.0000 0.91620  0.40610  0.92520  Biso   1.000  H
  N13      1.0000 0.48707  0.07950  0.13712  Biso   1.000  N
  N14      1.0000 0.01293  0.57950  0.36288  Biso   1.000  N
  N15      1.0000 0.51293  0.92050  0.86288  Biso   1.000  N
  N16      1.0000 0.98707  0.42050  0.63712  Biso   1.000  N
  N17      1.0000 0.44170  0.92730  0.09157  Biso   1.000  N
  N18      1.0000 0.05830  0.42730  0.40843  Biso   1.000  N
  N19      1.0000 0.55830  0.07270  0.90843  Biso   1.000  N
  N20      1.0000 0.94170  0.57270  0.59157  Biso   1.000  N
  H5       1.0000 0.43800  0.86110  0.08930  Biso   1.000  H
  H6       1.0000 0.06200  0.36110  0.41070  Biso   1.000  H
  H7       1.0000 0.56200  0.13890  0.91070  Biso   1.000  H
  H8       1.0000 0.93800  0.63890  0.58930  Biso   1.000  H
  N21      1.0000 0.72405  0.12840  0.23702  Biso   1.000  N
  N22      1.0000 0.77595  0.62840  0.26298  Biso   1.000  N
  N23      1.0000 0.27595  0.87160  0.76298  Biso   1.000  N
  N24      1.0000 0.22405  0.37160  0.73702  Biso   1.000  N
  N25      1.0000 0.85532  0.04580  0.30641  Biso   1.000  N
  N26      1.0000 0.64468  0.54580  0.19359  Biso   1.000  N
  N27      1.0000 0.14468  0.95420  0.69359  Biso   1.000  N
  N28      1.0000 0.35532  0.45420  0.80641  Biso   1.000  N
  C1       1.0000 0.51010  0.01290  0.32150  Biso   1.000  C
  C2       1.0000 0.98990  0.51290  0.17850  Biso   1.000  C
  C3       1.0000 0.48990  0.98710  0.67850  Biso   1.000  C
  C4       1.0000 0.01010  0.48710  0.82150  Biso   1.000  C
  H9       1.0000 0.44690  0.98820  0.28820  Biso   1.000  H
  H10      1.0000 0.05310  0.48820  0.21180  Biso   1.000  H
  H11      1.0000 0.55310  0.01180  0.71180  Biso   1.000  H
  H12      1.0000 0.94690  0.51180  0.78820  Biso   1.000  H
  H13      1.0000 0.53120  0.96630  0.36550  Biso   1.000  H
  H14      1.0000 0.96880  0.46630  0.13450  Biso   1.000  H
  H15      1.0000 0.46880  0.03370  0.63450  Biso   1.000  H
  H16      1.0000 0.03120  0.53370  0.86550  Biso   1.000  H
  C5       1.0000 0.49710  0.11550  0.34912  Biso   1.000  C
  C6       1.0000 0.00290  0.61550  0.15088  Biso   1.000  C
  C7       1.0000 0.50290  0.88450  0.65088  Biso   1.000  C
  C8       1.0000 0.99710  0.38450  0.84912  Biso   1.000  C
  C9       1.0000 0.50070  0.27730  0.35913  Biso   1.000  C
  C10      1.0000 0.99930  0.77730  0.14087  Biso   1.000  C
  C11      1.0000 0.49930  0.72270  0.64087  Biso   1.000  C
  C12      1.0000 0.00070  0.22270  0.85913  Biso   1.000  C
  C13      1.0000 0.51560  0.38110  0.35513  Biso   1.000  C
  C14      1.0000 0.98440  0.88110  0.14487  Biso   1.000  C
  C15      1.0000 0.48440  0.61890  0.64487  Biso   1.000  C
  C16      1.0000 0.01560  0.11890  0.85513  Biso   1.000  C
  H17      1.0000 0.55500  0.40770  0.32390  Biso   1.000  H
  H18      1.0000 0.94500  0.90770  0.17610  Biso   1.000  H
  H19      1.0000 0.44500  0.59230  0.67610  Biso   1.000  H
  H20      1.0000 0.05500  0.09230  0.82390  Biso   1.000  H
  C17      1.0000 0.47200  0.44330  0.39730  Biso   1.000  C
  C18      1.0000 0.02800  0.94330  0.10270  Biso   1.000  C
  C19      1.0000 0.52800  0.55670  0.60270  Biso   1.000  C
  C20      1.0000 0.97200  0.05670  0.89730  Biso   1.000  C
  H21      1.0000 0.48220  0.51390  0.39560  Biso   1.000  H
  H22      1.0000 0.01780  0.01390  0.10440  Biso   1.000  H
  H23      1.0000 0.51780  0.48610  0.60440  Biso   1.000  H
  H24      1.0000 0.98220  0.98610  0.89560  Biso   1.000  H
  C21      1.0000 0.41220  0.40560  0.44340  Biso   1.000  C
  C22      1.0000 0.08780  0.90560  0.05660  Biso   1.000  C
  C23      1.0000 0.58780  0.59440  0.55660  Biso   1.000  C
  C24      1.0000 0.91220  0.09440  0.94340  Biso   1.000  C
  H25      1.0000 0.38170  0.45120  0.47110  Biso   1.000  H
  H26      1.0000 0.11830  0.95120  0.02890  Biso   1.000  H
  H27      1.0000 0.61830  0.54880  0.52890  Biso   1.000  H
  H28      1.0000 0.88170  0.04880  0.97110  Biso   1.000  H
  C25      1.0000 0.39780  0.30390  0.44890  Biso   1.000  C
  C26      1.0000 0.10220  0.80390  0.05110  Biso   1.000  C
  C27      1.0000 0.60220  0.69610  0.55110  Biso   1.000  C
  C28      1.0000 0.89780  0.19610  0.94890  Biso   1.000  C
  H29      1.0000 0.35800  0.27750  0.47990  Biso   1.000  H
  H30      1.0000 0.14200  0.77750  0.02010  Biso   1.000  H
  H31      1.0000 0.64200  0.72250  0.52010  Biso   1.000  H
  H32      1.0000 0.85800  0.22250  0.97990  Biso   1.000  H
  C29      1.0000 0.44370  0.24240  0.40724  Biso   1.000  C
  C30      1.0000 0.05630  0.74240  0.09276  Biso   1.000  C
  C31      1.0000 0.55630  0.75760  0.59276  Biso   1.000  C
  C32      1.0000 0.94370  0.25760  0.90724  Biso   1.000  C
  C33      1.0000 0.57020  0.94080  0.21646  Biso   1.000  C
  C34      1.0000 0.92980  0.44080  0.28354  Biso   1.000  C
  C35      1.0000 0.42980  0.05920  0.78354  Biso   1.000  C
  C36      1.0000 0.07020  0.55920  0.71646  Biso   1.000  C
  H33      1.0000 0.54400  0.87830  0.23390  Biso   1.000  H
  H34      1.0000 0.95600  0.37830  0.26610  Biso   1.000  H
  H35      1.0000 0.45600  0.12170  0.76610  Biso   1.000  H
  H36      1.0000 0.04400  0.62170  0.73390  Biso   1.000  H
  H37      1.0000 0.63330  0.92460  0.20360  Biso   1.000  H
  H38      1.0000 0.86670  0.42460  0.29640  Biso   1.000  H
  H39      1.0000 0.36670  0.07540  0.79640  Biso   1.000  H
  H40      1.0000 0.13330  0.57540  0.70360  Biso   1.000  H
  C37      1.0000 0.49790  0.98190  0.14809  Biso   1.000  C
  C38      1.0000 0.00210  0.48190  0.35191  Biso   1.000  C
  C39      1.0000 0.50210  0.01810  0.85191  Biso   1.000  C
  C40      1.0000 0.99790  0.51810  0.64809  Biso   1.000  C
  C41      1.0000 0.41830  0.08910  0.06610  Biso   1.000  C
  C42      1.0000 0.08170  0.58910  0.43390  Biso   1.000  C
  C43      1.0000 0.58170  0.91090  0.93390  Biso   1.000  C
  C44      1.0000 0.91830  0.41090  0.56610  Biso   1.000  C
  C45      1.0000 0.37920  0.17370  0.02460  Biso   1.000  C
  C46      1.0000 0.12080  0.67370  0.47540  Biso   1.000  C
  C47      1.0000 0.62080  0.82630  0.97540  Biso   1.000  C
  C48      1.0000 0.87920  0.32630  0.52460  Biso   1.000  C
  H41      1.0000 0.39760  0.23950  0.04370  Biso   1.000  H
  H42      1.0000 0.10240  0.73950  0.45630  Biso   1.000  H
  H43      1.0000 0.60240  0.76050  0.95630  Biso   1.000  H
  H44      1.0000 0.89760  0.26050  0.54370  Biso   1.000  H
  C49      1.0000 0.31260  0.15930  0.95440  Biso   1.000  C
  C50      1.0000 0.18740  0.65930  0.54560  Biso   1.000  C
  C51      1.0000 0.68740  0.84070  0.04560  Biso   1.000  C
  C52      1.0000 0.81260  0.34070  0.45440  Biso   1.000  C
  H45      1.0000 0.28460  0.21590  0.92450  Biso   1.000  H
  H46      1.0000 0.21540  0.71590  0.57550  Biso   1.000  H
  H47      1.0000 0.71540  0.78410  0.07550  Biso   1.000  H
  H48      1.0000 0.78460  0.28410  0.42450  Biso   1.000  H
  C53      1.0000 0.28620  0.06230  0.92720  Biso   1.000  C
  C54      1.0000 0.21380  0.56230  0.57280  Biso   1.000  C
  C55      1.0000 0.71380  0.93770  0.07280  Biso   1.000  C
  C56      1.0000 0.78620  0.43770  0.42720  Biso   1.000  C
  H49      1.0000 0.24080  0.05470  0.87840  Biso   1.000  H
  H50      1.0000 0.25920  0.55470  0.62160  Biso   1.000  H
  H51      1.0000 0.75920  0.94530  0.12160  Biso   1.000  H
  H52      1.0000 0.74080  0.44530  0.37840  Biso   1.000  H
  C57      1.0000 0.32280  0.97810  0.96750  Biso   1.000  C
  C58      1.0000 0.17720  0.47810  0.53250  Biso   1.000  C
  C59      1.0000 0.67720  0.02190  0.03250  Biso   1.000  C
  C60      1.0000 0.82280  0.52190  0.46750  Biso   1.000  C
  H53      1.0000 0.30330  0.91240  0.94880  Biso   1.000  H
  H54      1.0000 0.19670  0.41240  0.55120  Biso   1.000  H
  H55      1.0000 0.69670  0.08760  0.05120  Biso   1.000  H
  H56      1.0000 0.80330  0.58760  0.44880  Biso   1.000  H
  C61      1.0000 0.39030  0.99390  0.03740  Biso   1.000  C
  C62      1.0000 0.10970  0.49390  0.46260  Biso   1.000  C
  C63      1.0000 0.60970  0.00610  0.96260  Biso   1.000  C
  C64      1.0000 0.89030  0.50610  0.53740  Biso   1.000  C
  C65      1.0000 0.68680  0.01100  0.32971  Biso   1.000  C
  C66      1.0000 0.81320  0.51100  0.17029  Biso   1.000  C
  C67      1.0000 0.31320  0.98900  0.67029  Biso   1.000  C
  C68      1.0000 0.18680  0.48900  0.82971  Biso   1.000  C
  H57      1.0000 0.70560  0.93970  0.34100  Biso   1.000  H
  H58      1.0000 0.79440  0.43970  0.15900  Biso   1.000  H
  H59      1.0000 0.29440  0.06030  0.65900  Biso   1.000  H
  H60      1.0000 0.20560  0.56030  0.84100  Biso   1.000  H
  H61      1.0000 0.68860  0.04590  0.37860  Biso   1.000  H
  H62      1.0000 0.81140  0.54590  0.12140  Biso   1.000  H
  H63      1.0000 0.31140  0.95410  0.62140  Biso   1.000  H
  H64      1.0000 0.18860  0.45410  0.87860  Biso   1.000  H
  C69      1.0000 0.75650  0.06080  0.28958  Biso   1.000  C
  C70      1.0000 0.74350  0.56080  0.21042  Biso   1.000  C
  C71      1.0000 0.24350  0.93920  0.71042  Biso   1.000  C
  C72      1.0000 0.25650  0.43920  0.78958  Biso   1.000  C
  C73      1.0000 0.80700  0.15990  0.21374  Biso   1.000  C
  C74      1.0000 0.69300  0.65990  0.28626  Biso   1.000  C
  C75      1.0000 0.19300  0.84010  0.78626  Biso   1.000  C
  C76      1.0000 0.30700  0.34010  0.71374  Biso   1.000  C
  C77      1.0000 0.81550  0.22760  0.15730  Biso   1.000  C
  C78      1.0000 0.68450  0.72760  0.34270  Biso   1.000  C
  C79      1.0000 0.18450  0.77240  0.84270  Biso   1.000  C
  C80      1.0000 0.31550  0.27240  0.65730  Biso   1.000  C
  H65      1.0000 0.75940  0.26220  0.12730  Biso   1.000  H
  H66      1.0000 0.74060  0.76220  0.37270  Biso   1.000  H
  H67      1.0000 0.24060  0.73780  0.87270  Biso   1.000  H
  H68      1.0000 0.25940  0.23780  0.62730  Biso   1.000  H
  C81      1.0000 0.90910  0.24300  0.14640  Biso   1.000  C
  C82      1.0000 0.59090  0.74300  0.35360  Biso   1.000  C
  C83      1.0000 0.09090  0.75700  0.85360  Biso   1.000  C
  C84      1.0000 0.40910  0.25700  0.64640  Biso   1.000  C
  H69      1.0000 0.91720  0.28700  0.10690  Biso   1.000  H
  H70      1.0000 0.58280  0.78700  0.39310  Biso   1.000  H
  H71      1.0000 0.08280  0.71300  0.89310  Biso   1.000  H
  H72      1.0000 0.41720  0.21300  0.60690  Biso   1.000  H
  C85      1.0000 0.99130  0.19490  0.19240  Biso   1.000  C
  C86      1.0000 0.50870  0.69490  0.30760  Biso   1.000  C
  C87      1.0000 0.00870  0.80510  0.80760  Biso   1.000  C
  C88      1.0000 0.49130  0.30510  0.69240  Biso   1.000  C
  H73      1.0000 0.05480  0.21010  0.18520  Biso   1.000  H
  H74      1.0000 0.44520  0.71010  0.31480  Biso   1.000  H
  H75      1.0000 0.94520  0.78990  0.81480  Biso   1.000  H
  H76      1.0000 0.55480  0.28990  0.68520  Biso   1.000  H
  C89      1.0000 0.98450  0.12620  0.24810  Biso   1.000  C
  C90      1.0000 0.51550  0.62620  0.25190  Biso   1.000  C
  C91      1.0000 0.01550  0.87380  0.75190  Biso   1.000  C
  C92      1.0000 0.48450  0.37380  0.74810  Biso   1.000  C
  H77      1.0000 0.04120  0.09290  0.27840  Biso   1.000  H
  H78      1.0000 0.45880  0.59290  0.22160  Biso   1.000  H
  H79      1.0000 0.95880  0.90710  0.72160  Biso   1.000  H
  H80      1.0000 0.54120  0.40710  0.77840  Biso   1.000  H
  C93      1.0000 0.89010  0.10820  0.25759  Biso   1.000  C
  C94      1.0000 0.60990  0.60820  0.24241  Biso   1.000  C
  C95      1.0000 0.10990  0.89180  0.74241  Biso   1.000  C
  C96      1.0000 0.39010  0.39180  0.75759  Biso   1.000  C
  C97      1.0000 0.90800  0.95960  0.34828  Biso   1.000  C
  C98      1.0000 0.59200  0.45960  0.15172  Biso   1.000  C
  C99      1.0000 0.09200  0.04040  0.65172  Biso   1.000  C
  C100     1.0000 0.40800  0.54040  0.84828  Biso   1.000  C
  H81      1.0000 0.88980  0.95250  0.39770  Biso   1.000  H
  H82      1.0000 0.61020  0.45250  0.10230  Biso   1.000  H
  H83      1.0000 0.11020  0.04750  0.60230  Biso   1.000  H
  H84      1.0000 0.38980  0.54750  0.89770  Biso   1.000  H
  H85      1.0000 0.98010  0.97210  0.35970  Biso   1.000  H
  H86      1.0000 0.51990  0.47210  0.14030  Biso   1.000  H
  H87      1.0000 0.01990  0.02790  0.64030  Biso   1.000  H
  H88      1.0000 0.48010  0.52790  0.85970  Biso   1.000  H
  C101     1.0000 0.88360  0.86070  0.30240  Biso   1.000  C
  C102     1.0000 0.61640  0.36070  0.19760  Biso   1.000  C
  C103     1.0000 0.11640  0.13930  0.69760  Biso   1.000  C
  C104     1.0000 0.38360  0.63930  0.80240  Biso   1.000  C
  O1       1.0000 0.94133  0.78849  0.32982  Biso   1.000  O
  O2       1.0000 0.55867  0.28849  0.17018  Biso   1.000  O
  O3       1.0000 0.05867  0.21151  0.67018  Biso   1.000  O
  O4       1.0000 0.44133  0.71151  0.82982  Biso   1.000  O
  O5       1.0000 0.81341  0.85968  0.24546  Biso   1.000  O
  O6       1.0000 0.68659  0.35968  0.25454  Biso   1.000  O
  O7       1.0000 0.18659  0.14032  0.75454  Biso   1.000  O
  O8       1.0000 0.31341  0.64032  0.74546  Biso   1.000  O
  S1       1.0000 0.24948  0.50074  0.04806  Biso   1.000  S
  S2       1.0000 0.25052  0.00074  0.45194  Biso   1.000  S
  S3       1.0000 0.75052  0.49926  0.95194  Biso   1.000  S
  S4       1.0000 0.74948  0.99926  0.54806  Biso   1.000  S
  C105     1.0000 0.24010  0.38560  0.09510  Biso   1.000  C
  C106     1.0000 0.25990  0.88560  0.40490  Biso   1.000  C
  C107     1.0000 0.75990  0.61440  0.90490  Biso   1.000  C
  C108     1.0000 0.74010  0.11440  0.59510  Biso   1.000  C
  C109     1.0000 0.29560  0.36900  0.16920  Biso   1.000  C
  C110     1.0000 0.20440  0.86900  0.33080  Biso   1.000  C
  C111     1.0000 0.70440  0.63100  0.83080  Biso   1.000  C
  C112     1.0000 0.79560  0.13100  0.66920  Biso   1.000  C
  H89      1.0000 0.33500  0.42130  0.19740  Biso   1.000  H
  H90      1.0000 0.16500  0.92130  0.30260  Biso   1.000  H
  H91      1.0000 0.66500  0.57870  0.80260  Biso   1.000  H
  H92      1.0000 0.83500  0.07870  0.69740  Biso   1.000  H
  C113     1.0000 0.29290  0.27580  0.20160  Biso   1.000  C
  C114     1.0000 0.20710  0.77580  0.29840  Biso   1.000  C
  C115     1.0000 0.70710  0.72420  0.79840  Biso   1.000  C
  C116     1.0000 0.79290  0.22420  0.70160  Biso   1.000  C
  H93      1.0000 0.33000  0.26570  0.25300  Biso   1.000  H
  H94      1.0000 0.17000  0.76570  0.24700  Biso   1.000  H
  H95      1.0000 0.67000  0.73430  0.74700  Biso   1.000  H
  H96      1.0000 0.83000  0.23430  0.75300  Biso   1.000  H
  C117     1.0000 0.23920  0.19610  0.16330  Biso   1.000  C
  C118     1.0000 0.26080  0.69610  0.33670  Biso   1.000  C
  C119     1.0000 0.76080  0.80390  0.83670  Biso   1.000  C
  C120     1.0000 0.73920  0.30390  0.66330  Biso   1.000  C
  C121     1.0000 0.18100  0.21530  0.08870  Biso   1.000  C
  C122     1.0000 0.31900  0.71530  0.41130  Biso   1.000  C
  C123     1.0000 0.81900  0.78470  0.91130  Biso   1.000  C
  C124     1.0000 0.68100  0.28470  0.58870  Biso   1.000  C
  H97      1.0000 0.14090  0.16320  0.06090  Biso   1.000  H
  H98      1.0000 0.35910  0.66320  0.43910  Biso   1.000  H
  H99      1.0000 0.85910  0.83680  0.93910  Biso   1.000  H
  H100     1.0000 0.64090  0.33680  0.56090  Biso   1.000  H
  C125     1.0000 0.18130  0.30890  0.05520  Biso   1.000  C
  C126     1.0000 0.31870  0.80890  0.44480  Biso   1.000  C
  C127     1.0000 0.81870  0.69110  0.94480  Biso   1.000  C
  C128     1.0000 0.68130  0.19110  0.55520  Biso   1.000  C
  H101     1.0000 0.14130  0.32070  0.00490  Biso   1.000  H
  H102     1.0000 0.35870  0.82070  0.49510  Biso   1.000  H
  H103     1.0000 0.85870  0.67930  0.99510  Biso   1.000  H
  H104     1.0000 0.64130  0.17930  0.50490  Biso   1.000  H
  C129     1.0000 0.24430  0.09350  0.19840  Biso   1.000  C
  C130     1.0000 0.25570  0.59350  0.30160  Biso   1.000  C
  C131     1.0000 0.75570  0.90650  0.80160  Biso   1.000  C
  C132     1.0000 0.74430  0.40650  0.69840  Biso   1.000  C
  H105     1.0000 0.28690  0.05010  0.17640  Biso   1.000  H
  H106     1.0000 0.21310  0.55010  0.32360  Biso   1.000  H
  H107     1.0000 0.71310  0.94990  0.82360  Biso   1.000  H
  H108     1.0000 0.78690  0.44990  0.67640  Biso   1.000  H
  H109     1.0000 0.17770  0.06450  0.18780  Biso   1.000  H
  H110     1.0000 0.32230  0.56450  0.31220  Biso   1.000  H
  H111     1.0000 0.82230  0.93550  0.81220  Biso   1.000  H
  H112     1.0000 0.67770  0.43550  0.68780  Biso   1.000  H
  H113     1.0000 0.27180  0.09860  0.25400  Biso   1.000  H
  H114     1.0000 0.22820  0.59860  0.24600  Biso   1.000  H
  H115     1.0000 0.72820  0.90140  0.74600  Biso   1.000  H
  H116     1.0000 0.77180  0.40140  0.75400  Biso   1.000  H
  O9       1.0000 0.29193  0.57344  0.10845  Biso   1.000  O
  O10      1.0000 0.20807  0.07344  0.39155  Biso   1.000  O
  O11      1.0000 0.70807  0.42656  0.89155  Biso   1.000  O
  O12      1.0000 0.79193  0.92656  0.60845  Biso   1.000  O
  O13      1.0000 0.14734  0.52769  0.00624  Biso   1.000  O
  O14      1.0000 0.35266  0.02769  0.49376  Biso   1.000  O
  O15      1.0000 0.85266  0.47231  0.99376  Biso   1.000  O
  O16      1.0000 0.64734  0.97231  0.50624  Biso   1.000  O
  O17      1.0000 0.31243  0.47992  0.99692  Biso   1.000  O
  O18      1.0000 0.18757  0.97992  0.50308  Biso   1.000  O
  O19      1.0000 0.68757  0.52008  0.00308  Biso   1.000  O
  O20      1.0000 0.81243  0.02008  0.49692  Biso   1.000  O
  C133     1.0000 0.46340  0.67620  0.03690  Biso   1.000  C
  C134     1.0000 0.03660  0.17620  0.46310  Biso   1.000  C
  C135     1.0000 0.53660  0.32380  0.96310  Biso   1.000  C
  C136     1.0000 0.96340  0.82380  0.53690  Biso   1.000  C
  H117     1.0000 0.45360  0.69900  0.98380  Biso   1.000  H
  H118     1.0000 0.04640  0.19900  0.51620  Biso   1.000  H
  H119     1.0000 0.54640  0.30100  0.01620  Biso   1.000  H
  H120     1.0000 0.95360  0.80100  0.48380  Biso   1.000  H
  H121     1.0000 0.44940  0.60390  0.03740  Biso   1.000  H
  H122     1.0000 0.05060  0.10390  0.46260  Biso   1.000  H
  H123     1.0000 0.55060  0.39610  0.96260  Biso   1.000  H
  H124     1.0000 0.94940  0.89610  0.53740  Biso   1.000  H
  H125     1.0000 0.53200  0.68880  0.06530  Biso   1.000  H
  H126     1.0000 0.96800  0.18880  0.43470  Biso   1.000  H
  H127     1.0000 0.46800  0.31120  0.93470  Biso   1.000  H
  H128     1.0000 0.03200  0.81120  0.56530  Biso   1.000  H
  O21      1.0000 0.39990  0.72820  0.07110  Biso   1.000  O
  O22      1.0000 0.10010  0.22820  0.42890  Biso   1.000  O
  O23      1.0000 0.60010  0.27180  0.92890  Biso   1.000  O
  O24      1.0000 0.89990  0.77180  0.57110  Biso   1.000  O
  H129     1.0000 0.36190  0.68730  0.08500  Biso   1.000  H
  H130     1.0000 0.13810  0.18730  0.41500  Biso   1.000  H
  H131     1.0000 0.63810  0.31270  0.91500  Biso   1.000  H
  H132     1.0000 0.86190  0.81270  0.58500  Biso   1.000  H
