data_image0
_cell_length_a       5.2319
_cell_length_b       16.2576
_cell_length_c       9.6044
_cell_angle_alpha    90
_cell_angle_beta     96.53
_cell_angle_gamma    90

_symmetry_space_group_name_H-M    "P 1"
_symmetry_int_tables_number       1

loop_
  _symmetry_equiv_pos_as_xyz
  'x, y, z'

loop_
  _atom_site_label
  _atom_site_occupancy
  _atom_site_fract_x
  _atom_site_fract_y
  _atom_site_fract_z
  _atom_site_thermal_displace_type
  _atom_site_B_iso_or_equiv
  _atom_site_type_symbol
  Cu1      1.0000 0.36104  0.20165  0.75965  Biso   1.000  Cu
  Cu2      1.0000 0.36104  0.79835  0.25965  Biso   1.000  Cu
  O1       1.0000 0.58280  0.26310  0.64720  Biso   1.000  O
  O2       1.0000 0.58280  0.73690  0.14720  Biso   1.000  O
  O3       1.0000 0.09570  0.14680  0.85870  Biso   1.000  O
  O4       1.0000 0.09570  0.85320  0.35870  Biso   1.000  O
  O5       1.0000 0.72460  0.17480  0.94300  Biso   1.000  O
  O6       1.0000 0.72460  0.82520  0.44300  Biso   1.000  O
  O7       1.0000 0.25750  0.32560  0.36470  Biso   1.000  O
  O8       1.0000 0.25750  0.67440  0.86470  Biso   1.000  O
  O9       1.0000 0.52980  0.21840  0.37670  Biso   1.000  O
  O10      1.0000 0.52980  0.78160  0.87670  Biso   1.000  O
  H1       1.0000 0.57600  0.23710  0.45720  Biso   1.000  H
  H2       1.0000 0.57600  0.76290  0.95720  Biso   1.000  H
  N1       1.0000 0.23190  0.30070  0.84150  Biso   1.000  N
  N2       1.0000 0.23190  0.69930  0.34150  Biso   1.000  N
  N3       1.0000 0.41450  0.09650  0.66330  Biso   1.000  N
  N4       1.0000 0.41450  0.90350  0.16330  Biso   1.000  N
  N5       1.0000 0.33450  0.98580  0.53660  Biso   1.000  N
  N6       1.0000 0.33450  0.01420  0.03660  Biso   1.000  N
  H3       1.0000 0.26250  0.95230  0.47150  Biso   1.000  H
  H4       1.0000 0.26250  0.04770  0.97150  Biso   1.000  H
  C1       1.0000 0.28420  0.37520  0.81160  Biso   1.000  C
  C2       1.0000 0.28420  0.62480  0.31160  Biso   1.000  C
  H5       1.0000 0.18880  0.41750  0.85030  Biso   1.000  H
  H6       1.0000 0.18880  0.58250  0.35030  Biso   1.000  H
  C3       1.0000 0.47890  0.40010  0.72270  Biso   1.000  C
  C4       1.0000 0.47890  0.59990  0.22270  Biso   1.000  C
  C5       1.0000 0.51740  0.48550  0.71170  Biso   1.000  C
  C6       1.0000 0.51740  0.51450  0.21170  Biso   1.000  C
  H7       1.0000 0.42160  0.52220  0.76250  Biso   1.000  H
  H8       1.0000 0.42160  0.47780  0.26250  Biso   1.000  H
  C7       1.0000 0.69070  0.51620  0.62870  Biso   1.000  C
  C8       1.0000 0.69070  0.48380  0.12870  Biso   1.000  C
  H9       1.0000 0.71640  0.57380  0.62130  Biso   1.000  H
  H10      1.0000 0.71640  0.42620  0.12130  Biso   1.000  H
  C9       1.0000 0.82880  0.46090  0.55520  Biso   1.000  C
  C10      1.0000 0.82880  0.53910  0.05520  Biso   1.000  C
  H11      1.0000 0.95040  0.48150  0.49770  Biso   1.000  H
  H12      1.0000 0.95040  0.51850  0.99770  Biso   1.000  H
  C11      1.0000 0.79330  0.37650  0.56390  Biso   1.000  C
  C12      1.0000 0.79330  0.62350  0.06390  Biso   1.000  C
  H13      1.0000 0.89220  0.34050  0.51350  Biso   1.000  H
  H14      1.0000 0.89220  0.65950  0.01350  Biso   1.000  H
  C13      1.0000 0.61430  0.34420  0.64580  Biso   1.000  C
  C14      1.0000 0.61430  0.65580  0.14580  Biso   1.000  C
  C15      1.0000 0.01890  0.28560  0.92710  Biso   1.000  C
  C16      1.0000 0.01890  0.71440  0.42710  Biso   1.000  C
  H15      1.0000 0.87100  0.32190  0.89230  Biso   1.000  H
  H16      1.0000 0.87100  0.67810  0.39230  Biso   1.000  H
  C17      1.0000 0.09560  0.30360  0.08490  Biso   1.000  C
  C18      1.0000 0.09560  0.69640  0.58490  Biso   1.000  C
  H17      1.0000 0.15820  0.36100  0.09490  Biso   1.000  H
  H18      1.0000 0.15820  0.63900  0.59490  Biso   1.000  H
  H19      1.0000 0.94010  0.29930  0.13430  Biso   1.000  H
  H20      1.0000 0.94010  0.70070  0.63430  Biso   1.000  H
  C19      1.0000 0.30080  0.24700  0.15580  Biso   1.000  C
  C20      1.0000 0.30080  0.75300  0.65580  Biso   1.000  C
  H21      1.0000 0.24100  0.18930  0.14640  Biso   1.000  H
  H22      1.0000 0.24100  0.81070  0.64640  Biso   1.000  H
  H23      1.0000 0.45960  0.25210  0.10940  Biso   1.000  H
  H24      1.0000 0.45960  0.74790  0.60940  Biso   1.000  H
  C21      1.0000 0.35890  0.26850  0.30950  Biso   1.000  C
  C22      1.0000 0.35890  0.73150  0.80950  Biso   1.000  C
  C23      1.0000 0.93370  0.19570  0.90810  Biso   1.000  C
  C24      1.0000 0.93370  0.80430  0.40810  Biso   1.000  C
  C25      1.0000 0.59070  0.03640  0.70990  Biso   1.000  C
  C26      1.0000 0.59070  0.96360  0.20990  Biso   1.000  C
  H25      1.0000 0.72460  0.04220  0.78480  Biso   1.000  H
  H26      1.0000 0.72460  0.95780  0.28480  Biso   1.000  H
  C27      1.0000 0.54100  0.96790  0.63110  Biso   1.000  C
  C28      1.0000 0.54100  0.03210  0.13110  Biso   1.000  C
  H27      1.0000 0.63220  0.91730  0.64010  Biso   1.000  H
  H28      1.0000 0.63220  0.08270  0.14010  Biso   1.000  H
  C29      1.0000 0.25850  0.06370  0.55960  Biso   1.000  C
  C30      1.0000 0.25850  0.93630  0.05960  Biso   1.000  C
  C31      1.0000 0.03930  0.10460  0.47580  Biso   1.000  C
  C32      1.0000 0.03930  0.89540  0.97580  Biso   1.000  C
  H29      1.0000 0.03410  0.16270  0.50250  Biso   1.000  H
  H30      1.0000 0.03410  0.83730  0.00250  Biso   1.000  H
  H31      1.0000 0.87840  0.07780  0.49350  Biso   1.000  H
  H32      1.0000 0.87840  0.92220  0.99350  Biso   1.000  H
  H33      1.0000 0.06040  0.10030  0.37600  Biso   1.000  H
  H34      1.0000 0.06040  0.89970  0.87600  Biso   1.000  H
