data_image0
_cell_length_a       24.7325
_cell_length_b       12.9895
_cell_length_c       20.3885
_cell_angle_alpha    90
_cell_angle_beta     105.252
_cell_angle_gamma    90

_symmetry_space_group_name_H-M    "P 1"
_symmetry_int_tables_number       1

loop_
  _symmetry_equiv_pos_as_xyz
  'x, y, z'

loop_
  _atom_site_label
  _atom_site_occupancy
  _atom_site_fract_x
  _atom_site_fract_y
  _atom_site_fract_z
  _atom_site_thermal_displace_type
  _atom_site_B_iso_or_equiv
  _atom_site_type_symbol
  Cu1      1.0000 0.67976  0.55304  0.63672  Biso   1.000  Cu
  Cu2      1.0000 0.32024  0.55304  0.86328  Biso   1.000  Cu
  Cu3      1.0000 0.17976  0.05304  0.63672  Biso   1.000  Cu
  Cu4      1.0000 0.82024  0.05304  0.86328  Biso   1.000  Cu
  Cu5      1.0000 0.32024  0.44696  0.36328  Biso   1.000  Cu
  Cu6      1.0000 0.67976  0.44696  0.13672  Biso   1.000  Cu
  Cu7      1.0000 0.82024  0.94696  0.36328  Biso   1.000  Cu
  Cu8      1.0000 0.17976  0.94696  0.13672  Biso   1.000  Cu
  N1       1.0000 0.65123  0.69990  0.66617  Biso   1.000  N
  N2       1.0000 0.34877  0.69990  0.83383  Biso   1.000  N
  N3       1.0000 0.15123  0.19990  0.66617  Biso   1.000  N
  N4       1.0000 0.84877  0.19990  0.83383  Biso   1.000  N
  N5       1.0000 0.34877  0.30010  0.33383  Biso   1.000  N
  N6       1.0000 0.65123  0.30010  0.16617  Biso   1.000  N
  N7       1.0000 0.84877  0.80010  0.33383  Biso   1.000  N
  N8       1.0000 0.15123  0.80010  0.16617  Biso   1.000  N
  N9       1.0000 0.68626  0.64870  0.55449  Biso   1.000  N
  N10      1.0000 0.31374  0.64870  0.94551  Biso   1.000  N
  N11      1.0000 0.18626  0.14870  0.55449  Biso   1.000  N
  N12      1.0000 0.81374  0.14870  0.94551  Biso   1.000  N
  N13      1.0000 0.31374  0.35130  0.44551  Biso   1.000  N
  N14      1.0000 0.68626  0.35130  0.05449  Biso   1.000  N
  N15      1.0000 0.81374  0.85130  0.44551  Biso   1.000  N
  N16      1.0000 0.18626  0.85130  0.05449  Biso   1.000  N
  N17      1.0000 0.67987  0.80700  0.51365  Biso   1.000  N
  N18      1.0000 0.32013  0.80700  0.98635  Biso   1.000  N
  N19      1.0000 0.17987  0.30700  0.51365  Biso   1.000  N
  N20      1.0000 0.82013  0.30700  0.98635  Biso   1.000  N
  N21      1.0000 0.32013  0.19300  0.48635  Biso   1.000  N
  N22      1.0000 0.67987  0.19300  0.01365  Biso   1.000  N
  N23      1.0000 0.82013  0.69300  0.48635  Biso   1.000  N
  N24      1.0000 0.17987  0.69300  0.01365  Biso   1.000  N
  H1       1.0000 0.67710  0.87450  0.51260  Biso   1.000  H
  H2       1.0000 0.32290  0.87450  0.98740  Biso   1.000  H
  H3       1.0000 0.17710  0.37450  0.51260  Biso   1.000  H
  H4       1.0000 0.82290  0.37450  0.98740  Biso   1.000  H
  H5       1.0000 0.32290  0.12550  0.48740  Biso   1.000  H
  H6       1.0000 0.67710  0.12550  0.01260  Biso   1.000  H
  H7       1.0000 0.82290  0.62550  0.48740  Biso   1.000  H
  H8       1.0000 0.17710  0.62550  0.01260  Biso   1.000  H
  N25      1.0000 0.59689  0.52450  0.61228  Biso   1.000  N
  N26      1.0000 0.40311  0.52450  0.88772  Biso   1.000  N
  N27      1.0000 0.09689  0.02450  0.61228  Biso   1.000  N
  N28      1.0000 0.90311  0.02450  0.88772  Biso   1.000  N
  N29      1.0000 0.40311  0.47550  0.38772  Biso   1.000  N
  N30      1.0000 0.59689  0.47550  0.11228  Biso   1.000  N
  N31      1.0000 0.90311  0.97550  0.38772  Biso   1.000  N
  N32      1.0000 0.09689  0.97550  0.11228  Biso   1.000  N
  N33      1.0000 0.51124  0.57950  0.60376  Biso   1.000  N
  N34      1.0000 0.48876  0.57950  0.89624  Biso   1.000  N
  N35      1.0000 0.01124  0.07950  0.60376  Biso   1.000  N
  N36      1.0000 0.98876  0.07950  0.89624  Biso   1.000  N
  N37      1.0000 0.48876  0.42050  0.39624  Biso   1.000  N
  N38      1.0000 0.51124  0.42050  0.10376  Biso   1.000  N
  N39      1.0000 0.98876  0.92050  0.39624  Biso   1.000  N
  N40      1.0000 0.01124  0.92050  0.10376  Biso   1.000  N
  H9       1.0000 0.48370  0.62160  0.60540  Biso   1.000  H
  H10      1.0000 0.51630  0.62160  0.89460  Biso   1.000  H
  H11      1.0000 0.98370  0.12160  0.60540  Biso   1.000  H
  H12      1.0000 0.01630  0.12160  0.89460  Biso   1.000  H
  H13      1.0000 0.51630  0.37840  0.39460  Biso   1.000  H
  H14      1.0000 0.48370  0.37840  0.10540  Biso   1.000  H
  H15      1.0000 0.01630  0.87840  0.39460  Biso   1.000  H
  H16      1.0000 0.98370  0.87840  0.10540  Biso   1.000  H
  N41      1.0000 0.74116  0.58820  0.72053  Biso   1.000  N
  N42      1.0000 0.25884  0.58820  0.77947  Biso   1.000  N
  N43      1.0000 0.24116  0.08820  0.72053  Biso   1.000  N
  N44      1.0000 0.75884  0.08820  0.77947  Biso   1.000  N
  N45      1.0000 0.25884  0.41180  0.27947  Biso   1.000  N
  N46      1.0000 0.74116  0.41180  0.22053  Biso   1.000  N
  N47      1.0000 0.75884  0.91180  0.27947  Biso   1.000  N
  N48      1.0000 0.24116  0.91180  0.22053  Biso   1.000  N
  N49      1.0000 0.76519  0.66500  0.82175  Biso   1.000  N
  N50      1.0000 0.23481  0.66500  0.67825  Biso   1.000  N
  N51      1.0000 0.26519  0.16500  0.82175  Biso   1.000  N
  N52      1.0000 0.73481  0.16500  0.67825  Biso   1.000  N
  N53      1.0000 0.23481  0.33500  0.17825  Biso   1.000  N
  N54      1.0000 0.76519  0.33500  0.32175  Biso   1.000  N
  N55      1.0000 0.73481  0.83500  0.17825  Biso   1.000  N
  N56      1.0000 0.26519  0.83500  0.32175  Biso   1.000  N
  C1       1.0000 0.67968  0.78180  0.63666  Biso   1.000  C
  C2       1.0000 0.32032  0.78180  0.86334  Biso   1.000  C
  C3       1.0000 0.17968  0.28180  0.63666  Biso   1.000  C
  C4       1.0000 0.82032  0.28180  0.86334  Biso   1.000  C
  C5       1.0000 0.32032  0.21820  0.36334  Biso   1.000  C
  C6       1.0000 0.67968  0.21820  0.13666  Biso   1.000  C
  C7       1.0000 0.82032  0.71820  0.36334  Biso   1.000  C
  C8       1.0000 0.17968  0.71820  0.13666  Biso   1.000  C
  H17      1.0000 0.71800  0.79330  0.66590  Biso   1.000  H
  H18      1.0000 0.28200  0.79330  0.83410  Biso   1.000  H
  H19      1.0000 0.21800  0.29330  0.66590  Biso   1.000  H
  H20      1.0000 0.78200  0.29330  0.83410  Biso   1.000  H
  H21      1.0000 0.28200  0.20670  0.33410  Biso   1.000  H
  H22      1.0000 0.71800  0.20670  0.16590  Biso   1.000  H
  H23      1.0000 0.78200  0.70670  0.33410  Biso   1.000  H
  H24      1.0000 0.21800  0.70670  0.16590  Biso   1.000  H
  H25      1.0000 0.65860  0.84720  0.63330  Biso   1.000  H
  H26      1.0000 0.34140  0.84720  0.86670  Biso   1.000  H
  H27      1.0000 0.15860  0.34720  0.63330  Biso   1.000  H
  H28      1.0000 0.84140  0.34720  0.86670  Biso   1.000  H
  H29      1.0000 0.34140  0.15280  0.36670  Biso   1.000  H
  H30      1.0000 0.65860  0.15280  0.13330  Biso   1.000  H
  H31      1.0000 0.84140  0.65280  0.36670  Biso   1.000  H
  H32      1.0000 0.15860  0.65280  0.13330  Biso   1.000  H
  C9       1.0000 0.68208  0.74700  0.56711  Biso   1.000  C
  C10      1.0000 0.31792  0.74700  0.93289  Biso   1.000  C
  C11      1.0000 0.18208  0.24700  0.56711  Biso   1.000  C
  C12      1.0000 0.81792  0.24700  0.93289  Biso   1.000  C
  C13      1.0000 0.31792  0.25300  0.43289  Biso   1.000  C
  C14      1.0000 0.68208  0.25300  0.06711  Biso   1.000  C
  C15      1.0000 0.81792  0.75300  0.43289  Biso   1.000  C
  C16      1.0000 0.18208  0.75300  0.06711  Biso   1.000  C
  C17      1.0000 0.68712  0.64470  0.48645  Biso   1.000  C
  C18      1.0000 0.31288  0.64470  0.01355  Biso   1.000  C
  C19      1.0000 0.18712  0.14470  0.48645  Biso   1.000  C
  C20      1.0000 0.81288  0.14470  0.01355  Biso   1.000  C
  C21      1.0000 0.31288  0.35530  0.51355  Biso   1.000  C
  C22      1.0000 0.68712  0.35530  0.98645  Biso   1.000  C
  C23      1.0000 0.81288  0.85530  0.51355  Biso   1.000  C
  C24      1.0000 0.18712  0.85530  0.98645  Biso   1.000  C
  C25      1.0000 0.68888  0.56060  0.44430  Biso   1.000  C
  C26      1.0000 0.31112  0.56060  0.05570  Biso   1.000  C
  C27      1.0000 0.18888  0.06060  0.44430  Biso   1.000  C
  C28      1.0000 0.81112  0.06060  0.05570  Biso   1.000  C
  C29      1.0000 0.31112  0.43940  0.55570  Biso   1.000  C
  C30      1.0000 0.68888  0.43940  0.94430  Biso   1.000  C
  C31      1.0000 0.81112  0.93940  0.55570  Biso   1.000  C
  C32      1.0000 0.18888  0.93940  0.94430  Biso   1.000  C
  H33      1.0000 0.69170  0.49180  0.46070  Biso   1.000  H
  H34      1.0000 0.30830  0.49180  0.03930  Biso   1.000  H
  H35      1.0000 0.19170  0.99180  0.46070  Biso   1.000  H
  H36      1.0000 0.80830  0.99180  0.03930  Biso   1.000  H
  H37      1.0000 0.30830  0.50820  0.53930  Biso   1.000  H
  H38      1.0000 0.69170  0.50820  0.96070  Biso   1.000  H
  H39      1.0000 0.80830  0.00820  0.53930  Biso   1.000  H
  H40      1.0000 0.19170  0.00820  0.96070  Biso   1.000  H
  C33      1.0000 0.68630  0.58380  0.37670  Biso   1.000  C
  C34      1.0000 0.31370  0.58380  0.12330  Biso   1.000  C
  C35      1.0000 0.18630  0.08380  0.37670  Biso   1.000  C
  C36      1.0000 0.81370  0.08380  0.12330  Biso   1.000  C
  C37      1.0000 0.31370  0.41620  0.62330  Biso   1.000  C
  C38      1.0000 0.68630  0.41620  0.87670  Biso   1.000  C
  C39      1.0000 0.81370  0.91620  0.62330  Biso   1.000  C
  C40      1.0000 0.18630  0.91620  0.87670  Biso   1.000  C
  H41      1.0000 0.68750  0.52850  0.34660  Biso   1.000  H
  H42      1.0000 0.31250  0.52850  0.15340  Biso   1.000  H
  H43      1.0000 0.18750  0.02850  0.34660  Biso   1.000  H
  H44      1.0000 0.81250  0.02850  0.15340  Biso   1.000  H
  H45      1.0000 0.31250  0.47150  0.65340  Biso   1.000  H
  H46      1.0000 0.68750  0.47150  0.84660  Biso   1.000  H
  H47      1.0000 0.81250  0.97150  0.65340  Biso   1.000  H
  H48      1.0000 0.18750  0.97150  0.84660  Biso   1.000  H
  C41      1.0000 0.68214  0.68220  0.35140  Biso   1.000  C
  C42      1.0000 0.31786  0.68220  0.14860  Biso   1.000  C
  C43      1.0000 0.18214  0.18220  0.35140  Biso   1.000  C
  C44      1.0000 0.81786  0.18220  0.14860  Biso   1.000  C
  C45      1.0000 0.31786  0.31780  0.64860  Biso   1.000  C
  C46      1.0000 0.68214  0.31780  0.85140  Biso   1.000  C
  C47      1.0000 0.81786  0.81780  0.64860  Biso   1.000  C
  C48      1.0000 0.18214  0.81780  0.85140  Biso   1.000  C
  H49      1.0000 0.68040  0.69290  0.30480  Biso   1.000  H
  H50      1.0000 0.31960  0.69290  0.19520  Biso   1.000  H
  H51      1.0000 0.18040  0.19290  0.30480  Biso   1.000  H
  H52      1.0000 0.81960  0.19290  0.19520  Biso   1.000  H
  H53      1.0000 0.31960  0.30710  0.69520  Biso   1.000  H
  H54      1.0000 0.68040  0.30710  0.80480  Biso   1.000  H
  H55      1.0000 0.81960  0.80710  0.69520  Biso   1.000  H
  H56      1.0000 0.18040  0.80710  0.80480  Biso   1.000  H
  C49      1.0000 0.68050  0.76430  0.39160  Biso   1.000  C
  C50      1.0000 0.31950  0.76430  0.10840  Biso   1.000  C
  C51      1.0000 0.18050  0.26430  0.39160  Biso   1.000  C
  C52      1.0000 0.81950  0.26430  0.10840  Biso   1.000  C
  C53      1.0000 0.31950  0.23570  0.60840  Biso   1.000  C
  C54      1.0000 0.68050  0.23570  0.89160  Biso   1.000  C
  C55      1.0000 0.81950  0.73570  0.60840  Biso   1.000  C
  C56      1.0000 0.18050  0.73570  0.89160  Biso   1.000  C
  H57      1.0000 0.67800  0.83250  0.37430  Biso   1.000  H
  H58      1.0000 0.32200  0.83250  0.12570  Biso   1.000  H
  H59      1.0000 0.17800  0.33250  0.37430  Biso   1.000  H
  H60      1.0000 0.82200  0.33250  0.12570  Biso   1.000  H
  H61      1.0000 0.32200  0.16750  0.62570  Biso   1.000  H
  H62      1.0000 0.67800  0.16750  0.87430  Biso   1.000  H
  H63      1.0000 0.82200  0.66750  0.62570  Biso   1.000  H
  H64      1.0000 0.17800  0.66750  0.87430  Biso   1.000  H
  C57      1.0000 0.68267  0.74460  0.46055  Biso   1.000  C
  C58      1.0000 0.31733  0.74460  0.03945  Biso   1.000  C
  C59      1.0000 0.18267  0.24460  0.46055  Biso   1.000  C
  C60      1.0000 0.81733  0.24460  0.03945  Biso   1.000  C
  C61      1.0000 0.31733  0.25540  0.53945  Biso   1.000  C
  C62      1.0000 0.68267  0.25540  0.96055  Biso   1.000  C
  C63      1.0000 0.81733  0.75540  0.53945  Biso   1.000  C
  C64      1.0000 0.18267  0.75540  0.96055  Biso   1.000  C
  C65      1.0000 0.58885  0.70690  0.63937  Biso   1.000  C
  C66      1.0000 0.41115  0.70690  0.86063  Biso   1.000  C
  C67      1.0000 0.08885  0.20690  0.63937  Biso   1.000  C
  C68      1.0000 0.91115  0.20690  0.86063  Biso   1.000  C
  C69      1.0000 0.41115  0.29310  0.36063  Biso   1.000  C
  C70      1.0000 0.58885  0.29310  0.13937  Biso   1.000  C
  C71      1.0000 0.91115  0.79310  0.36063  Biso   1.000  C
  C72      1.0000 0.08885  0.79310  0.13937  Biso   1.000  C
  H65      1.0000 0.57240  0.73570  0.67470  Biso   1.000  H
  H66      1.0000 0.42760  0.73570  0.82530  Biso   1.000  H
  H67      1.0000 0.07240  0.23570  0.67470  Biso   1.000  H
  H68      1.0000 0.92760  0.23570  0.82530  Biso   1.000  H
  H69      1.0000 0.42760  0.26430  0.32530  Biso   1.000  H
  H70      1.0000 0.57240  0.26430  0.17470  Biso   1.000  H
  H71      1.0000 0.92760  0.76430  0.32530  Biso   1.000  H
  H72      1.0000 0.07240  0.76430  0.17470  Biso   1.000  H
  H73      1.0000 0.57920  0.75320  0.59940  Biso   1.000  H
  H74      1.0000 0.42080  0.75320  0.90060  Biso   1.000  H
  H75      1.0000 0.07920  0.25320  0.59940  Biso   1.000  H
  H76      1.0000 0.92080  0.25320  0.90060  Biso   1.000  H
  H77      1.0000 0.42080  0.24680  0.40060  Biso   1.000  H
  H78      1.0000 0.57920  0.24680  0.09940  Biso   1.000  H
  H79      1.0000 0.92080  0.74680  0.40060  Biso   1.000  H
  H80      1.0000 0.07920  0.74680  0.09940  Biso   1.000  H
  C73      1.0000 0.56594  0.60350  0.61982  Biso   1.000  C
  C74      1.0000 0.43406  0.60350  0.88018  Biso   1.000  C
  C75      1.0000 0.06594  0.10350  0.61982  Biso   1.000  C
  C76      1.0000 0.93406  0.10350  0.88018  Biso   1.000  C
  C77      1.0000 0.43406  0.39650  0.38018  Biso   1.000  C
  C78      1.0000 0.56594  0.39650  0.11982  Biso   1.000  C
  C79      1.0000 0.93406  0.89650  0.38018  Biso   1.000  C
  C80      1.0000 0.06594  0.89650  0.11982  Biso   1.000  C
  C81      1.0000 0.56015  0.44270  0.58953  Biso   1.000  C
  C82      1.0000 0.43985  0.44270  0.91047  Biso   1.000  C
  C83      1.0000 0.06015  0.94270  0.58953  Biso   1.000  C
  C84      1.0000 0.93985  0.94270  0.91047  Biso   1.000  C
  C85      1.0000 0.43985  0.55730  0.41047  Biso   1.000  C
  C86      1.0000 0.56015  0.55730  0.08953  Biso   1.000  C
  C87      1.0000 0.93985  0.05730  0.41047  Biso   1.000  C
  C88      1.0000 0.06015  0.05730  0.08953  Biso   1.000  C
  C89      1.0000 0.56844  0.34280  0.57208  Biso   1.000  C
  C90      1.0000 0.43156  0.34280  0.92792  Biso   1.000  C
  C91      1.0000 0.06844  0.84280  0.57208  Biso   1.000  C
  C92      1.0000 0.93156  0.84280  0.92792  Biso   1.000  C
  C93      1.0000 0.43156  0.65720  0.42792  Biso   1.000  C
  C94      1.0000 0.56844  0.65720  0.07208  Biso   1.000  C
  C95      1.0000 0.93156  0.15720  0.42792  Biso   1.000  C
  C96      1.0000 0.06844  0.15720  0.07208  Biso   1.000  C
  H81      1.0000 0.60500  0.31840  0.57370  Biso   1.000  H
  H82      1.0000 0.39500  0.31840  0.92630  Biso   1.000  H
  H83      1.0000 0.10500  0.81840  0.57370  Biso   1.000  H
  H84      1.0000 0.89500  0.81840  0.92630  Biso   1.000  H
  H85      1.0000 0.39500  0.68160  0.42630  Biso   1.000  H
  H86      1.0000 0.60500  0.68160  0.07370  Biso   1.000  H
  H87      1.0000 0.89500  0.18160  0.42630  Biso   1.000  H
  H88      1.0000 0.10500  0.18160  0.07370  Biso   1.000  H
  C97      1.0000 0.52290  0.27940  0.55230  Biso   1.000  C
  C98      1.0000 0.47710  0.27940  0.94770  Biso   1.000  C
  C99      1.0000 0.02290  0.77940  0.55230  Biso   1.000  C
  C100     1.0000 0.97710  0.77940  0.94770  Biso   1.000  C
  C101     1.0000 0.47710  0.72060  0.44770  Biso   1.000  C
  C102     1.0000 0.52290  0.72060  0.05230  Biso   1.000  C
  C103     1.0000 0.97710  0.22060  0.44770  Biso   1.000  C
  C104     1.0000 0.02290  0.22060  0.05230  Biso   1.000  C
  H89      1.0000 0.52790  0.21030  0.53980  Biso   1.000  H
  H90      1.0000 0.47210  0.21030  0.96020  Biso   1.000  H
  H91      1.0000 0.02790  0.71030  0.53980  Biso   1.000  H
  H92      1.0000 0.97210  0.71030  0.96020  Biso   1.000  H
  H93      1.0000 0.47210  0.78970  0.46020  Biso   1.000  H
  H94      1.0000 0.52790  0.78970  0.03980  Biso   1.000  H
  H95      1.0000 0.97210  0.28970  0.46020  Biso   1.000  H
  H96      1.0000 0.02790  0.28970  0.03980  Biso   1.000  H
  C105     1.0000 0.46868  0.31530  0.55016  Biso   1.000  C
  C106     1.0000 0.53132  0.31530  0.94984  Biso   1.000  C
  C107     1.0000 0.96868  0.81530  0.55016  Biso   1.000  C
  C108     1.0000 0.03132  0.81530  0.94984  Biso   1.000  C
  C109     1.0000 0.53132  0.68470  0.44984  Biso   1.000  C
  C110     1.0000 0.46868  0.68470  0.05016  Biso   1.000  C
  C111     1.0000 0.03132  0.18470  0.44984  Biso   1.000  C
  C112     1.0000 0.96868  0.18470  0.05016  Biso   1.000  C
  H97      1.0000 0.43790  0.26910  0.53770  Biso   1.000  H
  H98      1.0000 0.56210  0.26910  0.96230  Biso   1.000  H
  H99      1.0000 0.93790  0.76910  0.53770  Biso   1.000  H
  H100     1.0000 0.06210  0.76910  0.96230  Biso   1.000  H
  H101     1.0000 0.56210  0.73090  0.46230  Biso   1.000  H
  H102     1.0000 0.43790  0.73090  0.03770  Biso   1.000  H
  H103     1.0000 0.06210  0.23090  0.46230  Biso   1.000  H
  H104     1.0000 0.93790  0.23090  0.03770  Biso   1.000  H
  C113     1.0000 0.45928  0.41420  0.56536  Biso   1.000  C
  C114     1.0000 0.54072  0.41420  0.93464  Biso   1.000  C
  C115     1.0000 0.95928  0.91420  0.56536  Biso   1.000  C
  C116     1.0000 0.04072  0.91420  0.93464  Biso   1.000  C
  C117     1.0000 0.54072  0.58580  0.43464  Biso   1.000  C
  C118     1.0000 0.45928  0.58580  0.06536  Biso   1.000  C
  C119     1.0000 0.04072  0.08580  0.43464  Biso   1.000  C
  C120     1.0000 0.95928  0.08580  0.06536  Biso   1.000  C
  H105     1.0000 0.42260  0.43840  0.56310  Biso   1.000  H
  H106     1.0000 0.57740  0.43840  0.93690  Biso   1.000  H
  H107     1.0000 0.92260  0.93840  0.56310  Biso   1.000  H
  H108     1.0000 0.07740  0.93840  0.93690  Biso   1.000  H
  H109     1.0000 0.57740  0.56160  0.43690  Biso   1.000  H
  H110     1.0000 0.42260  0.56160  0.06310  Biso   1.000  H
  H111     1.0000 0.07740  0.06160  0.43690  Biso   1.000  H
  H112     1.0000 0.92260  0.06160  0.06310  Biso   1.000  H
  C121     1.0000 0.50567  0.47880  0.58449  Biso   1.000  C
  C122     1.0000 0.49433  0.47880  0.91551  Biso   1.000  C
  C123     1.0000 0.00567  0.97880  0.58449  Biso   1.000  C
  C124     1.0000 0.99433  0.97880  0.91551  Biso   1.000  C
  C125     1.0000 0.49433  0.52120  0.41551  Biso   1.000  C
  C126     1.0000 0.50567  0.52120  0.08449  Biso   1.000  C
  C127     1.0000 0.99433  0.02120  0.41551  Biso   1.000  C
  C128     1.0000 0.00567  0.02120  0.08449  Biso   1.000  C
  C129     1.0000 0.66949  0.70240  0.74144  Biso   1.000  C
  C130     1.0000 0.33051  0.70240  0.75856  Biso   1.000  C
  C131     1.0000 0.16949  0.20240  0.74144  Biso   1.000  C
  C132     1.0000 0.83051  0.20240  0.75856  Biso   1.000  C
  C133     1.0000 0.33051  0.29760  0.25856  Biso   1.000  C
  C134     1.0000 0.66949  0.29760  0.24144  Biso   1.000  C
  C135     1.0000 0.83051  0.79760  0.25856  Biso   1.000  C
  C136     1.0000 0.16949  0.79760  0.24144  Biso   1.000  C
  H113     1.0000 0.64260  0.66450  0.76080  Biso   1.000  H
  H114     1.0000 0.35740  0.66450  0.73920  Biso   1.000  H
  H115     1.0000 0.14260  0.16450  0.76080  Biso   1.000  H
  H116     1.0000 0.85740  0.16450  0.73920  Biso   1.000  H
  H117     1.0000 0.35740  0.33550  0.23920  Biso   1.000  H
  H118     1.0000 0.64260  0.33550  0.26080  Biso   1.000  H
  H119     1.0000 0.85740  0.83550  0.23920  Biso   1.000  H
  H120     1.0000 0.14260  0.83550  0.26080  Biso   1.000  H
  H121     1.0000 0.67190  0.77430  0.75800  Biso   1.000  H
  H122     1.0000 0.32810  0.77430  0.74200  Biso   1.000  H
  H123     1.0000 0.17190  0.27430  0.75800  Biso   1.000  H
  H124     1.0000 0.82810  0.27430  0.74200  Biso   1.000  H
  H125     1.0000 0.32810  0.22570  0.24200  Biso   1.000  H
  H126     1.0000 0.67190  0.22570  0.25800  Biso   1.000  H
  H127     1.0000 0.82810  0.72570  0.24200  Biso   1.000  H
  H128     1.0000 0.17190  0.72570  0.25800  Biso   1.000  H
  C137     1.0000 0.72572  0.65250  0.76157  Biso   1.000  C
  C138     1.0000 0.27428  0.65250  0.73843  Biso   1.000  C
  C139     1.0000 0.22572  0.15250  0.76157  Biso   1.000  C
  C140     1.0000 0.77428  0.15250  0.73843  Biso   1.000  C
  C141     1.0000 0.27428  0.34750  0.23843  Biso   1.000  C
  C142     1.0000 0.72572  0.34750  0.26157  Biso   1.000  C
  C143     1.0000 0.77428  0.84750  0.23843  Biso   1.000  C
  C144     1.0000 0.22572  0.84750  0.26157  Biso   1.000  C
  C145     1.0000 0.79525  0.55660  0.75400  Biso   1.000  C
  C146     1.0000 0.20475  0.55660  0.74600  Biso   1.000  C
  C147     1.0000 0.29525  0.05660  0.75400  Biso   1.000  C
  C148     1.0000 0.70475  0.05660  0.74600  Biso   1.000  C
  C149     1.0000 0.20475  0.44340  0.24600  Biso   1.000  C
  C150     1.0000 0.79525  0.44340  0.25400  Biso   1.000  C
  C151     1.0000 0.70475  0.94340  0.24600  Biso   1.000  C
  C152     1.0000 0.29525  0.94340  0.25400  Biso   1.000  C
  C153     1.0000 0.83301  0.49420  0.73250  Biso   1.000  C
  C154     1.0000 0.16699  0.49420  0.76750  Biso   1.000  C
  C155     1.0000 0.33301  0.99420  0.73250  Biso   1.000  C
  C156     1.0000 0.66699  0.99420  0.76750  Biso   1.000  C
  C157     1.0000 0.16699  0.50580  0.26750  Biso   1.000  C
  C158     1.0000 0.83301  0.50580  0.23250  Biso   1.000  C
  C159     1.0000 0.66699  0.00580  0.26750  Biso   1.000  C
  C160     1.0000 0.33301  0.00580  0.23250  Biso   1.000  C
  H129     1.0000 0.82340  0.46290  0.68880  Biso   1.000  H
  H130     1.0000 0.17660  0.46290  0.81120  Biso   1.000  H
  H131     1.0000 0.32340  0.96290  0.68880  Biso   1.000  H
  H132     1.0000 0.67660  0.96290  0.81120  Biso   1.000  H
  H133     1.0000 0.17660  0.53710  0.31120  Biso   1.000  H
  H134     1.0000 0.82340  0.53710  0.18880  Biso   1.000  H
  H135     1.0000 0.67660  0.03710  0.31120  Biso   1.000  H
  H136     1.0000 0.32340  0.03710  0.18880  Biso   1.000  H
  C161     1.0000 0.88481  0.47980  0.77700  Biso   1.000  C
  C162     1.0000 0.11519  0.47980  0.72300  Biso   1.000  C
  C163     1.0000 0.38481  0.97980  0.77700  Biso   1.000  C
  C164     1.0000 0.61519  0.97980  0.72300  Biso   1.000  C
  C165     1.0000 0.11519  0.52020  0.22300  Biso   1.000  C
  C166     1.0000 0.88481  0.52020  0.27700  Biso   1.000  C
  C167     1.0000 0.61519  0.02020  0.22300  Biso   1.000  C
  C168     1.0000 0.38481  0.02020  0.27700  Biso   1.000  C
  H137     1.0000 0.91160  0.43800  0.76380  Biso   1.000  H
  H138     1.0000 0.08840  0.43800  0.73620  Biso   1.000  H
  H139     1.0000 0.41160  0.93800  0.76380  Biso   1.000  H
  H140     1.0000 0.58840  0.93800  0.73620  Biso   1.000  H
  H141     1.0000 0.08840  0.56200  0.23620  Biso   1.000  H
  H142     1.0000 0.91160  0.56200  0.26380  Biso   1.000  H
  H143     1.0000 0.58840  0.06200  0.23620  Biso   1.000  H
  H144     1.0000 0.41160  0.06200  0.26380  Biso   1.000  H
  C169     1.0000 0.89886  0.52550  0.84160  Biso   1.000  C
  C170     1.0000 0.10114  0.52550  0.65840  Biso   1.000  C
  C171     1.0000 0.39886  0.02550  0.84160  Biso   1.000  C
  C172     1.0000 0.60114  0.02550  0.65840  Biso   1.000  C
  C173     1.0000 0.10114  0.47450  0.15840  Biso   1.000  C
  C174     1.0000 0.89886  0.47450  0.34160  Biso   1.000  C
  C175     1.0000 0.60114  0.97450  0.15840  Biso   1.000  C
  C176     1.0000 0.39886  0.97450  0.34160  Biso   1.000  C
  H145     1.0000 0.93460  0.51180  0.87160  Biso   1.000  H
  H146     1.0000 0.06540  0.51180  0.62840  Biso   1.000  H
  H147     1.0000 0.43460  0.01180  0.87160  Biso   1.000  H
  H148     1.0000 0.56540  0.01180  0.62840  Biso   1.000  H
  H149     1.0000 0.06540  0.48820  0.12840  Biso   1.000  H
  H150     1.0000 0.93460  0.48820  0.37160  Biso   1.000  H
  H151     1.0000 0.56540  0.98820  0.12840  Biso   1.000  H
  H152     1.0000 0.43460  0.98820  0.37160  Biso   1.000  H
  C177     1.0000 0.86238  0.58990  0.86290  Biso   1.000  C
  C178     1.0000 0.13762  0.58990  0.63710  Biso   1.000  C
  C179     1.0000 0.36238  0.08990  0.86290  Biso   1.000  C
  C180     1.0000 0.63762  0.08990  0.63710  Biso   1.000  C
  C181     1.0000 0.13762  0.41010  0.13710  Biso   1.000  C
  C182     1.0000 0.86238  0.41010  0.36290  Biso   1.000  C
  C183     1.0000 0.63762  0.91010  0.13710  Biso   1.000  C
  C184     1.0000 0.36238  0.91010  0.36290  Biso   1.000  C
  H153     1.0000 0.87250  0.62200  0.90620  Biso   1.000  H
  H154     1.0000 0.12750  0.62200  0.59380  Biso   1.000  H
  H155     1.0000 0.37250  0.12200  0.90620  Biso   1.000  H
  H156     1.0000 0.62750  0.12200  0.59380  Biso   1.000  H
  H157     1.0000 0.12750  0.37800  0.09380  Biso   1.000  H
  H158     1.0000 0.87250  0.37800  0.40620  Biso   1.000  H
  H159     1.0000 0.62750  0.87800  0.09380  Biso   1.000  H
  H160     1.0000 0.37250  0.87800  0.40620  Biso   1.000  H
  C185     1.0000 0.81031  0.60540  0.81782  Biso   1.000  C
  C186     1.0000 0.18969  0.60540  0.68218  Biso   1.000  C
  C187     1.0000 0.31031  0.10540  0.81782  Biso   1.000  C
  C188     1.0000 0.68969  0.10540  0.68218  Biso   1.000  C
  C189     1.0000 0.18969  0.39460  0.18218  Biso   1.000  C
  C190     1.0000 0.81031  0.39460  0.31782  Biso   1.000  C
  C191     1.0000 0.68969  0.89460  0.18218  Biso   1.000  C
  C192     1.0000 0.31031  0.89460  0.31782  Biso   1.000  C
  C193     1.0000 0.76562  0.74880  0.86981  Biso   1.000  C
  C194     1.0000 0.23438  0.74880  0.63019  Biso   1.000  C
  C195     1.0000 0.26562  0.24880  0.86981  Biso   1.000  C
  C196     1.0000 0.73438  0.24880  0.63019  Biso   1.000  C
  C197     1.0000 0.23438  0.25120  0.13019  Biso   1.000  C
  C198     1.0000 0.76562  0.25120  0.36981  Biso   1.000  C
  C199     1.0000 0.73438  0.75120  0.13019  Biso   1.000  C
  C200     1.0000 0.26562  0.75120  0.36981  Biso   1.000  C
  H161     1.0000 0.78990  0.72940  0.91490  Biso   1.000  H
  H162     1.0000 0.21010  0.72940  0.58510  Biso   1.000  H
  H163     1.0000 0.28990  0.22940  0.91490  Biso   1.000  H
  H164     1.0000 0.71010  0.22940  0.58510  Biso   1.000  H
  H165     1.0000 0.21010  0.27060  0.08510  Biso   1.000  H
  H166     1.0000 0.78990  0.27060  0.41490  Biso   1.000  H
  H167     1.0000 0.71010  0.77060  0.08510  Biso   1.000  H
  H168     1.0000 0.28990  0.77060  0.41490  Biso   1.000  H
  H169     1.0000 0.72720  0.75920  0.87460  Biso   1.000  H
  H170     1.0000 0.27280  0.75920  0.62540  Biso   1.000  H
  H171     1.0000 0.22720  0.25920  0.87460  Biso   1.000  H
  H172     1.0000 0.77280  0.25920  0.62540  Biso   1.000  H
  H173     1.0000 0.27280  0.24080  0.12540  Biso   1.000  H
  H174     1.0000 0.72720  0.24080  0.37460  Biso   1.000  H
  H175     1.0000 0.77280  0.74080  0.12540  Biso   1.000  H
  H176     1.0000 0.22720  0.74080  0.37460  Biso   1.000  H
  C201     1.0000 0.78724  0.85120  0.84631  Biso   1.000  C
  C202     1.0000 0.21276  0.85120  0.65369  Biso   1.000  C
  C203     1.0000 0.28724  0.35120  0.84631  Biso   1.000  C
  C204     1.0000 0.71276  0.35120  0.65369  Biso   1.000  C
  C205     1.0000 0.21276  0.14880  0.15369  Biso   1.000  C
  C206     1.0000 0.78724  0.14880  0.34631  Biso   1.000  C
  C207     1.0000 0.71276  0.64880  0.15369  Biso   1.000  C
  C208     1.0000 0.28724  0.64880  0.34631  Biso   1.000  C
  O1       1.0000 0.79773  0.85440  0.79268  Biso   1.000  O
  O2       1.0000 0.20227  0.85440  0.70732  Biso   1.000  O
  O3       1.0000 0.29773  0.35440  0.79268  Biso   1.000  O
  O4       1.0000 0.70227  0.35440  0.70732  Biso   1.000  O
  O5       1.0000 0.20227  0.14560  0.20732  Biso   1.000  O
  O6       1.0000 0.79773  0.14560  0.29268  Biso   1.000  O
  O7       1.0000 0.70227  0.64560  0.20732  Biso   1.000  O
  O8       1.0000 0.29773  0.64560  0.29268  Biso   1.000  O
  O9       1.0000 0.79104  0.92380  0.88987  Biso   1.000  O
  O10      1.0000 0.20896  0.92380  0.61013  Biso   1.000  O
  O11      1.0000 0.29104  0.42380  0.88987  Biso   1.000  O
  O12      1.0000 0.70896  0.42380  0.61013  Biso   1.000  O
  O13      1.0000 0.20896  0.07620  0.11013  Biso   1.000  O
  O14      1.0000 0.79104  0.07620  0.38987  Biso   1.000  O
  O15      1.0000 0.70896  0.57620  0.11013  Biso   1.000  O
  O16      1.0000 0.29104  0.57620  0.38987  Biso   1.000  O
  Cl1      1.0000 0.60683  0.23994  0.40763  Biso   1.000  Cl
  Cl2      1.0000 0.39317  0.23994  0.09237  Biso   1.000  Cl
  Cl3      1.0000 0.10683  0.73994  0.40763  Biso   1.000  Cl
  Cl4      1.0000 0.89317  0.73994  0.09237  Biso   1.000  Cl
  Cl5      1.0000 0.39317  0.76006  0.59237  Biso   1.000  Cl
  Cl6      1.0000 0.60683  0.76006  0.90763  Biso   1.000  Cl
  Cl7      1.0000 0.89317  0.26006  0.59237  Biso   1.000  Cl
  Cl8      1.0000 0.10683  0.26006  0.90763  Biso   1.000  Cl
  O17      1.0000 0.61630  0.34600  0.40620  Biso   1.000  O
  O18      1.0000 0.38370  0.34600  0.09380  Biso   1.000  O
  O19      1.0000 0.11630  0.84600  0.40620  Biso   1.000  O
  O20      1.0000 0.88370  0.84600  0.09380  Biso   1.000  O
  O21      1.0000 0.38370  0.65400  0.59380  Biso   1.000  O
  O22      1.0000 0.61630  0.65400  0.90620  Biso   1.000  O
  O23      1.0000 0.88370  0.15400  0.59380  Biso   1.000  O
  O24      1.0000 0.11630  0.15400  0.90620  Biso   1.000  O
  O25      1.0000 0.62596  0.18630  0.35729  Biso   1.000  O
  O26      1.0000 0.37404  0.18630  0.14271  Biso   1.000  O
  O27      1.0000 0.12596  0.68630  0.35729  Biso   1.000  O
  O28      1.0000 0.87404  0.68630  0.14271  Biso   1.000  O
  O29      1.0000 0.37404  0.81370  0.64271  Biso   1.000  O
  O30      1.0000 0.62596  0.81370  0.85729  Biso   1.000  O
  O31      1.0000 0.87404  0.31370  0.64271  Biso   1.000  O
  O32      1.0000 0.12596  0.31370  0.85729  Biso   1.000  O
  O33      1.0000 0.63379  0.19670  0.47324  Biso   1.000  O
  O34      1.0000 0.36621  0.19670  0.02676  Biso   1.000  O
  O35      1.0000 0.13379  0.69670  0.47324  Biso   1.000  O
  O36      1.0000 0.86621  0.69670  0.02676  Biso   1.000  O
  O37      1.0000 0.36621  0.80330  0.52676  Biso   1.000  O
  O38      1.0000 0.63379  0.80330  0.97324  Biso   1.000  O
  O39      1.0000 0.86621  0.30330  0.52676  Biso   1.000  O
  O40      1.0000 0.13379  0.30330  0.97324  Biso   1.000  O
  O41      1.0000 0.54643  0.22250  0.39272  Biso   1.000  O
  O42      1.0000 0.45357  0.22250  0.10728  Biso   1.000  O
  O43      1.0000 0.04643  0.72250  0.39272  Biso   1.000  O
  O44      1.0000 0.95357  0.72250  0.10728  Biso   1.000  O
  O45      1.0000 0.45357  0.77750  0.60728  Biso   1.000  O
  O46      1.0000 0.54643  0.77750  0.89272  Biso   1.000  O
  O47      1.0000 0.95357  0.27750  0.60728  Biso   1.000  O
  O48      1.0000 0.04643  0.27750  0.89272  Biso   1.000  O
  O49      1.0000 0.55020  0.44670  0.25620  Biso   1.000  O
  O50      1.0000 0.44980  0.44670  0.24380  Biso   1.000  O
  O51      1.0000 0.05020  0.94670  0.25620  Biso   1.000  O
  O52      1.0000 0.94980  0.94670  0.24380  Biso   1.000  O
  O53      1.0000 0.44980  0.55330  0.74380  Biso   1.000  O
  O54      1.0000 0.55020  0.55330  0.75620  Biso   1.000  O
  O55      1.0000 0.94980  0.05330  0.74380  Biso   1.000  O
  O56      1.0000 0.05020  0.05330  0.75620  Biso   1.000  O
  N57      1.0000 0.50000  0.47940  0.25000  Biso   1.000  N
  N58      1.0000 0.00000  0.97940  0.25000  Biso   1.000  N
  N59      1.0000 0.50000  0.52060  0.75000  Biso   1.000  N
  N60      1.0000 0.00000  0.02060  0.75000  Biso   1.000  N
  C209     1.0000 0.50000  0.59350  0.25000  Biso   1.000  C
  C210     1.0000 0.00000  0.09350  0.25000  Biso   1.000  C
  C211     1.0000 0.50000  0.40650  0.75000  Biso   1.000  C
  C212     1.0000 0.00000  0.90650  0.75000  Biso   1.000  C
  C213     1.0000 0.54767  0.64480  0.24520  Biso   1.000  C
  C214     1.0000 0.45233  0.64480  0.25480  Biso   1.000  C
  C215     1.0000 0.04767  0.14480  0.24520  Biso   1.000  C
  C216     1.0000 0.95233  0.14480  0.25480  Biso   1.000  C
  C217     1.0000 0.45233  0.35520  0.75480  Biso   1.000  C
  C218     1.0000 0.54767  0.35520  0.74520  Biso   1.000  C
  C219     1.0000 0.95233  0.85520  0.75480  Biso   1.000  C
  C220     1.0000 0.04767  0.85520  0.74520  Biso   1.000  C
  H177     1.0000 0.58030  0.60840  0.24220  Biso   1.000  H
  H178     1.0000 0.41970  0.60840  0.25780  Biso   1.000  H
  H179     1.0000 0.08030  0.10840  0.24220  Biso   1.000  H
  H180     1.0000 0.91970  0.10840  0.25780  Biso   1.000  H
  H181     1.0000 0.41970  0.39160  0.75780  Biso   1.000  H
  H182     1.0000 0.58030  0.39160  0.74220  Biso   1.000  H
  H183     1.0000 0.91970  0.89160  0.75780  Biso   1.000  H
  H184     1.0000 0.08030  0.89160  0.74220  Biso   1.000  H
  C221     1.0000 0.54620  0.75270  0.24500  Biso   1.000  C
  C222     1.0000 0.45380  0.75270  0.25500  Biso   1.000  C
  C223     1.0000 0.04620  0.25270  0.24500  Biso   1.000  C
  C224     1.0000 0.95380  0.25270  0.25500  Biso   1.000  C
  C225     1.0000 0.45380  0.24730  0.75500  Biso   1.000  C
  C226     1.0000 0.54620  0.24730  0.74500  Biso   1.000  C
  C227     1.0000 0.95380  0.74730  0.75500  Biso   1.000  C
  C228     1.0000 0.04620  0.74730  0.74500  Biso   1.000  C
  H185     1.0000 0.57840  0.78970  0.24130  Biso   1.000  H
  H186     1.0000 0.42160  0.78970  0.25870  Biso   1.000  H
  H187     1.0000 0.07840  0.28970  0.24130  Biso   1.000  H
  H188     1.0000 0.92160  0.28970  0.25870  Biso   1.000  H
  H189     1.0000 0.42160  0.21030  0.75870  Biso   1.000  H
  H190     1.0000 0.57840  0.21030  0.74130  Biso   1.000  H
  H191     1.0000 0.92160  0.71030  0.75870  Biso   1.000  H
  H192     1.0000 0.07840  0.71030  0.74130  Biso   1.000  H
  C229     1.0000 0.50000  0.80630  0.25000  Biso   1.000  C
  C230     1.0000 0.00000  0.30630  0.25000  Biso   1.000  C
  C231     1.0000 0.50000  0.19370  0.75000  Biso   1.000  C
  C232     1.0000 0.00000  0.69370  0.75000  Biso   1.000  C
  H193     1.0000 0.50000  0.87950  0.25000  Biso   1.000  H
  H194     1.0000 0.00000  0.37950  0.25000  Biso   1.000  H
  H195     1.0000 0.50000  0.12050  0.75000  Biso   1.000  H
  H196     1.0000 0.00000  0.62050  0.75000  Biso   1.000  H
  O57      1.0000 0.56660  0.95120  0.39510  Biso   1.000  O
  O58      1.0000 0.43340  0.95120  0.10490  Biso   1.000  O
  O59      1.0000 0.06660  0.45120  0.39510  Biso   1.000  O
  O60      1.0000 0.93340  0.45120  0.10490  Biso   1.000  O
  O61      1.0000 0.43340  0.04880  0.60490  Biso   1.000  O
  O62      1.0000 0.56660  0.04880  0.89510  Biso   1.000  O
  O63      1.0000 0.93340  0.54880  0.60490  Biso   1.000  O
  O64      1.0000 0.06660  0.54880  0.89510  Biso   1.000  O
  O65      1.0000 0.70400  0.02600  0.47490  Biso   1.000  O
  O66      1.0000 0.29600  0.02600  0.02510  Biso   1.000  O
  O67      1.0000 0.20400  0.52600  0.47490  Biso   1.000  O
  O68      1.0000 0.79600  0.52600  0.02510  Biso   1.000  O
  O69      1.0000 0.29600  0.97400  0.52510  Biso   1.000  O
  O70      1.0000 0.70400  0.97400  0.97490  Biso   1.000  O
  O71      1.0000 0.79600  0.47400  0.52510  Biso   1.000  O
  O72      1.0000 0.20400  0.47400  0.97490  Biso   1.000  O
  O73      1.0000 0.00000  0.33930  0.75000  Biso   1.000  O
  O74      1.0000 0.50000  0.83930  0.75000  Biso   1.000  O
  O75      1.0000 0.00000  0.66070  0.25000  Biso   1.000  O
  O76      1.0000 0.50000  0.16070  0.25000  Biso   1.000  O
  O77      1.0000 0.45850  0.42250  0.23740  Biso   1.000  O
  O78      1.0000 0.54150  0.42250  0.26260  Biso   1.000  O
  O79      1.0000 0.95850  0.92250  0.23740  Biso   1.000  O
  O80      1.0000 0.04150  0.92250  0.26260  Biso   1.000  O
  O81      1.0000 0.54150  0.57750  0.76260  Biso   1.000  O
  O82      1.0000 0.45850  0.57750  0.73740  Biso   1.000  O
  O83      1.0000 0.04150  0.07750  0.76260  Biso   1.000  O
  O84      1.0000 0.95850  0.07750  0.73740  Biso   1.000  O
  O85      1.0000 0.56650  0.97540  0.46420  Biso   1.000  O
  O86      1.0000 0.43350  0.97540  0.03580  Biso   1.000  O
  O87      1.0000 0.06650  0.47540  0.46420  Biso   1.000  O
  O88      1.0000 0.93350  0.47540  0.03580  Biso   1.000  O
  O89      1.0000 0.43350  0.02460  0.53580  Biso   1.000  O
  O90      1.0000 0.56650  0.02460  0.96420  Biso   1.000  O
  O91      1.0000 0.93350  0.52460  0.53580  Biso   1.000  O
  O92      1.0000 0.06650  0.52460  0.96420  Biso   1.000  O
  O93      1.0000 0.64250  0.99050  0.47390  Biso   1.000  O
  O94      1.0000 0.35750  0.99050  0.02610  Biso   1.000  O
  O95      1.0000 0.14250  0.49050  0.47390  Biso   1.000  O
  O96      1.0000 0.85750  0.49050  0.02610  Biso   1.000  O
  O97      1.0000 0.35750  0.00950  0.52610  Biso   1.000  O
  O98      1.0000 0.64250  0.00950  0.97390  Biso   1.000  O
  O99      1.0000 0.85750  0.50950  0.52610  Biso   1.000  O
  O100     1.0000 0.14250  0.50950  0.97390  Biso   1.000  O
  O101     1.0000 0.52440  0.04800  0.47110  Biso   1.000  O
  O102     1.0000 0.47560  0.04800  0.02890  Biso   1.000  O
  O103     1.0000 0.02440  0.54800  0.47110  Biso   1.000  O
  O104     1.0000 0.97560  0.54800  0.02890  Biso   1.000  O
  O105     1.0000 0.47560  0.95200  0.52890  Biso   1.000  O
  O106     1.0000 0.52440  0.95200  0.97110  Biso   1.000  O
  O107     1.0000 0.97560  0.45200  0.52890  Biso   1.000  O
  O108     1.0000 0.02440  0.45200  0.97110  Biso   1.000  O
