data_image0
_cell_length_a       24.6794
_cell_length_b       12.4257
_cell_length_c       21.1689
_cell_angle_alpha    90
_cell_angle_beta     104.994
_cell_angle_gamma    90

_symmetry_space_group_name_H-M    "P 1"
_symmetry_int_tables_number       1

loop_
  _symmetry_equiv_pos_as_xyz
  'x, y, z'

loop_
  _atom_site_label
  _atom_site_occupancy
  _atom_site_fract_x
  _atom_site_fract_y
  _atom_site_fract_z
  _atom_site_thermal_displace_type
  _atom_site_B_iso_or_equiv
  _atom_site_type_symbol
  Cu1      1.0000 0.67856  0.46229  0.12745  Biso   1.000  Cu
  Cu2      1.0000 0.32144  0.46229  0.37255  Biso   1.000  Cu
  Cu3      1.0000 0.17856  0.96229  0.12745  Biso   1.000  Cu
  Cu4      1.0000 0.82144  0.96229  0.37255  Biso   1.000  Cu
  Cu5      1.0000 0.32144  0.53771  0.87255  Biso   1.000  Cu
  Cu6      1.0000 0.67856  0.53771  0.62745  Biso   1.000  Cu
  Cu7      1.0000 0.82144  0.03771  0.87255  Biso   1.000  Cu
  Cu8      1.0000 0.17856  0.03771  0.62745  Biso   1.000  Cu
  N1       1.0000 0.65271  0.31090  0.16040  Biso   1.000  N
  N2       1.0000 0.34729  0.31090  0.33960  Biso   1.000  N
  N3       1.0000 0.15271  0.81090  0.16040  Biso   1.000  N
  N4       1.0000 0.84729  0.81090  0.33960  Biso   1.000  N
  N5       1.0000 0.34729  0.68910  0.83960  Biso   1.000  N
  N6       1.0000 0.65271  0.68910  0.66040  Biso   1.000  N
  N7       1.0000 0.84729  0.18910  0.83960  Biso   1.000  N
  N8       1.0000 0.15271  0.18910  0.66040  Biso   1.000  N
  N9       1.0000 0.68634  0.35580  0.04840  Biso   1.000  N
  N10      1.0000 0.31366  0.35580  0.45160  Biso   1.000  N
  N11      1.0000 0.18634  0.85580  0.04840  Biso   1.000  N
  N12      1.0000 0.81366  0.85580  0.45160  Biso   1.000  N
  N13      1.0000 0.31366  0.64420  0.95160  Biso   1.000  N
  N14      1.0000 0.68634  0.64420  0.54840  Biso   1.000  N
  N15      1.0000 0.81366  0.14420  0.95160  Biso   1.000  N
  N16      1.0000 0.18634  0.14420  0.54840  Biso   1.000  N
  N17      1.0000 0.67702  0.18620  0.01570  Biso   1.000  N
  N18      1.0000 0.32298  0.18620  0.48430  Biso   1.000  N
  N19      1.0000 0.17702  0.68620  0.01570  Biso   1.000  N
  N20      1.0000 0.82298  0.68620  0.48430  Biso   1.000  N
  N21      1.0000 0.32298  0.81380  0.98430  Biso   1.000  N
  N22      1.0000 0.67702  0.81380  0.51570  Biso   1.000  N
  N23      1.0000 0.82298  0.31380  0.98430  Biso   1.000  N
  N24      1.0000 0.17702  0.31380  0.51570  Biso   1.000  N
  H1       1.0000 0.67310  0.11590  0.01710  Biso   1.000  H
  H2       1.0000 0.32690  0.11590  0.48290  Biso   1.000  H
  H3       1.0000 0.17310  0.61590  0.01710  Biso   1.000  H
  H4       1.0000 0.82690  0.61590  0.48290  Biso   1.000  H
  H5       1.0000 0.32690  0.88410  0.98290  Biso   1.000  H
  H6       1.0000 0.67310  0.88410  0.51710  Biso   1.000  H
  H7       1.0000 0.82690  0.38410  0.98290  Biso   1.000  H
  H8       1.0000 0.17310  0.38410  0.51710  Biso   1.000  H
  N25      1.0000 0.59676  0.48830  0.10310  Biso   1.000  N
  N26      1.0000 0.40324  0.48830  0.39690  Biso   1.000  N
  N27      1.0000 0.09676  0.98830  0.10310  Biso   1.000  N
  N28      1.0000 0.90324  0.98830  0.39690  Biso   1.000  N
  N29      1.0000 0.40324  0.51170  0.89690  Biso   1.000  N
  N30      1.0000 0.59676  0.51170  0.60310  Biso   1.000  N
  N31      1.0000 0.90324  0.01170  0.89690  Biso   1.000  N
  N32      1.0000 0.09676  0.01170  0.60310  Biso   1.000  N
  N33      1.0000 0.51122  0.43250  0.10110  Biso   1.000  N
  N34      1.0000 0.48878  0.43250  0.39890  Biso   1.000  N
  N35      1.0000 0.01122  0.93250  0.10110  Biso   1.000  N
  N36      1.0000 0.98878  0.93250  0.39890  Biso   1.000  N
  N37      1.0000 0.48878  0.56750  0.89890  Biso   1.000  N
  N38      1.0000 0.51122  0.56750  0.60110  Biso   1.000  N
  N39      1.0000 0.98878  0.06750  0.89890  Biso   1.000  N
  N40      1.0000 0.01122  0.06750  0.60110  Biso   1.000  N
  H9       1.0000 0.48400  0.38950  0.10510  Biso   1.000  H
  H10      1.0000 0.51600  0.38950  0.39490  Biso   1.000  H
  H11      1.0000 0.98400  0.88950  0.10510  Biso   1.000  H
  H12      1.0000 0.01600  0.88950  0.39490  Biso   1.000  H
  H13      1.0000 0.51600  0.61050  0.89490  Biso   1.000  H
  H14      1.0000 0.48400  0.61050  0.60510  Biso   1.000  H
  H15      1.0000 0.01600  0.11050  0.89490  Biso   1.000  H
  H16      1.0000 0.98400  0.11050  0.60510  Biso   1.000  H
  N41      1.0000 0.74388  0.42960  0.20310  Biso   1.000  N
  N42      1.0000 0.25612  0.42960  0.29690  Biso   1.000  N
  N43      1.0000 0.24388  0.92960  0.20310  Biso   1.000  N
  N44      1.0000 0.75612  0.92960  0.29690  Biso   1.000  N
  N45      1.0000 0.25612  0.57040  0.79690  Biso   1.000  N
  N46      1.0000 0.74388  0.57040  0.70310  Biso   1.000  N
  N47      1.0000 0.75612  0.07040  0.79690  Biso   1.000  N
  N48      1.0000 0.24388  0.07040  0.70310  Biso   1.000  N
  N49      1.0000 0.77150  0.36060  0.30270  Biso   1.000  N
  N50      1.0000 0.22850  0.36060  0.19730  Biso   1.000  N
  N51      1.0000 0.27150  0.86060  0.30270  Biso   1.000  N
  N52      1.0000 0.72850  0.86060  0.19730  Biso   1.000  N
  N53      1.0000 0.22850  0.63940  0.69730  Biso   1.000  N
  N54      1.0000 0.77150  0.63940  0.80270  Biso   1.000  N
  N55      1.0000 0.72850  0.13940  0.69730  Biso   1.000  N
  N56      1.0000 0.27150  0.13940  0.80270  Biso   1.000  N
  C1       1.0000 0.68130  0.22360  0.13270  Biso   1.000  C
  C2       1.0000 0.31870  0.22360  0.36730  Biso   1.000  C
  C3       1.0000 0.18130  0.72360  0.13270  Biso   1.000  C
  C4       1.0000 0.81870  0.72360  0.36730  Biso   1.000  C
  C5       1.0000 0.31870  0.77640  0.86730  Biso   1.000  C
  C6       1.0000 0.68130  0.77640  0.63270  Biso   1.000  C
  C7       1.0000 0.81870  0.27640  0.86730  Biso   1.000  C
  C8       1.0000 0.18130  0.27640  0.63270  Biso   1.000  C
  H17      1.0000 0.72020  0.21400  0.15980  Biso   1.000  H
  H18      1.0000 0.27980  0.21400  0.34020  Biso   1.000  H
  H19      1.0000 0.22020  0.71400  0.15980  Biso   1.000  H
  H20      1.0000 0.77980  0.71400  0.34020  Biso   1.000  H
  H21      1.0000 0.27980  0.78600  0.84020  Biso   1.000  H
  H22      1.0000 0.72020  0.78600  0.65980  Biso   1.000  H
  H23      1.0000 0.77980  0.28600  0.84020  Biso   1.000  H
  H24      1.0000 0.22020  0.28600  0.65980  Biso   1.000  H
  H25      1.0000 0.66100  0.15470  0.13190  Biso   1.000  H
  H26      1.0000 0.33900  0.15470  0.36810  Biso   1.000  H
  H27      1.0000 0.16100  0.65470  0.13190  Biso   1.000  H
  H28      1.0000 0.83900  0.65470  0.36810  Biso   1.000  H
  H29      1.0000 0.33900  0.84530  0.86810  Biso   1.000  H
  H30      1.0000 0.66100  0.84530  0.63190  Biso   1.000  H
  H31      1.0000 0.83900  0.34530  0.86810  Biso   1.000  H
  H32      1.0000 0.16100  0.34530  0.63190  Biso   1.000  H
  C9       1.0000 0.68160  0.25580  0.06500  Biso   1.000  C
  C10      1.0000 0.31840  0.25580  0.43500  Biso   1.000  C
  C11      1.0000 0.18160  0.75580  0.06500  Biso   1.000  C
  C12      1.0000 0.81840  0.75580  0.43500  Biso   1.000  C
  C13      1.0000 0.31840  0.74420  0.93500  Biso   1.000  C
  C14      1.0000 0.68160  0.74420  0.56500  Biso   1.000  C
  C15      1.0000 0.81840  0.24420  0.93500  Biso   1.000  C
  C16      1.0000 0.18160  0.24420  0.56500  Biso   1.000  C
  C17      1.0000 0.68580  0.35280  0.98320  Biso   1.000  C
  C18      1.0000 0.31420  0.35280  0.51680  Biso   1.000  C
  C19      1.0000 0.18580  0.85280  0.98320  Biso   1.000  C
  C20      1.0000 0.81420  0.85280  0.51680  Biso   1.000  C
  C21      1.0000 0.31420  0.64720  0.01680  Biso   1.000  C
  C22      1.0000 0.68580  0.64720  0.48320  Biso   1.000  C
  C23      1.0000 0.81420  0.14720  0.01680  Biso   1.000  C
  C24      1.0000 0.18580  0.14720  0.48320  Biso   1.000  C
  C25      1.0000 0.68800  0.43550  0.93930  Biso   1.000  C
  C26      1.0000 0.31200  0.43550  0.56070  Biso   1.000  C
  C27      1.0000 0.18800  0.93550  0.93930  Biso   1.000  C
  C28      1.0000 0.81200  0.93550  0.56070  Biso   1.000  C
  C29      1.0000 0.31200  0.56450  0.06070  Biso   1.000  C
  C30      1.0000 0.68800  0.56450  0.43930  Biso   1.000  C
  C31      1.0000 0.81200  0.06450  0.06070  Biso   1.000  C
  C32      1.0000 0.18800  0.06450  0.43930  Biso   1.000  C
  H33      1.0000 0.69180  0.50880  0.95240  Biso   1.000  H
  H34      1.0000 0.30820  0.50880  0.54760  Biso   1.000  H
  H35      1.0000 0.19180  0.00880  0.95240  Biso   1.000  H
  H36      1.0000 0.80820  0.00880  0.54760  Biso   1.000  H
  H37      1.0000 0.30820  0.49120  0.04760  Biso   1.000  H
  H38      1.0000 0.69180  0.49120  0.45240  Biso   1.000  H
  H39      1.0000 0.80820  0.99120  0.04760  Biso   1.000  H
  H40      1.0000 0.19180  0.99120  0.45240  Biso   1.000  H
  C33      1.0000 0.68440  0.40490  0.87660  Biso   1.000  C
  C34      1.0000 0.31560  0.40490  0.62340  Biso   1.000  C
  C35      1.0000 0.18440  0.90490  0.87660  Biso   1.000  C
  C36      1.0000 0.81560  0.90490  0.62340  Biso   1.000  C
  C37      1.0000 0.31560  0.59510  0.12340  Biso   1.000  C
  C38      1.0000 0.68440  0.59510  0.37660  Biso   1.000  C
  C39      1.0000 0.81560  0.09510  0.12340  Biso   1.000  C
  C40      1.0000 0.18440  0.09510  0.37660  Biso   1.000  C
  H41      1.0000 0.68670  0.45910  0.84570  Biso   1.000  H
  H42      1.0000 0.31330  0.45910  0.65430  Biso   1.000  H
  H43      1.0000 0.18670  0.95910  0.84570  Biso   1.000  H
  H44      1.0000 0.81330  0.95910  0.65430  Biso   1.000  H
  H45      1.0000 0.31330  0.54090  0.15430  Biso   1.000  H
  H46      1.0000 0.68670  0.54090  0.34570  Biso   1.000  H
  H47      1.0000 0.81330  0.04090  0.15430  Biso   1.000  H
  H48      1.0000 0.18670  0.04090  0.34570  Biso   1.000  H
  C41      1.0000 0.67760  0.30010  0.85570  Biso   1.000  C
  C42      1.0000 0.32240  0.30010  0.64430  Biso   1.000  C
  C43      1.0000 0.17760  0.80010  0.85570  Biso   1.000  C
  C44      1.0000 0.82240  0.80010  0.64430  Biso   1.000  C
  C45      1.0000 0.32240  0.69990  0.14430  Biso   1.000  C
  C46      1.0000 0.67760  0.69990  0.35570  Biso   1.000  C
  C47      1.0000 0.82240  0.19990  0.14430  Biso   1.000  C
  C48      1.0000 0.17760  0.19990  0.35570  Biso   1.000  C
  H49      1.0000 0.67430  0.28470  0.81090  Biso   1.000  H
  H50      1.0000 0.32570  0.28470  0.68910  Biso   1.000  H
  H51      1.0000 0.17430  0.78470  0.81090  Biso   1.000  H
  H52      1.0000 0.82570  0.78470  0.68910  Biso   1.000  H
  H53      1.0000 0.32570  0.71530  0.18910  Biso   1.000  H
  H54      1.0000 0.67430  0.71530  0.31090  Biso   1.000  H
  H55      1.0000 0.82570  0.21530  0.18910  Biso   1.000  H
  H56      1.0000 0.17430  0.21530  0.31090  Biso   1.000  H
  C49      1.0000 0.67550  0.21780  0.89710  Biso   1.000  C
  C50      1.0000 0.32450  0.21780  0.60290  Biso   1.000  C
  C51      1.0000 0.17550  0.71780  0.89710  Biso   1.000  C
  C52      1.0000 0.82450  0.71780  0.60290  Biso   1.000  C
  C53      1.0000 0.32450  0.78220  0.10290  Biso   1.000  C
  C54      1.0000 0.67550  0.78220  0.39710  Biso   1.000  C
  C55      1.0000 0.82450  0.28220  0.10290  Biso   1.000  C
  C56      1.0000 0.17550  0.28220  0.39710  Biso   1.000  C
  H57      1.0000 0.67150  0.14500  0.88300  Biso   1.000  H
  H58      1.0000 0.32850  0.14500  0.61700  Biso   1.000  H
  H59      1.0000 0.17150  0.64500  0.88300  Biso   1.000  H
  H60      1.0000 0.82850  0.64500  0.61700  Biso   1.000  H
  H61      1.0000 0.32850  0.85500  0.11700  Biso   1.000  H
  H62      1.0000 0.67150  0.85500  0.38300  Biso   1.000  H
  H63      1.0000 0.82850  0.35500  0.11700  Biso   1.000  H
  H64      1.0000 0.17150  0.35500  0.38300  Biso   1.000  H
  C57      1.0000 0.67970  0.24730  0.96180  Biso   1.000  C
  C58      1.0000 0.32030  0.24730  0.53820  Biso   1.000  C
  C59      1.0000 0.17970  0.74730  0.96180  Biso   1.000  C
  C60      1.0000 0.82030  0.74730  0.53820  Biso   1.000  C
  C61      1.0000 0.32030  0.75270  0.03820  Biso   1.000  C
  C62      1.0000 0.67970  0.75270  0.46180  Biso   1.000  C
  C63      1.0000 0.82030  0.25270  0.03820  Biso   1.000  C
  C64      1.0000 0.17970  0.25270  0.46180  Biso   1.000  C
  C65      1.0000 0.59090  0.30080  0.13800  Biso   1.000  C
  C66      1.0000 0.40910  0.30080  0.36200  Biso   1.000  C
  C67      1.0000 0.09090  0.80080  0.13800  Biso   1.000  C
  C68      1.0000 0.90910  0.80080  0.36200  Biso   1.000  C
  C69      1.0000 0.40910  0.69920  0.86200  Biso   1.000  C
  C70      1.0000 0.59090  0.69920  0.63800  Biso   1.000  C
  C71      1.0000 0.90910  0.19920  0.86200  Biso   1.000  C
  C72      1.0000 0.09090  0.19920  0.63800  Biso   1.000  C
  H65      1.0000 0.57590  0.27580  0.17460  Biso   1.000  H
  H66      1.0000 0.42410  0.27580  0.32540  Biso   1.000  H
  H67      1.0000 0.07590  0.77580  0.17460  Biso   1.000  H
  H68      1.0000 0.92410  0.77580  0.32540  Biso   1.000  H
  H69      1.0000 0.42410  0.72420  0.82540  Biso   1.000  H
  H70      1.0000 0.57590  0.72420  0.67460  Biso   1.000  H
  H71      1.0000 0.92410  0.22420  0.82540  Biso   1.000  H
  H72      1.0000 0.07590  0.22420  0.67460  Biso   1.000  H
  H73      1.0000 0.58070  0.24720  0.10230  Biso   1.000  H
  H74      1.0000 0.41930  0.24720  0.39770  Biso   1.000  H
  H75      1.0000 0.08070  0.74720  0.10230  Biso   1.000  H
  H76      1.0000 0.91930  0.74720  0.39770  Biso   1.000  H
  H77      1.0000 0.41930  0.75280  0.89770  Biso   1.000  H
  H78      1.0000 0.58070  0.75280  0.60230  Biso   1.000  H
  H79      1.0000 0.91930  0.25280  0.89770  Biso   1.000  H
  H80      1.0000 0.08070  0.25280  0.60230  Biso   1.000  H
  C73      1.0000 0.56620  0.40770  0.11430  Biso   1.000  C
  C74      1.0000 0.43380  0.40770  0.38570  Biso   1.000  C
  C75      1.0000 0.06620  0.90770  0.11430  Biso   1.000  C
  C76      1.0000 0.93380  0.90770  0.38570  Biso   1.000  C
  C77      1.0000 0.43380  0.59230  0.88570  Biso   1.000  C
  C78      1.0000 0.56620  0.59230  0.61430  Biso   1.000  C
  C79      1.0000 0.93380  0.09230  0.88570  Biso   1.000  C
  C80      1.0000 0.06620  0.09230  0.61430  Biso   1.000  C
  C81      1.0000 0.55980  0.57440  0.08110  Biso   1.000  C
  C82      1.0000 0.44020  0.57440  0.41890  Biso   1.000  C
  C83      1.0000 0.05980  0.07440  0.08110  Biso   1.000  C
  C84      1.0000 0.94020  0.07440  0.41890  Biso   1.000  C
  C85      1.0000 0.44020  0.42560  0.91890  Biso   1.000  C
  C86      1.0000 0.55980  0.42560  0.58110  Biso   1.000  C
  C87      1.0000 0.94020  0.92560  0.91890  Biso   1.000  C
  C88      1.0000 0.05980  0.92560  0.58110  Biso   1.000  C
  C89      1.0000 0.56870  0.67850  0.06280  Biso   1.000  C
  C90      1.0000 0.43130  0.67850  0.43720  Biso   1.000  C
  C91      1.0000 0.06870  0.17850  0.06280  Biso   1.000  C
  C92      1.0000 0.93130  0.17850  0.43720  Biso   1.000  C
  C93      1.0000 0.43130  0.32150  0.93720  Biso   1.000  C
  C94      1.0000 0.56870  0.32150  0.56280  Biso   1.000  C
  C95      1.0000 0.93130  0.82150  0.93720  Biso   1.000  C
  C96      1.0000 0.06870  0.82150  0.56280  Biso   1.000  C
  H81      1.0000 0.60490  0.70280  0.06140  Biso   1.000  H
  H82      1.0000 0.39510  0.70280  0.43860  Biso   1.000  H
  H83      1.0000 0.10490  0.20280  0.06140  Biso   1.000  H
  H84      1.0000 0.89510  0.20280  0.43860  Biso   1.000  H
  H85      1.0000 0.39510  0.29720  0.93860  Biso   1.000  H
  H86      1.0000 0.60490  0.29720  0.56140  Biso   1.000  H
  H87      1.0000 0.89510  0.79720  0.93860  Biso   1.000  H
  H88      1.0000 0.10490  0.79720  0.56140  Biso   1.000  H
  C97      1.0000 0.52250  0.74540  0.04650  Biso   1.000  C
  C98      1.0000 0.47750  0.74540  0.45350  Biso   1.000  C
  C99      1.0000 0.02250  0.24540  0.04650  Biso   1.000  C
  C100     1.0000 0.97750  0.24540  0.45350  Biso   1.000  C
  C101     1.0000 0.47750  0.25460  0.95350  Biso   1.000  C
  C102     1.0000 0.52250  0.25460  0.54650  Biso   1.000  C
  C103     1.0000 0.97750  0.75460  0.95350  Biso   1.000  C
  C104     1.0000 0.02250  0.75460  0.54650  Biso   1.000  C
  H89      1.0000 0.52730  0.81780  0.03460  Biso   1.000  H
  H90      1.0000 0.47270  0.81780  0.46540  Biso   1.000  H
  H91      1.0000 0.02730  0.31780  0.03460  Biso   1.000  H
  H92      1.0000 0.97270  0.31780  0.46540  Biso   1.000  H
  H93      1.0000 0.47270  0.18220  0.96540  Biso   1.000  H
  H94      1.0000 0.52730  0.18220  0.53460  Biso   1.000  H
  H95      1.0000 0.97270  0.68220  0.96540  Biso   1.000  H
  H96      1.0000 0.02730  0.68220  0.53460  Biso   1.000  H
  C105     1.0000 0.47000  0.71040  0.04700  Biso   1.000  C
  C106     1.0000 0.53000  0.71040  0.45300  Biso   1.000  C
  C107     1.0000 0.97000  0.21040  0.04700  Biso   1.000  C
  C108     1.0000 0.03000  0.21040  0.45300  Biso   1.000  C
  C109     1.0000 0.53000  0.28960  0.95300  Biso   1.000  C
  C110     1.0000 0.47000  0.28960  0.54700  Biso   1.000  C
  C111     1.0000 0.03000  0.78960  0.95300  Biso   1.000  C
  C112     1.0000 0.97000  0.78960  0.54700  Biso   1.000  C
  H97      1.0000 0.43960  0.75950  0.03550  Biso   1.000  H
  H98      1.0000 0.56040  0.75950  0.46450  Biso   1.000  H
  H99      1.0000 0.93960  0.25950  0.03550  Biso   1.000  H
  H100     1.0000 0.06040  0.25950  0.46450  Biso   1.000  H
  H101     1.0000 0.56040  0.24050  0.96450  Biso   1.000  H
  H102     1.0000 0.43960  0.24050  0.53550  Biso   1.000  H
  H103     1.0000 0.06040  0.74050  0.96450  Biso   1.000  H
  H104     1.0000 0.93960  0.74050  0.53550  Biso   1.000  H
  C113     1.0000 0.45990  0.60820  0.06340  Biso   1.000  C
  C114     1.0000 0.54010  0.60820  0.43660  Biso   1.000  C
  C115     1.0000 0.95990  0.10820  0.06340  Biso   1.000  C
  C116     1.0000 0.04010  0.10820  0.43660  Biso   1.000  C
  C117     1.0000 0.54010  0.39180  0.93660  Biso   1.000  C
  C118     1.0000 0.45990  0.39180  0.56340  Biso   1.000  C
  C119     1.0000 0.04010  0.89180  0.93660  Biso   1.000  C
  C120     1.0000 0.95990  0.89180  0.56340  Biso   1.000  C
  H105     1.0000 0.42320  0.58500  0.06330  Biso   1.000  H
  H106     1.0000 0.57680  0.58500  0.43670  Biso   1.000  H
  H107     1.0000 0.92320  0.08500  0.06330  Biso   1.000  H
  H108     1.0000 0.07680  0.08500  0.43670  Biso   1.000  H
  H109     1.0000 0.57680  0.41500  0.93670  Biso   1.000  H
  H110     1.0000 0.42320  0.41500  0.56330  Biso   1.000  H
  H111     1.0000 0.07680  0.91500  0.93670  Biso   1.000  H
  H112     1.0000 0.92320  0.91500  0.56330  Biso   1.000  H
  C121     1.0000 0.50570  0.53840  0.08030  Biso   1.000  C
  C122     1.0000 0.49430  0.53840  0.41970  Biso   1.000  C
  C123     1.0000 0.00570  0.03840  0.08030  Biso   1.000  C
  C124     1.0000 0.99430  0.03840  0.41970  Biso   1.000  C
  C125     1.0000 0.49430  0.46160  0.91970  Biso   1.000  C
  C126     1.0000 0.50570  0.46160  0.58030  Biso   1.000  C
  C127     1.0000 0.99430  0.96160  0.91970  Biso   1.000  C
  C128     1.0000 0.00570  0.96160  0.58030  Biso   1.000  C
  C129     1.0000 0.67410  0.31590  0.23280  Biso   1.000  C
  C130     1.0000 0.32590  0.31590  0.26720  Biso   1.000  C
  C131     1.0000 0.17410  0.81590  0.23280  Biso   1.000  C
  C132     1.0000 0.82590  0.81590  0.26720  Biso   1.000  C
  C133     1.0000 0.32590  0.68410  0.76720  Biso   1.000  C
  C134     1.0000 0.67410  0.68410  0.73280  Biso   1.000  C
  C135     1.0000 0.82590  0.18410  0.76720  Biso   1.000  C
  C136     1.0000 0.17410  0.18410  0.73280  Biso   1.000  C
  H113     1.0000 0.67720  0.24260  0.25170  Biso   1.000  H
  H114     1.0000 0.32280  0.24260  0.24830  Biso   1.000  H
  H115     1.0000 0.17720  0.74260  0.25170  Biso   1.000  H
  H116     1.0000 0.82280  0.74260  0.24830  Biso   1.000  H
  H117     1.0000 0.32280  0.75740  0.74830  Biso   1.000  H
  H118     1.0000 0.67720  0.75740  0.75170  Biso   1.000  H
  H119     1.0000 0.82280  0.25740  0.74830  Biso   1.000  H
  H120     1.0000 0.17720  0.25740  0.75170  Biso   1.000  H
  H121     1.0000 0.64830  0.35860  0.25180  Biso   1.000  H
  H122     1.0000 0.35170  0.35860  0.24820  Biso   1.000  H
  H123     1.0000 0.14830  0.85860  0.25180  Biso   1.000  H
  H124     1.0000 0.85170  0.85860  0.24820  Biso   1.000  H
  H125     1.0000 0.35170  0.64140  0.74820  Biso   1.000  H
  H126     1.0000 0.64830  0.64140  0.75180  Biso   1.000  H
  H127     1.0000 0.85170  0.14140  0.74820  Biso   1.000  H
  H128     1.0000 0.14830  0.14140  0.75180  Biso   1.000  H
  C137     1.0000 0.73050  0.36810  0.24730  Biso   1.000  C
  C138     1.0000 0.26950  0.36810  0.25270  Biso   1.000  C
  C139     1.0000 0.23050  0.86810  0.24730  Biso   1.000  C
  C140     1.0000 0.76950  0.86810  0.25270  Biso   1.000  C
  C141     1.0000 0.26950  0.63190  0.75270  Biso   1.000  C
  C142     1.0000 0.73050  0.63190  0.74730  Biso   1.000  C
  C143     1.0000 0.76950  0.13190  0.75270  Biso   1.000  C
  C144     1.0000 0.23050  0.13190  0.74730  Biso   1.000  C
  C145     1.0000 0.79790  0.46640  0.23050  Biso   1.000  C
  C146     1.0000 0.20210  0.46640  0.26950  Biso   1.000  C
  C147     1.0000 0.29790  0.96640  0.23050  Biso   1.000  C
  C148     1.0000 0.70210  0.96640  0.26950  Biso   1.000  C
  C149     1.0000 0.20210  0.53360  0.76950  Biso   1.000  C
  C150     1.0000 0.79790  0.53360  0.73050  Biso   1.000  C
  C151     1.0000 0.70210  0.03360  0.76950  Biso   1.000  C
  C152     1.0000 0.29790  0.03360  0.73050  Biso   1.000  C
  C153     1.0000 0.83310  0.53050  0.20580  Biso   1.000  C
  C154     1.0000 0.16690  0.53050  0.29420  Biso   1.000  C
  C155     1.0000 0.33310  0.03050  0.20580  Biso   1.000  C
  C156     1.0000 0.66690  0.03050  0.29420  Biso   1.000  C
  C157     1.0000 0.16690  0.46950  0.79420  Biso   1.000  C
  C158     1.0000 0.83310  0.46950  0.70580  Biso   1.000  C
  C159     1.0000 0.66690  0.96950  0.79420  Biso   1.000  C
  C160     1.0000 0.33310  0.96950  0.70580  Biso   1.000  C
  H129     1.0000 0.82130  0.56010  0.16310  Biso   1.000  H
  H130     1.0000 0.17870  0.56010  0.33690  Biso   1.000  H
  H131     1.0000 0.32130  0.06010  0.16310  Biso   1.000  H
  H132     1.0000 0.67870  0.06010  0.33690  Biso   1.000  H
  H133     1.0000 0.17870  0.43990  0.83690  Biso   1.000  H
  H134     1.0000 0.82130  0.43990  0.66310  Biso   1.000  H
  H135     1.0000 0.67870  0.93990  0.83690  Biso   1.000  H
  H136     1.0000 0.32130  0.93990  0.66310  Biso   1.000  H
  C161     1.0000 0.88600  0.55020  0.24550  Biso   1.000  C
  C162     1.0000 0.11400  0.55020  0.25450  Biso   1.000  C
  C163     1.0000 0.38600  0.05020  0.24550  Biso   1.000  C
  C164     1.0000 0.61400  0.05020  0.25450  Biso   1.000  C
  C165     1.0000 0.11400  0.44980  0.75450  Biso   1.000  C
  C166     1.0000 0.88600  0.44980  0.74550  Biso   1.000  C
  C167     1.0000 0.61400  0.94980  0.75450  Biso   1.000  C
  C168     1.0000 0.38600  0.94980  0.74550  Biso   1.000  C
  H137     1.0000 0.91100  0.59480  0.22990  Biso   1.000  H
  H138     1.0000 0.08900  0.59480  0.27010  Biso   1.000  H
  H139     1.0000 0.41100  0.09480  0.22990  Biso   1.000  H
  H140     1.0000 0.58900  0.09480  0.27010  Biso   1.000  H
  H141     1.0000 0.08900  0.40520  0.77010  Biso   1.000  H
  H142     1.0000 0.91100  0.40520  0.72990  Biso   1.000  H
  H143     1.0000 0.58900  0.90520  0.77010  Biso   1.000  H
  H144     1.0000 0.41100  0.90520  0.72990  Biso   1.000  H
  C169     1.0000 0.90360  0.50510  0.30900  Biso   1.000  C
  C170     1.0000 0.09640  0.50510  0.19100  Biso   1.000  C
  C171     1.0000 0.40360  0.00510  0.30900  Biso   1.000  C
  C172     1.0000 0.59640  0.00510  0.19100  Biso   1.000  C
  C173     1.0000 0.09640  0.49490  0.69100  Biso   1.000  C
  C174     1.0000 0.90360  0.49490  0.80900  Biso   1.000  C
  C175     1.0000 0.59640  0.99490  0.69100  Biso   1.000  C
  C176     1.0000 0.40360  0.99490  0.80900  Biso   1.000  C
  H145     1.0000 0.94070  0.51920  0.33450  Biso   1.000  H
  H146     1.0000 0.05930  0.51920  0.16550  Biso   1.000  H
  H147     1.0000 0.44070  0.01920  0.33450  Biso   1.000  H
  H148     1.0000 0.55930  0.01920  0.16550  Biso   1.000  H
  H149     1.0000 0.05930  0.48080  0.66550  Biso   1.000  H
  H150     1.0000 0.94070  0.48080  0.83450  Biso   1.000  H
  H151     1.0000 0.55930  0.98080  0.66550  Biso   1.000  H
  H152     1.0000 0.44070  0.98080  0.83450  Biso   1.000  H
  C177     1.0000 0.86900  0.44160  0.33500  Biso   1.000  C
  C178     1.0000 0.13100  0.44160  0.16500  Biso   1.000  C
  C179     1.0000 0.36900  0.94160  0.33500  Biso   1.000  C
  C180     1.0000 0.63100  0.94160  0.16500  Biso   1.000  C
  C181     1.0000 0.13100  0.55840  0.66500  Biso   1.000  C
  C182     1.0000 0.86900  0.55840  0.83500  Biso   1.000  C
  C183     1.0000 0.63100  0.05840  0.66500  Biso   1.000  C
  C184     1.0000 0.36900  0.05840  0.83500  Biso   1.000  C
  H153     1.0000 0.88040  0.41310  0.37810  Biso   1.000  H
  H154     1.0000 0.11960  0.41310  0.12190  Biso   1.000  H
  H155     1.0000 0.38040  0.91310  0.37810  Biso   1.000  H
  H156     1.0000 0.61960  0.91310  0.12190  Biso   1.000  H
  H157     1.0000 0.11960  0.58690  0.62190  Biso   1.000  H
  H158     1.0000 0.88040  0.58690  0.87810  Biso   1.000  H
  H159     1.0000 0.61960  0.08690  0.62190  Biso   1.000  H
  H160     1.0000 0.38040  0.08690  0.87810  Biso   1.000  H
  C185     1.0000 0.81610  0.42230  0.29360  Biso   1.000  C
  C186     1.0000 0.18390  0.42230  0.20640  Biso   1.000  C
  C187     1.0000 0.31610  0.92230  0.29360  Biso   1.000  C
  C188     1.0000 0.68390  0.92230  0.20640  Biso   1.000  C
  C189     1.0000 0.18390  0.57770  0.70640  Biso   1.000  C
  C190     1.0000 0.81610  0.57770  0.79360  Biso   1.000  C
  C191     1.0000 0.68390  0.07770  0.70640  Biso   1.000  C
  C192     1.0000 0.31610  0.07770  0.79360  Biso   1.000  C
  C193     1.0000 0.77280  0.28560  0.35680  Biso   1.000  C
  C194     1.0000 0.22720  0.28560  0.14320  Biso   1.000  C
  C195     1.0000 0.27280  0.78560  0.35680  Biso   1.000  C
  C196     1.0000 0.72720  0.78560  0.14320  Biso   1.000  C
  C197     1.0000 0.22720  0.71440  0.64320  Biso   1.000  C
  C198     1.0000 0.77280  0.71440  0.85680  Biso   1.000  C
  C199     1.0000 0.72720  0.21440  0.64320  Biso   1.000  C
  C200     1.0000 0.27280  0.21440  0.85680  Biso   1.000  C
  H161     1.0000 0.73450  0.27820  0.36310  Biso   1.000  H
  H162     1.0000 0.26550  0.27820  0.13690  Biso   1.000  H
  H163     1.0000 0.23450  0.77820  0.36310  Biso   1.000  H
  H164     1.0000 0.76550  0.77820  0.13690  Biso   1.000  H
  H165     1.0000 0.26550  0.72180  0.63690  Biso   1.000  H
  H166     1.0000 0.73450  0.72180  0.86310  Biso   1.000  H
  H167     1.0000 0.76550  0.22180  0.63690  Biso   1.000  H
  H168     1.0000 0.23450  0.22180  0.86310  Biso   1.000  H
  H169     1.0000 0.79750  0.31460  0.39770  Biso   1.000  H
  H170     1.0000 0.20250  0.31460  0.10230  Biso   1.000  H
  H171     1.0000 0.29750  0.81460  0.39770  Biso   1.000  H
  H172     1.0000 0.70250  0.81460  0.10230  Biso   1.000  H
  H173     1.0000 0.20250  0.68540  0.60230  Biso   1.000  H
  H174     1.0000 0.79750  0.68540  0.89770  Biso   1.000  H
  H175     1.0000 0.70250  0.18540  0.60230  Biso   1.000  H
  H176     1.0000 0.29750  0.18540  0.89770  Biso   1.000  H
  C201     1.0000 0.79410  0.17540  0.34240  Biso   1.000  C
  C202     1.0000 0.20590  0.17540  0.15760  Biso   1.000  C
  C203     1.0000 0.29410  0.67540  0.34240  Biso   1.000  C
  C204     1.0000 0.70590  0.67540  0.15760  Biso   1.000  C
  C205     1.0000 0.20590  0.82460  0.65760  Biso   1.000  C
  C206     1.0000 0.79410  0.82460  0.84240  Biso   1.000  C
  C207     1.0000 0.70590  0.32460  0.65760  Biso   1.000  C
  C208     1.0000 0.29410  0.32460  0.84240  Biso   1.000  C
  O1       1.0000 0.79634  0.10690  0.38951  Biso   1.000  O
  O2       1.0000 0.20366  0.10690  0.11049  Biso   1.000  O
  O3       1.0000 0.29634  0.60690  0.38951  Biso   1.000  O
  O4       1.0000 0.70366  0.60690  0.11049  Biso   1.000  O
  O5       1.0000 0.20366  0.89310  0.61049  Biso   1.000  O
  O6       1.0000 0.79634  0.89310  0.88951  Biso   1.000  O
  O7       1.0000 0.70366  0.39310  0.61049  Biso   1.000  O
  O8       1.0000 0.29634  0.39310  0.88951  Biso   1.000  O
  O9       1.0000 0.80689  0.15720  0.29180  Biso   1.000  O
  O10      1.0000 0.19311  0.15720  0.20820  Biso   1.000  O
  O11      1.0000 0.30689  0.65720  0.29180  Biso   1.000  O
  O12      1.0000 0.69311  0.65720  0.20820  Biso   1.000  O
  O13      1.0000 0.19311  0.84280  0.70820  Biso   1.000  O
  O14      1.0000 0.80689  0.84280  0.79180  Biso   1.000  O
  O15      1.0000 0.69311  0.34280  0.70820  Biso   1.000  O
  O16      1.0000 0.30689  0.34280  0.79180  Biso   1.000  O
  N57      1.0000 0.50000  0.46470  0.25000  Biso   1.000  N
  N58      1.0000 0.00000  0.96470  0.25000  Biso   1.000  N
  N59      1.0000 0.50000  0.53530  0.75000  Biso   1.000  N
  N60      1.0000 0.00000  0.03530  0.75000  Biso   1.000  N
  O17      1.0000 0.54690  0.42010  0.25660  Biso   1.000  O
  O18      1.0000 0.45310  0.42010  0.24340  Biso   1.000  O
  O19      1.0000 0.04690  0.92010  0.25660  Biso   1.000  O
  O20      1.0000 0.95310  0.92010  0.24340  Biso   1.000  O
  O21      1.0000 0.45310  0.57990  0.74340  Biso   1.000  O
  O22      1.0000 0.54690  0.57990  0.75660  Biso   1.000  O
  O23      1.0000 0.95310  0.07990  0.74340  Biso   1.000  O
  O24      1.0000 0.04690  0.07990  0.75660  Biso   1.000  O
  C209     1.0000 0.50000  0.58610  0.25000  Biso   1.000  C
  C210     1.0000 0.00000  0.08610  0.25000  Biso   1.000  C
  C211     1.0000 0.50000  0.41390  0.75000  Biso   1.000  C
  C212     1.0000 0.00000  0.91390  0.75000  Biso   1.000  C
  C213     1.0000 0.54630  0.63950  0.24110  Biso   1.000  C
  C214     1.0000 0.45370  0.63950  0.25890  Biso   1.000  C
  C215     1.0000 0.04630  0.13950  0.24110  Biso   1.000  C
  C216     1.0000 0.95370  0.13950  0.25890  Biso   1.000  C
  C217     1.0000 0.45370  0.36050  0.75890  Biso   1.000  C
  C218     1.0000 0.54630  0.36050  0.74110  Biso   1.000  C
  C219     1.0000 0.95370  0.86050  0.75890  Biso   1.000  C
  C220     1.0000 0.04630  0.86050  0.74110  Biso   1.000  C
  H177     1.0000 0.57790  0.60100  0.23530  Biso   1.000  H
  H178     1.0000 0.42210  0.60100  0.26470  Biso   1.000  H
  H179     1.0000 0.07790  0.10100  0.23530  Biso   1.000  H
  H180     1.0000 0.92210  0.10100  0.26470  Biso   1.000  H
  H181     1.0000 0.42210  0.39900  0.76470  Biso   1.000  H
  H182     1.0000 0.57790  0.39900  0.73530  Biso   1.000  H
  H183     1.0000 0.92210  0.89900  0.76470  Biso   1.000  H
  H184     1.0000 0.07790  0.89900  0.73530  Biso   1.000  H
  C221     1.0000 0.54540  0.74630  0.24090  Biso   1.000  C
  C222     1.0000 0.45460  0.74630  0.25910  Biso   1.000  C
  C223     1.0000 0.04540  0.24630  0.24090  Biso   1.000  C
  C224     1.0000 0.95460  0.24630  0.25910  Biso   1.000  C
  C225     1.0000 0.45460  0.25370  0.75910  Biso   1.000  C
  C226     1.0000 0.54540  0.25370  0.74090  Biso   1.000  C
  C227     1.0000 0.95460  0.75370  0.75910  Biso   1.000  C
  C228     1.0000 0.04540  0.75370  0.74090  Biso   1.000  C
  H185     1.0000 0.57680  0.78480  0.23440  Biso   1.000  H
  H186     1.0000 0.42320  0.78480  0.26560  Biso   1.000  H
  H187     1.0000 0.07680  0.28480  0.23440  Biso   1.000  H
  H188     1.0000 0.92320  0.28480  0.26560  Biso   1.000  H
  H189     1.0000 0.42320  0.21520  0.76560  Biso   1.000  H
  H190     1.0000 0.57680  0.21520  0.73440  Biso   1.000  H
  H191     1.0000 0.92320  0.71520  0.76560  Biso   1.000  H
  H192     1.0000 0.07680  0.71520  0.73440  Biso   1.000  H
  C229     1.0000 0.50000  0.80210  0.25000  Biso   1.000  C
  C230     1.0000 0.00000  0.30210  0.25000  Biso   1.000  C
  C231     1.0000 0.50000  0.19790  0.75000  Biso   1.000  C
  C232     1.0000 0.00000  0.69790  0.75000  Biso   1.000  C
  H193     1.0000 0.50000  0.87860  0.25000  Biso   1.000  H
  H194     1.0000 0.00000  0.37860  0.25000  Biso   1.000  H
  H195     1.0000 0.50000  0.12140  0.75000  Biso   1.000  H
  H196     1.0000 0.00000  0.62140  0.75000  Biso   1.000  H
  N61      1.0000 0.40590  0.26880  0.10890  Biso   1.000  N
  N62      1.0000 0.59410  0.26880  0.39110  Biso   1.000  N
  N63      1.0000 0.90590  0.76880  0.10890  Biso   1.000  N
  N64      1.0000 0.09410  0.76880  0.39110  Biso   1.000  N
  N65      1.0000 0.59410  0.73120  0.89110  Biso   1.000  N
  N66      1.0000 0.40590  0.73120  0.60890  Biso   1.000  N
  N67      1.0000 0.09410  0.23120  0.89110  Biso   1.000  N
  N68      1.0000 0.90590  0.23120  0.60890  Biso   1.000  N
  O25      1.0000 0.35270  0.23950  0.11330  Biso   1.000  O
  O26      1.0000 0.64730  0.23950  0.38670  Biso   1.000  O
  O27      1.0000 0.85270  0.73950  0.11330  Biso   1.000  O
  O28      1.0000 0.14730  0.73950  0.38670  Biso   1.000  O
  O29      1.0000 0.64730  0.76050  0.88670  Biso   1.000  O
  O30      1.0000 0.35270  0.76050  0.61330  Biso   1.000  O
  O31      1.0000 0.14730  0.26050  0.88670  Biso   1.000  O
  O32      1.0000 0.85270  0.26050  0.61330  Biso   1.000  O
  O33      1.0000 0.39910  0.36870  0.09210  Biso   1.000  O
  O34      1.0000 0.60090  0.36870  0.40790  Biso   1.000  O
  O35      1.0000 0.89910  0.86870  0.09210  Biso   1.000  O
  O36      1.0000 0.10090  0.86870  0.40790  Biso   1.000  O
  O37      1.0000 0.60090  0.63130  0.90790  Biso   1.000  O
  O38      1.0000 0.39910  0.63130  0.59210  Biso   1.000  O
  O39      1.0000 0.10090  0.13130  0.90790  Biso   1.000  O
  O40      1.0000 0.89910  0.13130  0.59210  Biso   1.000  O
  O41      1.0000 0.45660  0.23780  0.13180  Biso   1.000  O
  O42      1.0000 0.54340  0.23780  0.36820  Biso   1.000  O
  O43      1.0000 0.95660  0.73780  0.13180  Biso   1.000  O
  O44      1.0000 0.04340  0.73780  0.36820  Biso   1.000  O
  O45      1.0000 0.54340  0.76220  0.86820  Biso   1.000  O
  O46      1.0000 0.45660  0.76220  0.63180  Biso   1.000  O
  O47      1.0000 0.04340  0.26220  0.86820  Biso   1.000  O
  O48      1.0000 0.95660  0.26220  0.63180  Biso   1.000  O
  O49      1.0000 0.64430  0.96500  0.00660  Biso   1.000  O
  O50      1.0000 0.35570  0.96500  0.49340  Biso   1.000  O
  O51      1.0000 0.14430  0.46500  0.00660  Biso   1.000  O
  O52      1.0000 0.85570  0.46500  0.49340  Biso   1.000  O
  O53      1.0000 0.35570  0.03500  0.99340  Biso   1.000  O
  O54      1.0000 0.64430  0.03500  0.50660  Biso   1.000  O
  O55      1.0000 0.85570  0.53500  0.99340  Biso   1.000  O
  O56      1.0000 0.14430  0.53500  0.50660  Biso   1.000  O
  O57      1.0000 0.72580  0.16620  0.46370  Biso   1.000  O
  O58      1.0000 0.27420  0.16620  0.03630  Biso   1.000  O
  O59      1.0000 0.22580  0.66620  0.46370  Biso   1.000  O
  O60      1.0000 0.77420  0.66620  0.03630  Biso   1.000  O
  O61      1.0000 0.27420  0.83380  0.53630  Biso   1.000  O
  O62      1.0000 0.72580  0.83380  0.96370  Biso   1.000  O
  O63      1.0000 0.77420  0.33380  0.53630  Biso   1.000  O
  O64      1.0000 0.22580  0.33380  0.96370  Biso   1.000  O
  O65      1.0000 0.54830  0.02670  0.01360  Biso   1.000  O
  O66      1.0000 0.45170  0.02670  0.48640  Biso   1.000  O
  O67      1.0000 0.04830  0.52670  0.01360  Biso   1.000  O
  O68      1.0000 0.95170  0.52670  0.48640  Biso   1.000  O
  O69      1.0000 0.45170  0.97330  0.98640  Biso   1.000  O
  O70      1.0000 0.54830  0.97330  0.51360  Biso   1.000  O
  O71      1.0000 0.95170  0.47330  0.98640  Biso   1.000  O
  O72      1.0000 0.04830  0.47330  0.51360  Biso   1.000  O
  O73      1.0000 0.55870  0.94970  0.93030  Biso   1.000  O
  O74      1.0000 0.44130  0.94970  0.56970  Biso   1.000  O
  O75      1.0000 0.05870  0.44970  0.93030  Biso   1.000  O
  O76      1.0000 0.94130  0.44970  0.56970  Biso   1.000  O
  O77      1.0000 0.44130  0.05030  0.06970  Biso   1.000  O
  O78      1.0000 0.55870  0.05030  0.43030  Biso   1.000  O
  O79      1.0000 0.94130  0.55030  0.06970  Biso   1.000  O
  O80      1.0000 0.05870  0.55030  0.43030  Biso   1.000  O
  O81      1.0000 0.50000  0.20800  0.25000  Biso   1.000  O
  O82      1.0000 0.00000  0.70800  0.25000  Biso   1.000  O
  O83      1.0000 0.50000  0.79200  0.75000  Biso   1.000  O
  O84      1.0000 0.00000  0.29200  0.75000  Biso   1.000  O
  O85      1.0000 0.67130  0.96570  0.01780  Biso   1.000  O
  O86      1.0000 0.32870  0.96570  0.48220  Biso   1.000  O
  O87      1.0000 0.17130  0.46570  0.01780  Biso   1.000  O
  O88      1.0000 0.82870  0.46570  0.48220  Biso   1.000  O
  O89      1.0000 0.32870  0.03430  0.98220  Biso   1.000  O
  O90      1.0000 0.67130  0.03430  0.51780  Biso   1.000  O
  O91      1.0000 0.82870  0.53430  0.98220  Biso   1.000  O
  O92      1.0000 0.17130  0.53430  0.51780  Biso   1.000  O
  O93      1.0000 0.76860  0.16020  0.50330  Biso   1.000  O
  O94      1.0000 0.23140  0.16020  0.99670  Biso   1.000  O
  O95      1.0000 0.26860  0.66020  0.50330  Biso   1.000  O
  O96      1.0000 0.73140  0.66020  0.99670  Biso   1.000  O
  O97      1.0000 0.23140  0.83980  0.49670  Biso   1.000  O
  O98      1.0000 0.76860  0.83980  0.00330  Biso   1.000  O
  O99      1.0000 0.73140  0.33980  0.49670  Biso   1.000  O
  O100     1.0000 0.26860  0.33980  0.00330  Biso   1.000  O
  O101     1.0000 0.52240  0.04600  0.04960  Biso   1.000  O
  O102     1.0000 0.47760  0.04600  0.45040  Biso   1.000  O
  O103     1.0000 0.02240  0.54600  0.04960  Biso   1.000  O
  O104     1.0000 0.97760  0.54600  0.45040  Biso   1.000  O
  O105     1.0000 0.47760  0.95400  0.95040  Biso   1.000  O
  O106     1.0000 0.52240  0.95400  0.54960  Biso   1.000  O
  O107     1.0000 0.97760  0.45400  0.95040  Biso   1.000  O
  O108     1.0000 0.02240  0.45400  0.54960  Biso   1.000  O
  O109     1.0000 0.53770  0.96480  0.95420  Biso   1.000  O
  O110     1.0000 0.46230  0.96480  0.54580  Biso   1.000  O
  O111     1.0000 0.03770  0.46480  0.95420  Biso   1.000  O
  O112     1.0000 0.96230  0.46480  0.54580  Biso   1.000  O
  O113     1.0000 0.46230  0.03520  0.04580  Biso   1.000  O
  O114     1.0000 0.53770  0.03520  0.45420  Biso   1.000  O
  O115     1.0000 0.96230  0.53520  0.04580  Biso   1.000  O
  O116     1.0000 0.03770  0.53520  0.45420  Biso   1.000  O
  O117     1.0000 0.81520  0.17900  0.51960  Biso   1.000  O
  O118     1.0000 0.18480  0.17900  0.98040  Biso   1.000  O
  O119     1.0000 0.31520  0.67900  0.51960  Biso   1.000  O
  O120     1.0000 0.68480  0.67900  0.98040  Biso   1.000  O
  O121     1.0000 0.18480  0.82100  0.48040  Biso   1.000  O
  O122     1.0000 0.81520  0.82100  0.01960  Biso   1.000  O
  O123     1.0000 0.68480  0.32100  0.48040  Biso   1.000  O
  O124     1.0000 0.31520  0.32100  0.01960  Biso   1.000  O
