data_image0
_cell_length_a       13.3081
_cell_length_b       6.8904
_cell_length_c       13.4554
_cell_angle_alpha    90
_cell_angle_beta     110.873
_cell_angle_gamma    90

_symmetry_space_group_name_H-M    "P 1"
_symmetry_int_tables_number       1

loop_
  _symmetry_equiv_pos_as_xyz
  'x, y, z'

loop_
  _atom_site_label
  _atom_site_occupancy
  _atom_site_fract_x
  _atom_site_fract_y
  _atom_site_fract_z
  _atom_site_thermal_displace_type
  _atom_site_B_iso_or_equiv
  _atom_site_type_symbol
  C1       1.0000 0.21390  0.26280  0.83790  Biso   1.000  C
  C2       1.0000 0.78610  0.76280  0.16210  Biso   1.000  C
  C3       1.0000 0.19110  0.20900  0.93760  Biso   1.000  C
  C4       1.0000 0.80890  0.70900  0.06240  Biso   1.000  C
  H1       1.0000 0.25060  0.25340  0.99930  Biso   1.000  H
  H2       1.0000 0.74940  0.75340  0.00070  Biso   1.000  H
  H3       1.0000 0.12720  0.27760  0.93660  Biso   1.000  H
  H4       1.0000 0.87280  0.77760  0.06340  Biso   1.000  H
  C5       1.0000 0.07580  0.92970  0.89870  Biso   1.000  C
  C6       1.0000 0.92420  0.42970  0.10130  Biso   1.000  C
  C7       1.0000 0.06460  0.74110  0.93340  Biso   1.000  C
  C8       1.0000 0.93540  0.24110  0.06660  Biso   1.000  C
  H5       1.0000 0.12340  0.67940  0.98280  Biso   1.000  H
  H6       1.0000 0.87660  0.17940  0.01720  Biso   1.000  H
  C9       1.0000 0.96850  0.64930  0.89530  Biso   1.000  C
  C10      1.0000 0.03150  0.14930  0.10470  Biso   1.000  C
  H7       1.0000 0.96200  0.52600  0.92050  Biso   1.000  H
  H8       1.0000 0.03800  0.02600  0.07950  Biso   1.000  H
  C11      1.0000 0.87740  0.73620  0.81780  Biso   1.000  C
  C12      1.0000 0.12260  0.23620  0.18220  Biso   1.000  C
  C13      1.0000 0.89030  0.92340  0.78040  Biso   1.000  C
  C14      1.0000 0.10970  0.42340  0.21960  Biso   1.000  C
  C15      1.0000 0.99120  0.01920  0.82250  Biso   1.000  C
  C16      1.0000 0.00880  0.51920  0.17750  Biso   1.000  C
  H9       1.0000 0.99970  0.14240  0.79850  Biso   1.000  H
  H10      1.0000 0.00030  0.64240  0.20150  Biso   1.000  H
  C17      1.0000 0.80050  0.00940  0.69910  Biso   1.000  C
  C18      1.0000 0.19950  0.50940  0.30090  Biso   1.000  C
  H11      1.0000 0.80760  0.13110  0.67240  Biso   1.000  H
  H12      1.0000 0.19240  0.63110  0.32760  Biso   1.000  H
  C19      1.0000 0.70430  0.91390  0.66030  Biso   1.000  C
  C20      1.0000 0.29570  0.41390  0.33970  Biso   1.000  C
  C21      1.0000 0.69170  0.73000  0.70040  Biso   1.000  C
  C22      1.0000 0.30830  0.23000  0.29960  Biso   1.000  C
  H13      1.0000 0.62580  0.66640  0.67390  Biso   1.000  H
  H14      1.0000 0.37420  0.16640  0.32610  Biso   1.000  H
  C23      1.0000 0.77540  0.64660  0.77720  Biso   1.000  C
  C24      1.0000 0.22460  0.14660  0.22280  Biso   1.000  C
  H15      1.0000 0.76570  0.52670  0.80420  Biso   1.000  H
  H16      1.0000 0.23430  0.02670  0.19580  Biso   1.000  H
  C25      1.0000 0.03320  0.54900  0.65620  Biso   1.000  C
  C26      1.0000 0.96680  0.04900  0.34380  Biso   1.000  C
  H17      1.0000 0.05420  0.56350  0.72950  Biso   1.000  H
  H18      1.0000 0.94580  0.06350  0.27050  Biso   1.000  H
  C27      1.0000 0.92580  0.54870  0.59670  Biso   1.000  C
  C28      1.0000 0.07420  0.04870  0.40330  Biso   1.000  C
  H19      1.0000 0.87520  0.56210  0.62930  Biso   1.000  H
  H20      1.0000 0.12480  0.06210  0.37070  Biso   1.000  H
  C29      1.0000 0.89340  0.52850  0.48810  Biso   1.000  C
  C30      1.0000 0.10660  0.02850  0.51190  Biso   1.000  C
  H21      1.0000 0.82070  0.52430  0.44640  Biso   1.000  H
  H22      1.0000 0.17930  0.02430  0.55360  Biso   1.000  H
  C31      1.0000 0.96970  0.51480  0.44310  Biso   1.000  C
  C32      1.0000 0.03030  0.01480  0.55690  Biso   1.000  C
  H23      1.0000 0.94990  0.50770  0.36950  Biso   1.000  H
  H24      1.0000 0.05010  0.00770  0.63050  Biso   1.000  H
  C33      1.0000 0.07730  0.51140  0.50770  Biso   1.000  C
  C34      1.0000 0.92270  0.01140  0.49230  Biso   1.000  C
  H25      1.0000 0.12870  0.49620  0.47630  Biso   1.000  H
  H26      1.0000 0.87130  0.99620  0.52370  Biso   1.000  H
  C35      1.0000 0.61070  0.16970  0.54100  Biso   1.000  C
  C36      1.0000 0.38930  0.66970  0.45900  Biso   1.000  C
  H27      1.0000 0.65580  0.25360  0.59710  Biso   1.000  H
  H28      1.0000 0.34420  0.75360  0.40290  Biso   1.000  H
  H29      1.0000 0.53770  0.21880  0.51980  Biso   1.000  H
  H30      1.0000 0.46230  0.71880  0.48020  Biso   1.000  H
  C37      1.0000 0.64740  0.18640  0.44620  Biso   1.000  C
  C38      1.0000 0.35260  0.68640  0.55380  Biso   1.000  C
  C39      1.0000 0.47550  0.45650  0.88110  Biso   1.000  C
  C40      1.0000 0.52450  0.95650  0.11890  Biso   1.000  C
  H31      1.0000 0.45150  0.56240  0.90930  Biso   1.000  H
  H32      1.0000 0.54850  0.06240  0.09070  Biso   1.000  H
  C41      1.0000 0.56990  0.36620  0.94180  Biso   1.000  C
  C42      1.0000 0.43010  0.86620  0.05820  Biso   1.000  C
  H33      1.0000 0.60870  0.41100  0.00990  Biso   1.000  H
  H34      1.0000 0.39130  0.91100  0.99010  Biso   1.000  H
  C43      1.0000 0.60540  0.21350  0.90200  Biso   1.000  C
  C44      1.0000 0.39460  0.71350  0.09800  Biso   1.000  C
  H35      1.0000 0.66840  0.15030  0.94250  Biso   1.000  H
  H36      1.0000 0.33160  0.65030  0.05750  Biso   1.000  H
  C45      1.0000 0.54730  0.15120  0.80030  Biso   1.000  C
  C46      1.0000 0.45270  0.65120  0.19970  Biso   1.000  C
  H37      1.0000 0.57100  0.04640  0.77100  Biso   1.000  H
  H38      1.0000 0.42900  0.54640  0.22900  Biso   1.000  H
  C47      1.0000 0.45470  0.24580  0.74340  Biso   1.000  C
  C48      1.0000 0.54530  0.74580  0.25660  Biso   1.000  C
  H39      1.0000 0.41590  0.20410  0.67460  Biso   1.000  H
  H40      1.0000 0.58410  0.70410  0.32540  Biso   1.000  H
  Cu1      1.0000 0.26889  0.50710  0.70500  Biso   1.000  Cu
  Cu2      1.0000 0.73111  0.00710  0.29500  Biso   1.000  Cu
  H41      1.0000 0.34900  0.84600  0.71700  Biso   1.000  H
  H42      1.0000 0.65100  0.34600  0.28300  Biso   1.000  H
  N1       1.0000 0.11010  0.52910  0.61340  Biso   1.000  N
  N2       1.0000 0.88990  0.02910  0.38660  Biso   1.000  N
  N3       1.0000 0.41740  0.39650  0.78270  Biso   1.000  N
  N4       1.0000 0.58260  0.89650  0.21730  Biso   1.000  N
  O1       1.0000 0.23260  0.44280  0.83150  Biso   1.000  O
  O2       1.0000 0.76740  0.94280  0.16850  Biso   1.000  O
  O3       1.0000 0.21210  0.13790  0.77140  Biso   1.000  O
  O4       1.0000 0.78790  0.63790  0.22860  Biso   1.000  O
  O5       1.0000 0.17590  0.00810  0.94910  Biso   1.000  O
  O6       1.0000 0.82410  0.50810  0.05090  Biso   1.000  O
  O7       1.0000 0.61290  0.98170  0.58370  Biso   1.000  O
  O8       1.0000 0.38710  0.48170  0.41630  Biso   1.000  O
  O9       1.0000 0.68950  0.03770  0.42180  Biso   1.000  O
  O10      1.0000 0.31050  0.53770  0.57820  Biso   1.000  O
  O11      1.0000 0.63340  0.34590  0.40200  Biso   1.000  O
  O12      1.0000 0.36660  0.84590  0.59800  Biso   1.000  O
  O13      1.0000 0.31870  0.80130  0.77320  Biso   1.000  O
  O14      1.0000 0.68130  0.30130  0.22680  Biso   1.000  O
  H43      1.0000 0.26600  0.86020  0.77550  Biso   1.000  H
  H44      1.0000 0.73400  0.36020  0.22450  Biso   1.000  H
