data_image0
_cell_length_a       23.9719
_cell_length_b       11.9127
_cell_length_c       8.9852
_cell_angle_alpha    90
_cell_angle_beta     90
_cell_angle_gamma    90

_symmetry_space_group_name_H-M    "P 1"
_symmetry_int_tables_number       1

loop_
  _symmetry_equiv_pos_as_xyz
  'x, y, z'

loop_
  _atom_site_label
  _atom_site_occupancy
  _atom_site_fract_x
  _atom_site_fract_y
  _atom_site_fract_z
  _atom_site_thermal_displace_type
  _atom_site_B_iso_or_equiv
  _atom_site_type_symbol
  C1       1.0000 0.11071  0.13930  0.37310  Biso   1.000  C
  C2       1.0000 0.88929  0.86070  0.87310  Biso   1.000  C
  C3       1.0000 0.38929  0.63930  0.87310  Biso   1.000  C
  C4       1.0000 0.61071  0.36070  0.37310  Biso   1.000  C
  H1       1.0000 0.11080  0.21440  0.40120  Biso   1.000  H
  H2       1.0000 0.88920  0.78560  0.90120  Biso   1.000  H
  H3       1.0000 0.38920  0.71440  0.90120  Biso   1.000  H
  H4       1.0000 0.61080  0.28560  0.40120  Biso   1.000  H
  C5       1.0000 0.06409  0.07770  0.40180  Biso   1.000  C
  C6       1.0000 0.93591  0.92230  0.90180  Biso   1.000  C
  C7       1.0000 0.43591  0.57770  0.90180  Biso   1.000  C
  C8       1.0000 0.56409  0.42230  0.40180  Biso   1.000  C
  H5       1.0000 0.03280  0.11140  0.44360  Biso   1.000  H
  H6       1.0000 0.96720  0.88860  0.94360  Biso   1.000  H
  H7       1.0000 0.46720  0.61140  0.94360  Biso   1.000  H
  H8       1.0000 0.53280  0.38860  0.44360  Biso   1.000  H
  C9       1.0000 0.06365  0.96290  0.36770  Biso   1.000  C
  C10      1.0000 0.93635  0.03710  0.86770  Biso   1.000  C
  C11      1.0000 0.43635  0.46290  0.86770  Biso   1.000  C
  C12      1.0000 0.56365  0.53710  0.36770  Biso   1.000  C
  C13      1.0000 0.10949  0.92180  0.29550  Biso   1.000  C
  C14      1.0000 0.89051  0.07820  0.79550  Biso   1.000  C
  C15      1.0000 0.39051  0.42180  0.79550  Biso   1.000  C
  C16      1.0000 0.60949  0.57820  0.29550  Biso   1.000  C
  H9       1.0000 0.11050  0.84680  0.26670  Biso   1.000  H
  H10      1.0000 0.88950  0.15320  0.76670  Biso   1.000  H
  H11      1.0000 0.38950  0.34680  0.76670  Biso   1.000  H
  H12      1.0000 0.61050  0.65320  0.26670  Biso   1.000  H
  C17      1.0000 0.15466  0.99120  0.26460  Biso   1.000  C
  C18      1.0000 0.84534  0.00880  0.76460  Biso   1.000  C
  C19      1.0000 0.34534  0.49120  0.76460  Biso   1.000  C
  C20      1.0000 0.65466  0.50880  0.26460  Biso   1.000  C
  H13      1.0000 0.18480  0.96160  0.21260  Biso   1.000  H
  H14      1.0000 0.81520  0.03840  0.71260  Biso   1.000  H
  H15      1.0000 0.31520  0.46160  0.71260  Biso   1.000  H
  H16      1.0000 0.68480  0.53840  0.21260  Biso   1.000  H
  C21      1.0000 0.01558  0.88770  0.40950  Biso   1.000  C
  C22      1.0000 0.98442  0.11230  0.90950  Biso   1.000  C
  C23      1.0000 0.48442  0.38770  0.90950  Biso   1.000  C
  C24      1.0000 0.51558  0.61230  0.40950  Biso   1.000  C
  H17      1.0000 0.02480  0.85020  0.50210  Biso   1.000  H
  H18      1.0000 0.97520  0.14980  0.00210  Biso   1.000  H
  H19      1.0000 0.47520  0.35020  0.00210  Biso   1.000  H
  H20      1.0000 0.52480  0.64980  0.50210  Biso   1.000  H
  H21      1.0000 0.01190  0.83030  0.33360  Biso   1.000  H
  H22      1.0000 0.98810  0.16970  0.83360  Biso   1.000  H
  H23      1.0000 0.48810  0.33030  0.83360  Biso   1.000  H
  H24      1.0000 0.51190  0.66970  0.33360  Biso   1.000  H
  C25      1.0000 0.95952  0.94450  0.42810  Biso   1.000  C
  C26      1.0000 0.04048  0.05550  0.92810  Biso   1.000  C
  C27      1.0000 0.54048  0.44450  0.92810  Biso   1.000  C
  C28      1.0000 0.45952  0.55550  0.42810  Biso   1.000  C
  H25      1.0000 0.93290  0.89080  0.46740  Biso   1.000  H
  H26      1.0000 0.06710  0.10920  0.96740  Biso   1.000  H
  H27      1.0000 0.56710  0.39080  0.96740  Biso   1.000  H
  H28      1.0000 0.43290  0.60920  0.46740  Biso   1.000  H
  H29      1.0000 0.96300  0.00520  0.49930  Biso   1.000  H
  H30      1.0000 0.03700  0.99480  0.99930  Biso   1.000  H
  H31      1.0000 0.53700  0.50520  0.99930  Biso   1.000  H
  H32      1.0000 0.46300  0.49480  0.49930  Biso   1.000  H
  C29      1.0000 0.93789  0.99050  0.28310  Biso   1.000  C
  C30      1.0000 0.06211  0.00950  0.78310  Biso   1.000  C
  C31      1.0000 0.56211  0.49050  0.78310  Biso   1.000  C
  C32      1.0000 0.43789  0.50950  0.28310  Biso   1.000  C
  H33      1.0000 0.96730  0.03480  0.23770  Biso   1.000  H
  H34      1.0000 0.03270  0.96520  0.73770  Biso   1.000  H
  H35      1.0000 0.53270  0.53480  0.73770  Biso   1.000  H
  H36      1.0000 0.46730  0.46520  0.23770  Biso   1.000  H
  H37      1.0000 0.93040  0.92780  0.21720  Biso   1.000  H
  H38      1.0000 0.06960  0.07220  0.71720  Biso   1.000  H
  H39      1.0000 0.56960  0.42780  0.71720  Biso   1.000  H
  H40      1.0000 0.43040  0.57220  0.21720  Biso   1.000  H
  C33      1.0000 0.88626  0.06180  0.29130  Biso   1.000  C
  C34      1.0000 0.11374  0.93820  0.79130  Biso   1.000  C
  C35      1.0000 0.61374  0.56180  0.79130  Biso   1.000  C
  C36      1.0000 0.38626  0.43820  0.29130  Biso   1.000  C
  C37      1.0000 0.88414  0.15670  0.37990  Biso   1.000  C
  C38      1.0000 0.11586  0.84330  0.87990  Biso   1.000  C
  C39      1.0000 0.61586  0.65670  0.87990  Biso   1.000  C
  C40      1.0000 0.38414  0.34330  0.37990  Biso   1.000  C
  H41      1.0000 0.91430  0.17510  0.44030  Biso   1.000  H
  H42      1.0000 0.08570  0.82490  0.94030  Biso   1.000  H
  H43      1.0000 0.58570  0.67510  0.94030  Biso   1.000  H
  H44      1.0000 0.41430  0.32490  0.44030  Biso   1.000  H
  C41      1.0000 0.83670  0.22490  0.37890  Biso   1.000  C
  C42      1.0000 0.16330  0.77510  0.87890  Biso   1.000  C
  C43      1.0000 0.66330  0.72490  0.87890  Biso   1.000  C
  C44      1.0000 0.33670  0.27510  0.37890  Biso   1.000  C
  H45      1.0000 0.83620  0.28940  0.43730  Biso   1.000  H
  H46      1.0000 0.16380  0.71060  0.93730  Biso   1.000  H
  H47      1.0000 0.66380  0.78940  0.93730  Biso   1.000  H
  H48      1.0000 0.33620  0.21060  0.43730  Biso   1.000  H
  C45      1.0000 0.79373  0.10680  0.21560  Biso   1.000  C
  C46      1.0000 0.20627  0.89320  0.71560  Biso   1.000  C
  C47      1.0000 0.70627  0.60680  0.71560  Biso   1.000  C
  C48      1.0000 0.29373  0.39320  0.21560  Biso   1.000  C
  H49      1.0000 0.76250  0.08900  0.15890  Biso   1.000  H
  H50      1.0000 0.23750  0.91100  0.65890  Biso   1.000  H
  H51      1.0000 0.73750  0.58900  0.65890  Biso   1.000  H
  H52      1.0000 0.26250  0.41100  0.15890  Biso   1.000  H
  C49      1.0000 0.83819  0.03490  0.20980  Biso   1.000  C
  C50      1.0000 0.16181  0.96510  0.70980  Biso   1.000  C
  C51      1.0000 0.66181  0.53490  0.70980  Biso   1.000  C
  C52      1.0000 0.33819  0.46510  0.20980  Biso   1.000  C
  H53      1.0000 0.83660  0.96970  0.15300  Biso   1.000  H
  H54      1.0000 0.16340  0.03030  0.65300  Biso   1.000  H
  H55      1.0000 0.66340  0.46970  0.65300  Biso   1.000  H
  H56      1.0000 0.33660  0.53030  0.15300  Biso   1.000  H
  C53      1.0000 0.21949  0.27160  0.60560  Biso   1.000  C
  C54      1.0000 0.78051  0.72840  0.10560  Biso   1.000  C
  C55      1.0000 0.28051  0.77160  0.10560  Biso   1.000  C
  C56      1.0000 0.71949  0.22840  0.60560  Biso   1.000  C
  C57      1.0000 0.21700  0.24100  0.76820  Biso   1.000  C
  C58      1.0000 0.78300  0.75900  0.26820  Biso   1.000  C
  C59      1.0000 0.28300  0.74100  0.26820  Biso   1.000  C
  C60      1.0000 0.71700  0.25900  0.76820  Biso   1.000  C
  C61      1.0000 0.17156  0.26360  0.85920  Biso   1.000  C
  C62      1.0000 0.82844  0.73640  0.35920  Biso   1.000  C
  C63      1.0000 0.32844  0.76360  0.35920  Biso   1.000  C
  C64      1.0000 0.67156  0.23640  0.85920  Biso   1.000  C
  C65      1.0000 0.11602  0.30820  0.79800  Biso   1.000  C
  C66      1.0000 0.88398  0.69180  0.29800  Biso   1.000  C
  C67      1.0000 0.38398  0.80820  0.29800  Biso   1.000  C
  C68      1.0000 0.61602  0.19180  0.79800  Biso   1.000  C
  C69      1.0000 0.17582  0.24030  0.00910  Biso   1.000  C
  C70      1.0000 0.82418  0.75970  0.50910  Biso   1.000  C
  C71      1.0000 0.32418  0.74030  0.50910  Biso   1.000  C
  C72      1.0000 0.67582  0.25970  0.00910  Biso   1.000  C
  H57      1.0000 0.14490  0.25370  0.06890  Biso   1.000  H
  H58      1.0000 0.85510  0.74630  0.56890  Biso   1.000  H
  H59      1.0000 0.35510  0.75370  0.56890  Biso   1.000  H
  H60      1.0000 0.64490  0.24630  0.06890  Biso   1.000  H
  C73      1.0000 0.26579  0.17650  0.98430  Biso   1.000  C
  C74      1.0000 0.73421  0.82350  0.48430  Biso   1.000  C
  C75      1.0000 0.23421  0.67650  0.48430  Biso   1.000  C
  C76      1.0000 0.76579  0.32350  0.98430  Biso   1.000  C
  H61      1.0000 0.29800  0.14750  0.02740  Biso   1.000  H
  H62      1.0000 0.70200  0.85250  0.52740  Biso   1.000  H
  H63      1.0000 0.20200  0.64750  0.52740  Biso   1.000  H
  H64      1.0000 0.79800  0.35250  0.02740  Biso   1.000  H
  C77      1.0000 0.26526  0.19360  0.83490  Biso   1.000  C
  C78      1.0000 0.73474  0.80640  0.33490  Biso   1.000  C
  C79      1.0000 0.23474  0.69360  0.33490  Biso   1.000  C
  C80      1.0000 0.76526  0.30640  0.83490  Biso   1.000  C
  H65      1.0000 0.29600  0.17460  0.77710  Biso   1.000  H
  H66      1.0000 0.70400  0.82540  0.27710  Biso   1.000  H
  H67      1.0000 0.20400  0.67460  0.27710  Biso   1.000  H
  H68      1.0000 0.79600  0.32540  0.77710  Biso   1.000  H
  N1       1.0000 0.15660  0.09820  0.30650  Biso   1.000  N
  N2       1.0000 0.84340  0.90180  0.80650  Biso   1.000  N
  N3       1.0000 0.34340  0.59820  0.80650  Biso   1.000  N
  N4       1.0000 0.65660  0.40180  0.30650  Biso   1.000  N
  N5       1.0000 0.79191  0.20020  0.29620  Biso   1.000  N
  N6       1.0000 0.20809  0.79980  0.79620  Biso   1.000  N
  N7       1.0000 0.70809  0.70020  0.79620  Biso   1.000  N
  N8       1.0000 0.29191  0.29980  0.29620  Biso   1.000  N
  N9       1.0000 0.22200  0.19940  0.07360  Biso   1.000  N
  N10      1.0000 0.77800  0.80060  0.57360  Biso   1.000  N
  N11      1.0000 0.27800  0.69940  0.57360  Biso   1.000  N
  N12      1.0000 0.72200  0.30060  0.07360  Biso   1.000  N
  O1       1.0000 0.22491  0.19030  0.51710  Biso   1.000  O
  O2       1.0000 0.77509  0.80970  0.01710  Biso   1.000  O
  O3       1.0000 0.27509  0.69030  0.01710  Biso   1.000  O
  O4       1.0000 0.72491  0.30970  0.51710  Biso   1.000  O
  O5       1.0000 0.21807  0.37370  0.57420  Biso   1.000  O
  O6       1.0000 0.78193  0.62630  0.07420  Biso   1.000  O
  O7       1.0000 0.28193  0.87370  0.07420  Biso   1.000  O
  O8       1.0000 0.71807  0.12630  0.57420  Biso   1.000  O
  O9       1.0000 0.28496  0.04010  0.29450  Biso   1.000  O
  O10      1.0000 0.71504  0.95990  0.79450  Biso   1.000  O
  O11      1.0000 0.21504  0.54010  0.79450  Biso   1.000  O
  O12      1.0000 0.78496  0.45990  0.29450  Biso   1.000  O
  H69      1.0000 0.31560  0.05370  0.34480  Biso   1.000  H
  H70      1.0000 0.68440  0.94630  0.84480  Biso   1.000  H
  H71      1.0000 0.18440  0.55370  0.84480  Biso   1.000  H
  H72      1.0000 0.81560  0.44630  0.34480  Biso   1.000  H
  H73      1.0000 0.29450  0.02370  0.20290  Biso   1.000  H
  H74      1.0000 0.70550  0.97630  0.70290  Biso   1.000  H
  H75      1.0000 0.20550  0.52370  0.70290  Biso   1.000  H
  H76      1.0000 0.79450  0.47630  0.20290  Biso   1.000  H
  O13      1.0000 0.10346  0.28040  0.67220  Biso   1.000  O
  O14      1.0000 0.89654  0.71960  0.17220  Biso   1.000  O
  O15      1.0000 0.39654  0.78040  0.17220  Biso   1.000  O
  O16      1.0000 0.60346  0.21960  0.67220  Biso   1.000  O
  O17      1.0000 0.16290  0.38470  0.30980  Biso   1.000  O
  O18      1.0000 0.83710  0.61530  0.80980  Biso   1.000  O
  O19      1.0000 0.33710  0.88470  0.80980  Biso   1.000  O
  O20      1.0000 0.66290  0.11530  0.30980  Biso   1.000  O
  H77      1.0000 0.12920  0.37660  0.28220  Biso   1.000  H
  H78      1.0000 0.87080  0.62340  0.78220  Biso   1.000  H
  H79      1.0000 0.37080  0.87660  0.78220  Biso   1.000  H
  H80      1.0000 0.62920  0.12340  0.28220  Biso   1.000  H
  H81      1.0000 0.16370  0.40710  0.39960  Biso   1.000  H
  H82      1.0000 0.83630  0.59290  0.89960  Biso   1.000  H
  H83      1.0000 0.33630  0.90710  0.89960  Biso   1.000  H
  H84      1.0000 0.66370  0.09290  0.39960  Biso   1.000  H
  O21      1.0000 0.08805  0.36480  0.88700  Biso   1.000  O
  O22      1.0000 0.91195  0.63520  0.38700  Biso   1.000  O
  O23      1.0000 0.41195  0.86480  0.38700  Biso   1.000  O
  O24      1.0000 0.58805  0.13520  0.88700  Biso   1.000  O
  Cu1      1.0000 0.22631  0.19297  0.29759  Biso   1.000  Cu
  Cu2      1.0000 0.77369  0.80703  0.79759  Biso   1.000  Cu
  Cu3      1.0000 0.27369  0.69297  0.79759  Biso   1.000  Cu
  Cu4      1.0000 0.72631  0.30703  0.29759  Biso   1.000  Cu
  O25      1.0000 0.15140  0.50960  0.05270  Biso   1.000  O
  O26      1.0000 0.84860  0.49040  0.55270  Biso   1.000  O
  O27      1.0000 0.34860  0.00960  0.55270  Biso   1.000  O
  O28      1.0000 0.65140  0.99040  0.05270  Biso   1.000  O
  H85      1.0000 0.15550  0.47960  0.13780  Biso   1.000  H
  H86      1.0000 0.84450  0.52040  0.63780  Biso   1.000  H
  H87      1.0000 0.34450  0.97960  0.63780  Biso   1.000  H
  H88      1.0000 0.65550  0.02040  0.13780  Biso   1.000  H
  H89      1.0000 0.13810  0.46160  0.99240  Biso   1.000  H
  H90      1.0000 0.86190  0.53840  0.49240  Biso   1.000  H
  H91      1.0000 0.36190  0.96160  0.49240  Biso   1.000  H
  H92      1.0000 0.63810  0.03840  0.99240  Biso   1.000  H
  O29      1.0000 0.99840  0.30290  0.54970  Biso   1.000  O
  O30      1.0000 0.00160  0.69710  0.04970  Biso   1.000  O
  O31      1.0000 0.50160  0.80290  0.04970  Biso   1.000  O
  O32      1.0000 0.49840  0.19710  0.54970  Biso   1.000  O
  O33      1.0000 0.08740  0.64960  0.21970  Biso   1.000  O
  O34      1.0000 0.91260  0.35040  0.71970  Biso   1.000  O
  O35      1.0000 0.41260  0.14960  0.71970  Biso   1.000  O
  O36      1.0000 0.58740  0.85040  0.21970  Biso   1.000  O
  O37      1.0000 0.97340  0.43320  0.31000  Biso   1.000  O
  O38      1.0000 0.02660  0.56680  0.81000  Biso   1.000  O
  O39      1.0000 0.52660  0.93320  0.81000  Biso   1.000  O
  O40      1.0000 0.47340  0.06680  0.31000  Biso   1.000  O
