data_image0
_cell_length_a       6.181
_cell_length_b       20.695
_cell_length_c       9.932
_cell_angle_alpha    90
_cell_angle_beta     94.77
_cell_angle_gamma    90

_symmetry_space_group_name_H-M    "P 1"
_symmetry_int_tables_number       1

loop_
  _symmetry_equiv_pos_as_xyz
  'x, y, z'

loop_
  _atom_site_label
  _atom_site_occupancy
  _atom_site_fract_x
  _atom_site_fract_y
  _atom_site_fract_z
  _atom_site_thermal_displace_type
  _atom_site_B_iso_or_equiv
  _atom_site_type_symbol
  Cu1      1.0000 0.74549  0.01970  0.93418  Biso   1.000  Cu
  Cu2      1.0000 0.24549  0.48030  0.43418  Biso   1.000  Cu
  Cu3      1.0000 0.25451  0.98030  0.06582  Biso   1.000  Cu
  Cu4      1.0000 0.75451  0.51970  0.56582  Biso   1.000  Cu
  Cl1      1.0000 0.54440  0.03868  0.15067  Biso   1.000  Cl
  Cl2      1.0000 0.04440  0.46132  0.65067  Biso   1.000  Cl
  Cl3      1.0000 0.45560  0.96132  0.84933  Biso   1.000  Cl
  Cl4      1.0000 0.95560  0.53868  0.34933  Biso   1.000  Cl
  Cl5      1.0000 0.04890  0.07278  0.02660  Biso   1.000  Cl
  Cl6      1.0000 0.54890  0.42722  0.52660  Biso   1.000  Cl
  Cl7      1.0000 0.95110  0.92722  0.97340  Biso   1.000  Cl
  Cl8      1.0000 0.45110  0.57278  0.47340  Biso   1.000  Cl
  N1       1.0000 0.60160  0.17553  0.67620  Biso   1.000  N
  N2       1.0000 0.10160  0.32447  0.17620  Biso   1.000  N
  N3       1.0000 0.39840  0.82447  0.32380  Biso   1.000  N
  N4       1.0000 0.89840  0.67553  0.82380  Biso   1.000  N
  N5       1.0000 0.66120  0.09808  0.81750  Biso   1.000  N
  N6       1.0000 0.16120  0.40192  0.31750  Biso   1.000  N
  N7       1.0000 0.33880  0.90192  0.18250  Biso   1.000  N
  N8       1.0000 0.83880  0.59808  0.68250  Biso   1.000  N
  N9       1.0000 0.49800  0.13580  0.85640  Biso   1.000  N
  N10      1.0000 0.99800  0.36420  0.35640  Biso   1.000  N
  N11      1.0000 0.50200  0.86420  0.14360  Biso   1.000  N
  N12      1.0000 0.00200  0.63580  0.64360  Biso   1.000  N
  N13      1.0000 0.46280  0.18280  0.77250  Biso   1.000  N
  N14      1.0000 0.96280  0.31720  0.27250  Biso   1.000  N
  N15      1.0000 0.53720  0.81720  0.22750  Biso   1.000  N
  N16      1.0000 0.03720  0.68280  0.72750  Biso   1.000  N
  C1       1.0000 0.72650  0.12370  0.70370  Biso   1.000  C
  C2       1.0000 0.22650  0.37630  0.20370  Biso   1.000  C
  C3       1.0000 0.27350  0.87630  0.29630  Biso   1.000  C
  C4       1.0000 0.77350  0.62370  0.79630  Biso   1.000  C
  C5       1.0000 0.89360  0.10540  0.61630  Biso   1.000  C
  C6       1.0000 0.39360  0.39460  0.11630  Biso   1.000  C
  C7       1.0000 0.10640  0.89460  0.38370  Biso   1.000  C
  C8       1.0000 0.60640  0.60540  0.88370  Biso   1.000  C
  C9       1.0000 0.06060  0.06370  0.65520  Biso   1.000  C
  C10      1.0000 0.56060  0.43630  0.15520  Biso   1.000  C
  C11      1.0000 0.93940  0.93630  0.34480  Biso   1.000  C
  C12      1.0000 0.43940  0.56370  0.84480  Biso   1.000  C
  H1       1.0000 0.08800  0.04700  0.73200  Biso   1.000  H
  H2       1.0000 0.58800  0.45300  0.23200  Biso   1.000  H
  H3       1.0000 0.91200  0.95300  0.26800  Biso   1.000  H
  H4       1.0000 0.41200  0.54700  0.76800  Biso   1.000  H
  C13      1.0000 0.21400  0.04880  0.56550  Biso   1.000  C
  C14      1.0000 0.71400  0.45120  0.06550  Biso   1.000  C
  C15      1.0000 0.78600  0.95120  0.43450  Biso   1.000  C
  C16      1.0000 0.28600  0.54880  0.93450  Biso   1.000  C
  H5       1.0000 0.33100  0.01900  0.59200  Biso   1.000  H
  H6       1.0000 0.83100  0.48100  0.09200  Biso   1.000  H
  H7       1.0000 0.66900  0.98100  0.40800  Biso   1.000  H
  H8       1.0000 0.16900  0.51900  0.90800  Biso   1.000  H
  C17      1.0000 0.19200  0.07370  0.43650  Biso   1.000  C
  C18      1.0000 0.69200  0.42630  0.93650  Biso   1.000  C
  C19      1.0000 0.80800  0.92630  0.56350  Biso   1.000  C
  C20      1.0000 0.30800  0.57370  0.06350  Biso   1.000  C
  H9       1.0000 0.28700  0.06600  0.37700  Biso   1.000  H
  H10      1.0000 0.78700  0.43400  0.87700  Biso   1.000  H
  H11      1.0000 0.71300  0.93400  0.62300  Biso   1.000  H
  H12      1.0000 0.21300  0.56600  0.12300  Biso   1.000  H
  C21      1.0000 0.02680  0.11600  0.39760  Biso   1.000  C
  C22      1.0000 0.52680  0.38400  0.89760  Biso   1.000  C
  C23      1.0000 0.97320  0.88400  0.60240  Biso   1.000  C
  C24      1.0000 0.47320  0.61600  0.10240  Biso   1.000  C
  H13      1.0000 0.00800  0.12800  0.31000  Biso   1.000  H
  H14      1.0000 0.50800  0.37200  0.81000  Biso   1.000  H
  H15      1.0000 0.99200  0.87200  0.69000  Biso   1.000  H
  H16      1.0000 0.49200  0.62800  0.19000  Biso   1.000  H
  C25      1.0000 0.87650  0.13360  0.48660  Biso   1.000  C
  C26      1.0000 0.37650  0.36640  0.98660  Biso   1.000  C
  C27      1.0000 0.12350  0.86640  0.51340  Biso   1.000  C
  C28      1.0000 0.62350  0.63360  0.01340  Biso   1.000  C
  C29      1.0000 0.69400  0.18010  0.44710  Biso   1.000  C
  C30      1.0000 0.19400  0.31990  0.94710  Biso   1.000  C
  C31      1.0000 0.30600  0.81990  0.55290  Biso   1.000  C
  C32      1.0000 0.80600  0.68010  0.05290  Biso   1.000  C
  H17      1.0000 0.56200  0.15500  0.40900  Biso   1.000  H
  H18      1.0000 0.06200  0.34500  0.90900  Biso   1.000  H
  H19      1.0000 0.43800  0.84500  0.59100  Biso   1.000  H
  H20      1.0000 0.93800  0.65500  0.09100  Biso   1.000  H
  H21      1.0000 0.73200  0.20900  0.37300  Biso   1.000  H
  H22      1.0000 0.23200  0.29100  0.87300  Biso   1.000  H
  H23      1.0000 0.26800  0.79100  0.62700  Biso   1.000  H
  H24      1.0000 0.76800  0.70900  0.12700  Biso   1.000  H
  C33      1.0000 0.62900  0.22240  0.56400  Biso   1.000  C
  C34      1.0000 0.12900  0.27760  0.06400  Biso   1.000  C
  C35      1.0000 0.37100  0.77760  0.43600  Biso   1.000  C
  C36      1.0000 0.87100  0.72240  0.93600  Biso   1.000  C
  C37      1.0000 0.80610  0.26910  0.61570  Biso   1.000  C
  C38      1.0000 0.30610  0.23090  0.11570  Biso   1.000  C
  C39      1.0000 0.19390  0.73090  0.38430  Biso   1.000  C
  C40      1.0000 0.69390  0.76910  0.88430  Biso   1.000  C
  H25      1.0000 0.75800  0.29000  0.69400  Biso   1.000  H
  H26      1.0000 0.25800  0.21000  0.19400  Biso   1.000  H
  H27      1.0000 0.24200  0.71000  0.30600  Biso   1.000  H
  H28      1.0000 0.74200  0.79000  0.80600  Biso   1.000  H
  H29      1.0000 0.94900  0.24500  0.64000  Biso   1.000  H
  H30      1.0000 0.44900  0.25500  0.14000  Biso   1.000  H
  H31      1.0000 0.05100  0.75500  0.36000  Biso   1.000  H
  H32      1.0000 0.55100  0.74500  0.86000  Biso   1.000  H
  H33      1.0000 0.82300  0.29600  0.56000  Biso   1.000  H
  H34      1.0000 0.32300  0.20400  0.06000  Biso   1.000  H
  H35      1.0000 0.17700  0.70400  0.44000  Biso   1.000  H
  H36      1.0000 0.67700  0.79600  0.94000  Biso   1.000  H
  C41      1.0000 0.41490  0.25630  0.52680  Biso   1.000  C
  C42      1.0000 0.91490  0.24370  0.02680  Biso   1.000  C
  C43      1.0000 0.58510  0.74370  0.47320  Biso   1.000  C
  C44      1.0000 0.08510  0.75630  0.97320  Biso   1.000  C
  H37      1.0000 0.44500  0.27300  0.45800  Biso   1.000  H
  H38      1.0000 0.94500  0.22700  0.95800  Biso   1.000  H
  H39      1.0000 0.55500  0.72700  0.54200  Biso   1.000  H
  H40      1.0000 0.05500  0.77300  0.04200  Biso   1.000  H
  H41      1.0000 0.37800  0.27600  0.60100  Biso   1.000  H
  H42      1.0000 0.87800  0.22400  0.10100  Biso   1.000  H
  H43      1.0000 0.62200  0.72400  0.39900  Biso   1.000  H
  H44      1.0000 0.12200  0.77600  0.89900  Biso   1.000  H
  H45      1.0000 0.30100  0.22400  0.50100  Biso   1.000  H
  H46      1.0000 0.80100  0.27600  0.00100  Biso   1.000  H
  H47      1.0000 0.69900  0.77600  0.49900  Biso   1.000  H
  H48      1.0000 0.19900  0.72400  0.99900  Biso   1.000  H
