data_image0
_cell_length_a       6.379
_cell_length_b       10.06
_cell_length_c       27.232
_cell_angle_alpha    90
_cell_angle_beta     90
_cell_angle_gamma    90

_symmetry_space_group_name_H-M    "P 1"
_symmetry_int_tables_number       1

loop_
  _symmetry_equiv_pos_as_xyz
  'x, y, z'

loop_
  _atom_site_label
  _atom_site_occupancy
  _atom_site_fract_x
  _atom_site_fract_y
  _atom_site_fract_z
  _atom_site_thermal_displace_type
  _atom_site_B_iso_or_equiv
  _atom_site_type_symbol
  Cu1      1.0000 0.99860  0.49980  0.00060  Biso   1.000  Cu
  Cu2      1.0000 0.00140  0.50020  0.50060  Biso   1.000  Cu
  Cu3      1.0000 0.49860  0.00020  0.00060  Biso   1.000  Cu
  Cu4      1.0000 0.50140  0.99980  0.50060  Biso   1.000  Cu
  O1       1.0000 0.22310  0.58270  0.75060  Biso   1.000  O
  O2       1.0000 0.77690  0.41730  0.25060  Biso   1.000  O
  O3       1.0000 0.72310  0.91730  0.75060  Biso   1.000  O
  O4       1.0000 0.27690  0.08270  0.25060  Biso   1.000  O
  N1       1.0000 0.11800  0.54200  0.93390  Biso   1.000  N
  N2       1.0000 0.88200  0.45800  0.43390  Biso   1.000  N
  N3       1.0000 0.61800  0.95800  0.93390  Biso   1.000  N
  N4       1.0000 0.38200  0.04200  0.43390  Biso   1.000  N
  N5       1.0000 0.53500  0.64400  0.77640  Biso   1.000  N
  N6       1.0000 0.46500  0.35600  0.27640  Biso   1.000  N
  N7       1.0000 0.03500  0.85600  0.77640  Biso   1.000  N
  N8       1.0000 0.96500  0.14400  0.27640  Biso   1.000  N
  N9       1.0000 0.54400  0.62700  0.72450  Biso   1.000  N
  N10      1.0000 0.45600  0.37300  0.22450  Biso   1.000  N
  N11      1.0000 0.04400  0.87300  0.72450  Biso   1.000  N
  N12      1.0000 0.95600  0.12700  0.22450  Biso   1.000  N
  N13      1.0000 0.11500  0.53400  0.56930  Biso   1.000  N
  N14      1.0000 0.88500  0.46600  0.06930  Biso   1.000  N
  N15      1.0000 0.61500  0.96600  0.56930  Biso   1.000  N
  N16      1.0000 0.38500  0.03400  0.06930  Biso   1.000  N
  N17      1.0000 0.76100  0.62700  0.98960  Biso   1.000  N
  N18      1.0000 0.23900  0.37300  0.48960  Biso   1.000  N
  N19      1.0000 0.26100  0.87300  0.98960  Biso   1.000  N
  N20      1.0000 0.73900  0.12700  0.48960  Biso   1.000  N
  N21      1.0000 0.74000  0.71900  0.01470  Biso   1.000  N
  N22      1.0000 0.26000  0.28100  0.51470  Biso   1.000  N
  N23      1.0000 0.24000  0.78100  0.01470  Biso   1.000  N
  N24      1.0000 0.76000  0.21900  0.51470  Biso   1.000  N
  N25      1.0000 0.70800  0.80800  0.03820  Biso   1.000  N
  N26      1.0000 0.29200  0.19200  0.53820  Biso   1.000  N
  N27      1.0000 0.20800  0.69200  0.03820  Biso   1.000  N
  N28      1.0000 0.79200  0.30800  0.53820  Biso   1.000  N
  N29      1.0000 0.22600  0.36700  0.01500  Biso   1.000  N
  N30      1.0000 0.77400  0.63300  0.51500  Biso   1.000  N
  N31      1.0000 0.72600  0.13300  0.01500  Biso   1.000  N
  N32      1.0000 0.27400  0.86700  0.51500  Biso   1.000  N
  N33      1.0000 0.25700  0.27700  0.98770  Biso   1.000  N
  N34      1.0000 0.74300  0.72300  0.48770  Biso   1.000  N
  N35      1.0000 0.75700  0.22300  0.98770  Biso   1.000  N
  N36      1.0000 0.24300  0.77700  0.48770  Biso   1.000  N
  N37      1.0000 0.28000  0.17900  0.96320  Biso   1.000  N
  N38      1.0000 0.72000  0.82100  0.46320  Biso   1.000  N
  N39      1.0000 0.78000  0.32100  0.96320  Biso   1.000  N
  N40      1.0000 0.22000  0.67900  0.46320  Biso   1.000  N
  C1       1.0000 0.98600  0.52200  0.89440  Biso   1.000  C
  C2       1.0000 0.01400  0.47800  0.39440  Biso   1.000  C
  C3       1.0000 0.48600  0.97800  0.89440  Biso   1.000  C
  C4       1.0000 0.51400  0.02200  0.39440  Biso   1.000  C
  H1       1.0000 0.85250  0.48780  0.89920  Biso   1.000  H
  H2       1.0000 0.14750  0.51220  0.39920  Biso   1.000  H
  H3       1.0000 0.35250  0.01220  0.89920  Biso   1.000  H
  H4       1.0000 0.64750  0.98780  0.39920  Biso   1.000  H
  C5       1.0000 0.05500  0.55300  0.84750  Biso   1.000  C
  C6       1.0000 0.94500  0.44700  0.34750  Biso   1.000  C
  C7       1.0000 0.55500  0.94700  0.84750  Biso   1.000  C
  C8       1.0000 0.44500  0.05300  0.34750  Biso   1.000  C
  H5       1.0000 0.96000  0.55240  0.82150  Biso   1.000  H
  H6       1.0000 0.04000  0.44760  0.32150  Biso   1.000  H
  H7       1.0000 0.46000  0.94760  0.82150  Biso   1.000  H
  H8       1.0000 0.54000  0.05240  0.32150  Biso   1.000  H
  C9       1.0000 0.27200  0.58800  0.83850  Biso   1.000  C
  C10      1.0000 0.72800  0.41200  0.33850  Biso   1.000  C
  C11      1.0000 0.77200  0.91200  0.83850  Biso   1.000  C
  C12      1.0000 0.22800  0.08800  0.33850  Biso   1.000  C
  C13      1.0000 0.39900  0.60400  0.88000  Biso   1.000  C
  C14      1.0000 0.60100  0.39600  0.38000  Biso   1.000  C
  C15      1.0000 0.89900  0.89600  0.88000  Biso   1.000  C
  C16      1.0000 0.10100  0.10400  0.38000  Biso   1.000  C
  H9       1.0000 0.53430  0.63720  0.87670  Biso   1.000  H
  H10      1.0000 0.46570  0.36280  0.37670  Biso   1.000  H
  H11      1.0000 0.03430  0.86280  0.87670  Biso   1.000  H
  H12      1.0000 0.96570  0.13720  0.37670  Biso   1.000  H
  C17      1.0000 0.32400  0.57000  0.92590  Biso   1.000  C
  C18      1.0000 0.67600  0.43000  0.42590  Biso   1.000  C
  C19      1.0000 0.82400  0.93000  0.92590  Biso   1.000  C
  C20      1.0000 0.17600  0.07000  0.42590  Biso   1.000  C
  H13      1.0000 0.41670  0.56720  0.95220  Biso   1.000  H
  H14      1.0000 0.58330  0.43280  0.45220  Biso   1.000  H
  H15      1.0000 0.91670  0.93280  0.95220  Biso   1.000  H
  H16      1.0000 0.08330  0.06720  0.45220  Biso   1.000  H
  C21      1.0000 0.34700  0.61300  0.79170  Biso   1.000  C
  C22      1.0000 0.65300  0.38700  0.29170  Biso   1.000  C
  C23      1.0000 0.84700  0.88700  0.79170  Biso   1.000  C
  C24      1.0000 0.15300  0.11300  0.29170  Biso   1.000  C
  C25      1.0000 0.35800  0.59700  0.71310  Biso   1.000  C
  C26      1.0000 0.64200  0.40300  0.21310  Biso   1.000  C
  C27      1.0000 0.85800  0.90300  0.71310  Biso   1.000  C
  C28      1.0000 0.14200  0.09700  0.21310  Biso   1.000  C
  C29      1.0000 0.26100  0.58800  0.66170  Biso   1.000  C
  C30      1.0000 0.73900  0.41200  0.16170  Biso   1.000  C
  C31      1.0000 0.76100  0.91200  0.66170  Biso   1.000  C
  C32      1.0000 0.23900  0.08800  0.16170  Biso   1.000  C
  C33      1.0000 0.06100  0.55600  0.65540  Biso   1.000  C
  C34      1.0000 0.93900  0.44400  0.15540  Biso   1.000  C
  C35      1.0000 0.56100  0.94400  0.65540  Biso   1.000  C
  C36      1.0000 0.43900  0.05600  0.15540  Biso   1.000  C
  H17      1.0000 0.97150  0.54270  0.68190  Biso   1.000  H
  H18      1.0000 0.02850  0.45730  0.18190  Biso   1.000  H
  H19      1.0000 0.47150  0.95730  0.68190  Biso   1.000  H
  H20      1.0000 0.52850  0.04270  0.18190  Biso   1.000  H
  C37      1.0000 0.99400  0.54400  0.60820  Biso   1.000  C
  C38      1.0000 0.00600  0.45600  0.10820  Biso   1.000  C
  C39      1.0000 0.49400  0.95600  0.60820  Biso   1.000  C
  C40      1.0000 0.50600  0.04400  0.10820  Biso   1.000  C
  H21      1.0000 0.84970  0.54180  0.60300  Biso   1.000  H
  H22      1.0000 0.15030  0.45820  0.10300  Biso   1.000  H
  H23      1.0000 0.34970  0.95820  0.60300  Biso   1.000  H
  H24      1.0000 0.65030  0.04180  0.10300  Biso   1.000  H
  C41      1.0000 0.31100  0.57300  0.57620  Biso   1.000  C
  C42      1.0000 0.68900  0.42700  0.07620  Biso   1.000  C
  C43      1.0000 0.81100  0.92700  0.57620  Biso   1.000  C
  C44      1.0000 0.18900  0.07300  0.07620  Biso   1.000  C
  H25      1.0000 0.39590  0.58660  0.54880  Biso   1.000  H
  H26      1.0000 0.60410  0.41340  0.04880  Biso   1.000  H
  H27      1.0000 0.89590  0.91340  0.54880  Biso   1.000  H
  H28      1.0000 0.10410  0.08660  0.04880  Biso   1.000  H
  C45      1.0000 0.39500  0.59400  0.62160  Biso   1.000  C
  C46      1.0000 0.60500  0.40600  0.12160  Biso   1.000  C
  C47      1.0000 0.89500  0.90600  0.62160  Biso   1.000  C
  C48      1.0000 0.10500  0.09400  0.12160  Biso   1.000  C
  H29      1.0000 0.53760  0.61080  0.62560  Biso   1.000  H
  H30      1.0000 0.46240  0.38920  0.12560  Biso   1.000  H
  H31      1.0000 0.03760  0.88920  0.62560  Biso   1.000  H
  H32      1.0000 0.96240  0.11080  0.12560  Biso   1.000  H
  O5       1.0000 0.92700  0.80200  0.14350  Biso   1.000  O
  O6       1.0000 0.07300  0.19800  0.64350  Biso   1.000  O
  O7       1.0000 0.42700  0.69800  0.14350  Biso   1.000  O
  O8       1.0000 0.57300  0.30200  0.64350  Biso   1.000  O
  O9       1.0000 0.64100  0.75100  0.28800  Biso   1.000  O
  O10      1.0000 0.35900  0.24900  0.78800  Biso   1.000  O
  O11      1.0000 0.14100  0.74900  0.28800  Biso   1.000  O
  O12      1.0000 0.85900  0.25100  0.78800  Biso   1.000  O
  O13      1.0000 0.81100  0.79600  0.34000  Biso   1.000  O
  O14      1.0000 0.18900  0.20400  0.84000  Biso   1.000  O
  O15      1.0000 0.31100  0.70400  0.34000  Biso   1.000  O
  O16      1.0000 0.68900  0.29600  0.84000  Biso   1.000  O
