data_image0
_cell_length_a       22.9554
_cell_length_b       22.9554
_cell_length_c       14.0645
_cell_angle_alpha    90
_cell_angle_beta     90
_cell_angle_gamma    120

_symmetry_space_group_name_H-M    "P 1"
_symmetry_int_tables_number       1

loop_
  _symmetry_equiv_pos_as_xyz
  'x, y, z'

loop_
  _atom_site_label
  _atom_site_occupancy
  _atom_site_fract_x
  _atom_site_fract_y
  _atom_site_fract_z
  _atom_site_thermal_displace_type
  _atom_site_B_iso_or_equiv
  _atom_site_type_symbol
  Cu1      1.0000 0.41760  0.07718  0.34044  Biso   1.000  Cu
  Cu2      1.0000 0.92282  0.34042  0.34044  Biso   1.000  Cu
  Cu3      1.0000 0.65958  0.58240  0.34044  Biso   1.000  Cu
  Cu4      1.0000 0.08427  0.41051  0.67377  Biso   1.000  Cu
  Cu5      1.0000 0.58949  0.67375  0.67377  Biso   1.000  Cu
  Cu6      1.0000 0.32625  0.91573  0.67377  Biso   1.000  Cu
  Cu7      1.0000 0.75093  0.74385  0.00711  Biso   1.000  Cu
  Cu8      1.0000 0.25615  0.00709  0.00711  Biso   1.000  Cu
  Cu9      1.0000 0.99291  0.24907  0.00711  Biso   1.000  Cu
  Cu10     1.0000 0.58240  0.92282  0.65956  Biso   1.000  Cu
  Cu11     1.0000 0.07718  0.65958  0.65956  Biso   1.000  Cu
  Cu12     1.0000 0.34042  0.41760  0.65956  Biso   1.000  Cu
  Cu13     1.0000 0.24907  0.25615  0.99289  Biso   1.000  Cu
  Cu14     1.0000 0.74385  0.99291  0.99289  Biso   1.000  Cu
  Cu15     1.0000 0.00709  0.75093  0.99289  Biso   1.000  Cu
  Cu16     1.0000 0.91573  0.58949  0.32623  Biso   1.000  Cu
  Cu17     1.0000 0.41051  0.32625  0.32623  Biso   1.000  Cu
  Cu18     1.0000 0.67375  0.08427  0.32623  Biso   1.000  Cu
  Cu19     1.0000 0.58317  0.41350  0.65800  Biso   1.000  Cu
  Cu20     1.0000 0.58650  0.16967  0.65800  Biso   1.000  Cu
  Cu21     1.0000 0.83033  0.41683  0.65800  Biso   1.000  Cu
  Cu22     1.0000 0.24984  0.74683  0.99133  Biso   1.000  Cu
  Cu23     1.0000 0.25317  0.50300  0.99133  Biso   1.000  Cu
  Cu24     1.0000 0.49700  0.75016  0.99133  Biso   1.000  Cu
  Cu25     1.0000 0.91650  0.08017  0.32467  Biso   1.000  Cu
  Cu26     1.0000 0.91983  0.83634  0.32467  Biso   1.000  Cu
  Cu27     1.0000 0.16366  0.08350  0.32467  Biso   1.000  Cu
  Cu28     1.0000 0.41683  0.58650  0.34200  Biso   1.000  Cu
  Cu29     1.0000 0.41350  0.83033  0.34200  Biso   1.000  Cu
  Cu30     1.0000 0.16967  0.58317  0.34200  Biso   1.000  Cu
  Cu31     1.0000 0.08350  0.91983  0.67533  Biso   1.000  Cu
  Cu32     1.0000 0.08017  0.16366  0.67533  Biso   1.000  Cu
  Cu33     1.0000 0.83634  0.91650  0.67533  Biso   1.000  Cu
  Cu34     1.0000 0.75016  0.25317  0.00867  Biso   1.000  Cu
  Cu35     1.0000 0.74683  0.49700  0.00867  Biso   1.000  Cu
  Cu36     1.0000 0.50300  0.24984  0.00867  Biso   1.000  Cu
  O1       1.0000 0.30850  0.05350  0.38780  Biso   1.000  O
  O2       1.0000 0.94650  0.25500  0.38780  Biso   1.000  O
  O3       1.0000 0.74500  0.69150  0.38780  Biso   1.000  O
  O4       1.0000 0.97517  0.38683  0.72113  Biso   1.000  O
  O5       1.0000 0.61317  0.58833  0.72113  Biso   1.000  O
  O6       1.0000 0.41167  0.02483  0.72113  Biso   1.000  O
  O7       1.0000 0.64183  0.72017  0.05447  Biso   1.000  O
  O8       1.0000 0.27983  0.92167  0.05447  Biso   1.000  O
  O9       1.0000 0.07833  0.35817  0.05447  Biso   1.000  O
  O10      1.0000 0.69150  0.94650  0.61220  Biso   1.000  O
  O11      1.0000 0.05350  0.74500  0.61220  Biso   1.000  O
  O12      1.0000 0.25500  0.30850  0.61220  Biso   1.000  O
  O13      1.0000 0.35817  0.27983  0.94553  Biso   1.000  O
  O14      1.0000 0.72017  0.07833  0.94553  Biso   1.000  O
  O15      1.0000 0.92167  0.64183  0.94553  Biso   1.000  O
  O16      1.0000 0.02483  0.61317  0.27887  Biso   1.000  O
  O17      1.0000 0.38683  0.41167  0.27887  Biso   1.000  O
  O18      1.0000 0.58833  0.97517  0.27887  Biso   1.000  O
  O19      1.0000 0.32000  0.97010  0.56510  Biso   1.000  O
  O20      1.0000 0.02990  0.34990  0.56510  Biso   1.000  O
  O21      1.0000 0.65010  0.68000  0.56510  Biso   1.000  O
  O22      1.0000 0.98667  0.30343  0.89843  Biso   1.000  O
  O23      1.0000 0.69657  0.68323  0.89843  Biso   1.000  O
  O24      1.0000 0.31677  0.01333  0.89843  Biso   1.000  O
  O25      1.0000 0.65333  0.63677  0.23177  Biso   1.000  O
  O26      1.0000 0.36323  0.01657  0.23177  Biso   1.000  O
  O27      1.0000 0.98343  0.34667  0.23177  Biso   1.000  O
  O28      1.0000 0.68000  0.02990  0.43490  Biso   1.000  O
  O29      1.0000 0.97010  0.65010  0.43490  Biso   1.000  O
  O30      1.0000 0.34990  0.32000  0.43490  Biso   1.000  O
  O31      1.0000 0.34667  0.36323  0.76823  Biso   1.000  O
  O32      1.0000 0.63677  0.98343  0.76823  Biso   1.000  O
  O33      1.0000 0.01657  0.65333  0.76823  Biso   1.000  O
  O34      1.0000 0.01333  0.69657  0.10157  Biso   1.000  O
  O35      1.0000 0.30343  0.31677  0.10157  Biso   1.000  O
  O36      1.0000 0.68323  0.98667  0.10157  Biso   1.000  O
  O37      1.0000 0.47190  0.13730  0.44260  Biso   1.000  O
  O38      1.0000 0.86270  0.33460  0.44260  Biso   1.000  O
  O39      1.0000 0.66540  0.52810  0.44260  Biso   1.000  O
  O40      1.0000 0.13857  0.47063  0.77593  Biso   1.000  O
  O41      1.0000 0.52937  0.66793  0.77593  Biso   1.000  O
  O42      1.0000 0.33207  0.86143  0.77593  Biso   1.000  O
  O43      1.0000 0.80523  0.80397  0.10927  Biso   1.000  O
  O44      1.0000 0.19603  0.00127  0.10927  Biso   1.000  O
  O45      1.0000 0.99873  0.19477  0.10927  Biso   1.000  O
  O46      1.0000 0.52810  0.86270  0.55740  Biso   1.000  O
  O47      1.0000 0.13730  0.66540  0.55740  Biso   1.000  O
  O48      1.0000 0.33460  0.47190  0.55740  Biso   1.000  O
  O49      1.0000 0.19477  0.19603  0.89073  Biso   1.000  O
  O50      1.0000 0.80397  0.99873  0.89073  Biso   1.000  O
  O51      1.0000 0.00127  0.80523  0.89073  Biso   1.000  O
  O52      1.0000 0.86143  0.52937  0.22407  Biso   1.000  O
  O53      1.0000 0.47063  0.33207  0.22407  Biso   1.000  O
  O54      1.0000 0.66793  0.13857  0.22407  Biso   1.000  O
  O55      1.0000 0.42960  0.24470  0.36970  Biso   1.000  O
  O56      1.0000 0.75530  0.18490  0.36970  Biso   1.000  O
  O57      1.0000 0.81510  0.57040  0.36970  Biso   1.000  O
  O58      1.0000 0.09627  0.57803  0.70303  Biso   1.000  O
  O59      1.0000 0.42197  0.51823  0.70303  Biso   1.000  O
  O60      1.0000 0.48177  0.90373  0.70303  Biso   1.000  O
  O61      1.0000 0.76293  0.91137  0.03637  Biso   1.000  O
  O62      1.0000 0.08863  0.85157  0.03637  Biso   1.000  O
  O63      1.0000 0.14843  0.23707  0.03637  Biso   1.000  O
  O64      1.0000 0.57040  0.75530  0.63030  Biso   1.000  O
  O65      1.0000 0.24470  0.81510  0.63030  Biso   1.000  O
  O66      1.0000 0.18490  0.42960  0.63030  Biso   1.000  O
  O67      1.0000 0.23707  0.08863  0.96363  Biso   1.000  O
  O68      1.0000 0.91137  0.14843  0.96363  Biso   1.000  O
  O69      1.0000 0.85157  0.76293  0.96363  Biso   1.000  O
  O70      1.0000 0.90373  0.42197  0.29697  Biso   1.000  O
  O71      1.0000 0.57803  0.48177  0.29697  Biso   1.000  O
  O72      1.0000 0.51823  0.09627  0.29697  Biso   1.000  O
  O73      1.0000 0.40910  0.99870  0.41520  Biso   1.000  O
  O74      1.0000 0.00130  0.41040  0.41520  Biso   1.000  O
  O75      1.0000 0.58960  0.59090  0.41520  Biso   1.000  O
  O76      1.0000 0.07577  0.33203  0.74853  Biso   1.000  O
  O77      1.0000 0.66797  0.74373  0.74853  Biso   1.000  O
  O78      1.0000 0.25627  0.92423  0.74853  Biso   1.000  O
  O79      1.0000 0.74243  0.66537  0.08187  Biso   1.000  O
  O80      1.0000 0.33463  0.07707  0.08187  Biso   1.000  O
  O81      1.0000 0.92293  0.25757  0.08187  Biso   1.000  O
  O82      1.0000 0.59090  0.00130  0.58480  Biso   1.000  O
  O83      1.0000 0.99870  0.58960  0.58480  Biso   1.000  O
  O84      1.0000 0.41040  0.40910  0.58480  Biso   1.000  O
  O85      1.0000 0.25757  0.33463  0.91813  Biso   1.000  O
  O86      1.0000 0.66537  0.92293  0.91813  Biso   1.000  O
  O87      1.0000 0.07707  0.74243  0.91813  Biso   1.000  O
  O88      1.0000 0.92423  0.66797  0.25147  Biso   1.000  O
  O89      1.0000 0.33203  0.25627  0.25147  Biso   1.000  O
  O90      1.0000 0.74373  0.07577  0.25147  Biso   1.000  O
  O91      1.0000 0.41320  0.14510  0.25660  Biso   1.000  O
  O92      1.0000 0.85490  0.26810  0.25660  Biso   1.000  O
  O93      1.0000 0.73190  0.58680  0.25660  Biso   1.000  O
  O94      1.0000 0.07987  0.47843  0.58993  Biso   1.000  O
  O95      1.0000 0.52157  0.60143  0.58993  Biso   1.000  O
  O96      1.0000 0.39857  0.92013  0.58993  Biso   1.000  O
  O97      1.0000 0.74653  0.81177  0.92327  Biso   1.000  O
  O98      1.0000 0.18823  0.93477  0.92327  Biso   1.000  O
  O99      1.0000 0.06523  0.25347  0.92327  Biso   1.000  O
  O100     1.0000 0.58680  0.85490  0.74340  Biso   1.000  O
  O101     1.0000 0.14510  0.73190  0.74340  Biso   1.000  O
  O102     1.0000 0.26810  0.41320  0.74340  Biso   1.000  O
  O103     1.0000 0.25347  0.18823  0.07673  Biso   1.000  O
  O104     1.0000 0.81177  0.06523  0.07673  Biso   1.000  O
  O105     1.0000 0.93477  0.74653  0.07673  Biso   1.000  O
  O106     1.0000 0.92013  0.52157  0.41007  Biso   1.000  O
  O107     1.0000 0.47843  0.39857  0.41007  Biso   1.000  O
  O108     1.0000 0.60143  0.07987  0.41007  Biso   1.000  O
  O109     1.0000 0.53230  0.35110  0.52450  Biso   1.000  O
  O110     1.0000 0.64890  0.18120  0.52450  Biso   1.000  O
  O111     1.0000 0.81880  0.46770  0.52450  Biso   1.000  O
  O112     1.0000 0.19897  0.68443  0.85783  Biso   1.000  O
  O113     1.0000 0.31557  0.51453  0.85783  Biso   1.000  O
  O114     1.0000 0.48547  0.80103  0.85783  Biso   1.000  O
  O115     1.0000 0.86563  0.01777  0.19117  Biso   1.000  O
  O116     1.0000 0.98223  0.84787  0.19117  Biso   1.000  O
  O117     1.0000 0.15213  0.13437  0.19117  Biso   1.000  O
  O118     1.0000 0.46770  0.64890  0.47550  Biso   1.000  O
  O119     1.0000 0.35110  0.81880  0.47550  Biso   1.000  O
  O120     1.0000 0.18120  0.53230  0.47550  Biso   1.000  O
  O121     1.0000 0.13437  0.98223  0.80883  Biso   1.000  O
  O122     1.0000 0.01777  0.15213  0.80883  Biso   1.000  O
  O123     1.0000 0.84787  0.86563  0.80883  Biso   1.000  O
  O124     1.0000 0.80103  0.31557  0.14217  Biso   1.000  O
  O125     1.0000 0.68443  0.48547  0.14217  Biso   1.000  O
  O126     1.0000 0.51453  0.19897  0.14217  Biso   1.000  O
  O127     1.0000 0.56000  0.23950  0.60790  Biso   1.000  O
  O128     1.0000 0.76050  0.32050  0.60790  Biso   1.000  O
  O129     1.0000 0.67950  0.44000  0.60790  Biso   1.000  O
  O130     1.0000 0.22667  0.57283  0.94123  Biso   1.000  O
  O131     1.0000 0.42717  0.65383  0.94123  Biso   1.000  O
  O132     1.0000 0.34617  0.77333  0.94123  Biso   1.000  O
  O133     1.0000 0.89333  0.90617  0.27457  Biso   1.000  O
  O134     1.0000 0.09383  0.98717  0.27457  Biso   1.000  O
  O135     1.0000 0.01283  0.10667  0.27457  Biso   1.000  O
  O136     1.0000 0.44000  0.76050  0.39210  Biso   1.000  O
  O137     1.0000 0.23950  0.67950  0.39210  Biso   1.000  O
  O138     1.0000 0.32050  0.56000  0.39210  Biso   1.000  O
  O139     1.0000 0.10667  0.09383  0.72543  Biso   1.000  O
  O140     1.0000 0.90617  0.01283  0.72543  Biso   1.000  O
  O141     1.0000 0.98717  0.89333  0.72543  Biso   1.000  O
  O142     1.0000 0.77333  0.42717  0.05877  Biso   1.000  O
  O143     1.0000 0.57283  0.34617  0.05877  Biso   1.000  O
  O144     1.0000 0.65383  0.22667  0.05877  Biso   1.000  O
  O145     1.0000 0.58100  0.33760  0.72350  Biso   1.000  O
  O146     1.0000 0.66240  0.24340  0.72350  Biso   1.000  O
  O147     1.0000 0.75660  0.41900  0.72350  Biso   1.000  O
  O148     1.0000 0.24767  0.67093  0.05683  Biso   1.000  O
  O149     1.0000 0.32907  0.57673  0.05683  Biso   1.000  O
  O150     1.0000 0.42327  0.75233  0.05683  Biso   1.000  O
  O151     1.0000 0.91433  0.00427  0.39017  Biso   1.000  O
  O152     1.0000 0.99573  0.91007  0.39017  Biso   1.000  O
  O153     1.0000 0.08993  0.08567  0.39017  Biso   1.000  O
  O154     1.0000 0.41900  0.66240  0.27650  Biso   1.000  O
  O155     1.0000 0.33760  0.75660  0.27650  Biso   1.000  O
  O156     1.0000 0.24340  0.58100  0.27650  Biso   1.000  O
  O157     1.0000 0.08567  0.99573  0.60983  Biso   1.000  O
  O158     1.0000 0.00427  0.08993  0.60983  Biso   1.000  O
  O159     1.0000 0.91007  0.91433  0.60983  Biso   1.000  O
  O160     1.0000 0.75233  0.32907  0.94317  Biso   1.000  O
  O161     1.0000 0.67093  0.42327  0.94317  Biso   1.000  O
  O162     1.0000 0.57673  0.24767  0.94317  Biso   1.000  O
  O163     1.0000 0.16230  0.02660  0.45590  Biso   1.000  O
  O164     1.0000 0.97340  0.13570  0.45590  Biso   1.000  O
  O165     1.0000 0.86430  0.83770  0.45590  Biso   1.000  O
  O166     1.0000 0.82897  0.35993  0.78923  Biso   1.000  O
  O167     1.0000 0.64007  0.46903  0.78923  Biso   1.000  O
  O168     1.0000 0.53097  0.17103  0.78923  Biso   1.000  O
  O169     1.0000 0.49563  0.69327  0.12257  Biso   1.000  O
  O170     1.0000 0.30673  0.80237  0.12257  Biso   1.000  O
  O171     1.0000 0.19763  0.50437  0.12257  Biso   1.000  O
  O172     1.0000 0.83770  0.97340  0.54410  Biso   1.000  O
  O173     1.0000 0.02660  0.86430  0.54410  Biso   1.000  O
  O174     1.0000 0.13570  0.16230  0.54410  Biso   1.000  O
  O175     1.0000 0.50437  0.30673  0.87743  Biso   1.000  O
  O176     1.0000 0.69327  0.19763  0.87743  Biso   1.000  O
  O177     1.0000 0.80237  0.49563  0.87743  Biso   1.000  O
  O178     1.0000 0.17103  0.64007  0.21077  Biso   1.000  O
  O179     1.0000 0.35993  0.53097  0.21077  Biso   1.000  O
  O180     1.0000 0.46903  0.82897  0.21077  Biso   1.000  O
  O181     1.0000 0.17310  0.93990  0.63260  Biso   1.000  O
  O182     1.0000 0.06010  0.23320  0.63260  Biso   1.000  O
  O183     1.0000 0.76680  0.82690  0.63260  Biso   1.000  O
  O184     1.0000 0.83977  0.27323  0.96593  Biso   1.000  O
  O185     1.0000 0.72677  0.56653  0.96593  Biso   1.000  O
  O186     1.0000 0.43347  0.16023  0.96593  Biso   1.000  O
  O187     1.0000 0.50643  0.60657  0.29927  Biso   1.000  O
  O188     1.0000 0.39343  0.89987  0.29927  Biso   1.000  O
  O189     1.0000 0.10013  0.49357  0.29927  Biso   1.000  O
  O190     1.0000 0.82690  0.06010  0.36740  Biso   1.000  O
  O191     1.0000 0.93990  0.76680  0.36740  Biso   1.000  O
  O192     1.0000 0.23320  0.17310  0.36740  Biso   1.000  O
  O193     1.0000 0.49357  0.39343  0.70073  Biso   1.000  O
  O194     1.0000 0.60657  0.10013  0.70073  Biso   1.000  O
  O195     1.0000 0.89987  0.50643  0.70073  Biso   1.000  O
  O196     1.0000 0.16023  0.72677  0.03407  Biso   1.000  O
  O197     1.0000 0.27323  0.43347  0.03407  Biso   1.000  O
  O198     1.0000 0.56653  0.83977  0.03407  Biso   1.000  O
  C1       1.0000 0.20460  0.00840  0.48780  Biso   1.000  C
  C2       1.0000 0.99160  0.19620  0.48780  Biso   1.000  C
  C3       1.0000 0.80380  0.79540  0.48780  Biso   1.000  C
  C4       1.0000 0.87127  0.34173  0.82113  Biso   1.000  C
  C5       1.0000 0.65827  0.52953  0.82113  Biso   1.000  C
  C6       1.0000 0.47047  0.12873  0.82113  Biso   1.000  C
  C7       1.0000 0.53793  0.67507  0.15447  Biso   1.000  C
  C8       1.0000 0.32493  0.86287  0.15447  Biso   1.000  C
  C9       1.0000 0.13713  0.46207  0.15447  Biso   1.000  C
  C10      1.0000 0.79540  0.99160  0.51220  Biso   1.000  C
  C11      1.0000 0.00840  0.80380  0.51220  Biso   1.000  C
  C12      1.0000 0.19620  0.20460  0.51220  Biso   1.000  C
  C13      1.0000 0.46207  0.32493  0.84553  Biso   1.000  C
  C14      1.0000 0.67507  0.13713  0.84553  Biso   1.000  C
  C15      1.0000 0.86287  0.53793  0.84553  Biso   1.000  C
  C16      1.0000 0.12873  0.65827  0.17887  Biso   1.000  C
  C17      1.0000 0.34173  0.47047  0.17887  Biso   1.000  C
  C18      1.0000 0.52953  0.87127  0.17887  Biso   1.000  C
  C19      1.0000 0.51130  0.28980  0.49600  Biso   1.000  C
  C20      1.0000 0.71020  0.22150  0.49600  Biso   1.000  C
  C21      1.0000 0.77850  0.48870  0.49600  Biso   1.000  C
  C22      1.0000 0.17797  0.62313  0.82933  Biso   1.000  C
  C23      1.0000 0.37687  0.55483  0.82933  Biso   1.000  C
  C24      1.0000 0.44517  0.82203  0.82933  Biso   1.000  C
  C25      1.0000 0.84463  0.95647  0.16267  Biso   1.000  C
  C26      1.0000 0.04353  0.88817  0.16267  Biso   1.000  C
  C27      1.0000 0.11183  0.15537  0.16267  Biso   1.000  C
  C28      1.0000 0.48870  0.71020  0.50400  Biso   1.000  C
  C29      1.0000 0.28980  0.77850  0.50400  Biso   1.000  C
  C30      1.0000 0.22150  0.51130  0.50400  Biso   1.000  C
  C31      1.0000 0.15537  0.04353  0.83733  Biso   1.000  C
  C32      1.0000 0.95647  0.11183  0.83733  Biso   1.000  C
  C33      1.0000 0.88817  0.84463  0.83733  Biso   1.000  C
  C34      1.0000 0.82203  0.37687  0.17067  Biso   1.000  C
  C35      1.0000 0.62313  0.44517  0.17067  Biso   1.000  C
  C36      1.0000 0.55483  0.17797  0.17067  Biso   1.000  C
  C37      1.0000 0.21340  0.97530  0.56350  Biso   1.000  C
  C38      1.0000 0.02470  0.23810  0.56350  Biso   1.000  C
  C39      1.0000 0.76190  0.78660  0.56350  Biso   1.000  C
  C40      1.0000 0.88007  0.30863  0.89683  Biso   1.000  C
  C41      1.0000 0.69137  0.57143  0.89683  Biso   1.000  C
  C42      1.0000 0.42857  0.11993  0.89683  Biso   1.000  C
  C43      1.0000 0.54673  0.64197  0.23017  Biso   1.000  C
  C44      1.0000 0.35803  0.90477  0.23017  Biso   1.000  C
  C45      1.0000 0.09523  0.45327  0.23017  Biso   1.000  C
  C46      1.0000 0.78660  0.02470  0.43650  Biso   1.000  C
  C47      1.0000 0.97530  0.76190  0.43650  Biso   1.000  C
  C48      1.0000 0.23810  0.21340  0.43650  Biso   1.000  C
  C49      1.0000 0.45327  0.35803  0.76983  Biso   1.000  C
  C50      1.0000 0.64197  0.09523  0.76983  Biso   1.000  C
  C51      1.0000 0.90477  0.54673  0.76983  Biso   1.000  C
  C52      1.0000 0.11993  0.69137  0.10317  Biso   1.000  C
  C53      1.0000 0.30863  0.42857  0.10317  Biso   1.000  C
  C54      1.0000 0.57143  0.88007  0.10317  Biso   1.000  C
  C55      1.0000 0.47200  0.24610  0.42360  Biso   1.000  C
  C56      1.0000 0.75390  0.22590  0.42360  Biso   1.000  C
  C57      1.0000 0.77410  0.52800  0.42360  Biso   1.000  C
  C58      1.0000 0.13867  0.57943  0.75693  Biso   1.000  C
  C59      1.0000 0.42057  0.55923  0.75693  Biso   1.000  C
  C60      1.0000 0.44077  0.86133  0.75693  Biso   1.000  C
  C61      1.0000 0.80533  0.91277  0.09027  Biso   1.000  C
  C62      1.0000 0.08723  0.89257  0.09027  Biso   1.000  C
  C63      1.0000 0.10743  0.19467  0.09027  Biso   1.000  C
  C64      1.0000 0.52800  0.75390  0.57640  Biso   1.000  C
  C65      1.0000 0.24610  0.77410  0.57640  Biso   1.000  C
  C66      1.0000 0.22590  0.47200  0.57640  Biso   1.000  C
  C67      1.0000 0.19467  0.08723  0.90973  Biso   1.000  C
  C68      1.0000 0.91277  0.10743  0.90973  Biso   1.000  C
  C69      1.0000 0.89257  0.80533  0.90973  Biso   1.000  C
  C70      1.0000 0.86133  0.42057  0.24307  Biso   1.000  C
  C71      1.0000 0.57943  0.44077  0.24307  Biso   1.000  C
  C72      1.0000 0.55923  0.13867  0.24307  Biso   1.000  C
  C73      1.0000 0.26650  0.02340  0.45560  Biso   1.000  C
  C74      1.0000 0.97660  0.24310  0.45560  Biso   1.000  C
  C75      1.0000 0.75690  0.73350  0.45560  Biso   1.000  C
  C76      1.0000 0.93317  0.35673  0.78893  Biso   1.000  C
  C77      1.0000 0.64327  0.57643  0.78893  Biso   1.000  C
  C78      1.0000 0.42357  0.06683  0.78893  Biso   1.000  C
  C79      1.0000 0.59983  0.69007  0.12227  Biso   1.000  C
  C80      1.0000 0.30993  0.90977  0.12227  Biso   1.000  C
  C81      1.0000 0.09023  0.40017  0.12227  Biso   1.000  C
  C82      1.0000 0.73350  0.97660  0.54440  Biso   1.000  C
  C83      1.0000 0.02340  0.75690  0.54440  Biso   1.000  C
  C84      1.0000 0.24310  0.26650  0.54440  Biso   1.000  C
  C85      1.0000 0.40017  0.30993  0.87773  Biso   1.000  C
  C86      1.0000 0.69007  0.09023  0.87773  Biso   1.000  C
  C87      1.0000 0.90977  0.59983  0.87773  Biso   1.000  C
  C88      1.0000 0.06683  0.64327  0.21107  Biso   1.000  C
  C89      1.0000 0.35673  0.42357  0.21107  Biso   1.000  C
  C90      1.0000 0.57643  0.93317  0.21107  Biso   1.000  C
  C91      1.0000 0.48760  0.19890  0.46370  Biso   1.000  C
  C92      1.0000 0.80110  0.28870  0.46370  Biso   1.000  C
  C93      1.0000 0.71130  0.51240  0.46370  Biso   1.000  C
  C94      1.0000 0.15427  0.53223  0.79703  Biso   1.000  C
  C95      1.0000 0.46777  0.62203  0.79703  Biso   1.000  C
  C96      1.0000 0.37797  0.84573  0.79703  Biso   1.000  C
  C97      1.0000 0.82093  0.86557  0.13037  Biso   1.000  C
  C98      1.0000 0.13443  0.95537  0.13037  Biso   1.000  C
  C99      1.0000 0.04463  0.17907  0.13037  Biso   1.000  C
  C100     1.0000 0.51240  0.80110  0.53630  Biso   1.000  C
  C101     1.0000 0.19890  0.71130  0.53630  Biso   1.000  C
  C102     1.0000 0.28870  0.48760  0.53630  Biso   1.000  C
  C103     1.0000 0.17907  0.13443  0.86963  Biso   1.000  C
  C104     1.0000 0.86557  0.04463  0.86963  Biso   1.000  C
  C105     1.0000 0.95537  0.82093  0.86963  Biso   1.000  C
  C106     1.0000 0.84573  0.46777  0.20297  Biso   1.000  C
  C107     1.0000 0.53223  0.37797  0.20297  Biso   1.000  C
  C108     1.0000 0.62203  0.15427  0.20297  Biso   1.000  C
  C109     1.0000 0.27460  0.98050  0.53500  Biso   1.000  C
  C110     1.0000 0.01950  0.29410  0.53500  Biso   1.000  C
  C111     1.0000 0.70590  0.72540  0.53500  Biso   1.000  C
  C112     1.0000 0.94127  0.31383  0.86833  Biso   1.000  C
  C113     1.0000 0.68617  0.62743  0.86833  Biso   1.000  C
  C114     1.0000 0.37257  0.05873  0.86833  Biso   1.000  C
  C115     1.0000 0.60793  0.64717  0.20167  Biso   1.000  C
  C116     1.0000 0.35283  0.96077  0.20167  Biso   1.000  C
  C117     1.0000 0.03923  0.39207  0.20167  Biso   1.000  C
  C118     1.0000 0.72540  0.01950  0.46500  Biso   1.000  C
  C119     1.0000 0.98050  0.70590  0.46500  Biso   1.000  C
  C120     1.0000 0.29410  0.27460  0.46500  Biso   1.000  C
  C121     1.0000 0.39207  0.35283  0.79833  Biso   1.000  C
  C122     1.0000 0.64717  0.03923  0.79833  Biso   1.000  C
  C123     1.0000 0.96077  0.60793  0.79833  Biso   1.000  C
  C124     1.0000 0.05873  0.68617  0.13167  Biso   1.000  C
  C125     1.0000 0.31383  0.37257  0.13167  Biso   1.000  C
  C126     1.0000 0.62743  0.94127  0.13167  Biso   1.000  C
  C127     1.0000 0.53350  0.23930  0.53730  Biso   1.000  C
  C128     1.0000 0.76070  0.29420  0.53730  Biso   1.000  C
  C129     1.0000 0.70580  0.46650  0.53730  Biso   1.000  C
  C130     1.0000 0.20017  0.57263  0.87063  Biso   1.000  C
  C131     1.0000 0.42737  0.62753  0.87063  Biso   1.000  C
  C132     1.0000 0.37247  0.79983  0.87063  Biso   1.000  C
  C133     1.0000 0.86683  0.90597  0.20397  Biso   1.000  C
  C134     1.0000 0.09403  0.96087  0.20397  Biso   1.000  C
  C135     1.0000 0.03913  0.13317  0.20397  Biso   1.000  C
  C136     1.0000 0.46650  0.76070  0.46270  Biso   1.000  C
  C137     1.0000 0.23930  0.70580  0.46270  Biso   1.000  C
  C138     1.0000 0.29420  0.53350  0.46270  Biso   1.000  C
  C139     1.0000 0.13317  0.09403  0.79603  Biso   1.000  C
  C140     1.0000 0.90597  0.03913  0.79603  Biso   1.000  C
  C141     1.0000 0.96087  0.86683  0.79603  Biso   1.000  C
  C142     1.0000 0.79983  0.42737  0.12937  Biso   1.000  C
  C143     1.0000 0.57263  0.37247  0.12937  Biso   1.000  C
  C144     1.0000 0.62753  0.20017  0.12937  Biso   1.000  C
  O199     1.0000 0.58300  0.48540  0.59130  Biso   1.000  O
  O200     1.0000 0.51460  0.09760  0.59130  Biso   1.000  O
  O201     1.0000 0.90240  0.41700  0.59130  Biso   1.000  O
  O202     1.0000 0.24967  0.81873  0.92463  Biso   1.000  O
  O203     1.0000 0.18127  0.43093  0.92463  Biso   1.000  O
  O204     1.0000 0.56907  0.75033  0.92463  Biso   1.000  O
  O205     1.0000 0.91633  0.15207  0.25797  Biso   1.000  O
  O206     1.0000 0.84793  0.76427  0.25797  Biso   1.000  O
  O207     1.0000 0.23573  0.08367  0.25797  Biso   1.000  O
  O208     1.0000 0.41700  0.51460  0.40870  Biso   1.000  O
  O209     1.0000 0.48540  0.90240  0.40870  Biso   1.000  O
  O210     1.0000 0.09760  0.58300  0.40870  Biso   1.000  O
  O211     1.0000 0.08367  0.84793  0.74203  Biso   1.000  O
  O212     1.0000 0.15207  0.23573  0.74203  Biso   1.000  O
  O213     1.0000 0.76427  0.91633  0.74203  Biso   1.000  O
  O214     1.0000 0.75033  0.18127  0.07537  Biso   1.000  O
  O215     1.0000 0.81873  0.56907  0.07537  Biso   1.000  O
  O216     1.0000 0.43093  0.24967  0.07537  Biso   1.000  O
  Cu37     1.0000 0.58380  0.42150  0.67360  Biso   1.000  Cu
  Cu38     1.0000 0.57850  0.16230  0.67360  Biso   1.000  Cu
  Cu39     1.0000 0.83770  0.41620  0.67360  Biso   1.000  Cu
  Cu40     1.0000 0.25047  0.75483  0.00693  Biso   1.000  Cu
  Cu41     1.0000 0.24517  0.49563  0.00693  Biso   1.000  Cu
  Cu42     1.0000 0.50437  0.74953  0.00693  Biso   1.000  Cu
  Cu43     1.0000 0.91713  0.08817  0.34027  Biso   1.000  Cu
  Cu44     1.0000 0.91183  0.82897  0.34027  Biso   1.000  Cu
  Cu45     1.0000 0.17103  0.08287  0.34027  Biso   1.000  Cu
  Cu46     1.0000 0.41620  0.57850  0.32640  Biso   1.000  Cu
  Cu47     1.0000 0.42150  0.83770  0.32640  Biso   1.000  Cu
  Cu48     1.0000 0.16230  0.58380  0.32640  Biso   1.000  Cu
  Cu49     1.0000 0.08287  0.91183  0.65973  Biso   1.000  Cu
  Cu50     1.0000 0.08817  0.17103  0.65973  Biso   1.000  Cu
  Cu51     1.0000 0.82897  0.91713  0.65973  Biso   1.000  Cu
  Cu52     1.0000 0.74953  0.24517  0.99307  Biso   1.000  Cu
  Cu53     1.0000 0.75483  0.50437  0.99307  Biso   1.000  Cu
  Cu54     1.0000 0.49563  0.25047  0.99307  Biso   1.000  Cu
  O217     1.0000 0.47230  0.03350  0.35400  Biso   1.000  O
  O218     1.0000 0.96650  0.43880  0.35400  Biso   1.000  O
  O219     1.0000 0.56120  0.52770  0.35400  Biso   1.000  O
  O220     1.0000 0.13897  0.36683  0.68733  Biso   1.000  O
  O221     1.0000 0.63317  0.77213  0.68733  Biso   1.000  O
  O222     1.0000 0.22787  0.86103  0.68733  Biso   1.000  O
  O223     1.0000 0.80563  0.70017  0.02067  Biso   1.000  O
  O224     1.0000 0.29983  0.10547  0.02067  Biso   1.000  O
  O225     1.0000 0.89453  0.19437  0.02067  Biso   1.000  O
  O226     1.0000 0.52770  0.96650  0.64600  Biso   1.000  O
  O227     1.0000 0.03350  0.56120  0.64600  Biso   1.000  O
  O228     1.0000 0.43880  0.47230  0.64600  Biso   1.000  O
  O229     1.0000 0.19437  0.29983  0.97933  Biso   1.000  O
  O230     1.0000 0.70017  0.89453  0.97933  Biso   1.000  O
  O231     1.0000 0.10547  0.80563  0.97933  Biso   1.000  O
  O232     1.0000 0.86103  0.63317  0.31267  Biso   1.000  O
  O233     1.0000 0.36683  0.22787  0.31267  Biso   1.000  O
  O234     1.0000 0.77213  0.13897  0.31267  Biso   1.000  O
  O235     1.0000 0.36950  0.12350  0.30800  Biso   1.000  O
  O236     1.0000 0.87650  0.24600  0.30800  Biso   1.000  O
  O237     1.0000 0.75400  0.63050  0.30800  Biso   1.000  O
  O238     1.0000 0.03617  0.45683  0.64133  Biso   1.000  O
  O239     1.0000 0.54317  0.57933  0.64133  Biso   1.000  O
  O240     1.0000 0.42067  0.96383  0.64133  Biso   1.000  O
  O241     1.0000 0.70283  0.79017  0.97467  Biso   1.000  O
  O242     1.0000 0.20983  0.91267  0.97467  Biso   1.000  O
  O243     1.0000 0.08733  0.29717  0.97467  Biso   1.000  O
  O244     1.0000 0.63050  0.87650  0.69200  Biso   1.000  O
  O245     1.0000 0.12350  0.75400  0.69200  Biso   1.000  O
  O246     1.0000 0.24600  0.36950  0.69200  Biso   1.000  O
  O247     1.0000 0.29717  0.20983  0.02533  Biso   1.000  O
  O248     1.0000 0.79017  0.08733  0.02533  Biso   1.000  O
  O249     1.0000 0.91267  0.70283  0.02533  Biso   1.000  O
  O250     1.0000 0.96383  0.54317  0.35867  Biso   1.000  O
  O251     1.0000 0.45683  0.42067  0.35867  Biso   1.000  O
  O252     1.0000 0.57933  0.03617  0.35867  Biso   1.000  O
  O253     1.0000 0.53430  0.12400  0.32700  Biso   1.000  O
  O254     1.0000 0.87600  0.41030  0.32700  Biso   1.000  O
  O255     1.0000 0.58970  0.46570  0.32700  Biso   1.000  O
  O256     1.0000 0.20097  0.45733  0.66033  Biso   1.000  O
  O257     1.0000 0.54267  0.74363  0.66033  Biso   1.000  O
  O258     1.0000 0.25637  0.79903  0.66033  Biso   1.000  O
  O259     1.0000 0.86763  0.79067  0.99367  Biso   1.000  O
  O260     1.0000 0.20933  0.07697  0.99367  Biso   1.000  O
  O261     1.0000 0.92303  0.13237  0.99367  Biso   1.000  O
  O262     1.0000 0.46570  0.87600  0.67300  Biso   1.000  O
  O263     1.0000 0.12400  0.58970  0.67300  Biso   1.000  O
  O264     1.0000 0.41030  0.53430  0.67300  Biso   1.000  O
  O265     1.0000 0.13237  0.20933  0.00633  Biso   1.000  O
  O266     1.0000 0.79067  0.92303  0.00633  Biso   1.000  O
  O267     1.0000 0.07697  0.86763  0.00633  Biso   1.000  O
  O268     1.0000 0.79903  0.54267  0.33967  Biso   1.000  O
  O269     1.0000 0.45733  0.25637  0.33967  Biso   1.000  O
  O270     1.0000 0.74363  0.20097  0.33967  Biso   1.000  O
  O271     1.0000 0.34650  0.00050  0.44000  Biso   1.000  O
  O272     1.0000 0.99950  0.34600  0.44000  Biso   1.000  O
  O273     1.0000 0.65400  0.65350  0.44000  Biso   1.000  O
  O274     1.0000 0.01317  0.33383  0.77333  Biso   1.000  O
  O275     1.0000 0.66617  0.67933  0.77333  Biso   1.000  O
  O276     1.0000 0.32067  0.98683  0.77333  Biso   1.000  O
  O277     1.0000 0.67983  0.66717  0.10667  Biso   1.000  O
  O278     1.0000 0.33283  0.01267  0.10667  Biso   1.000  O
  O279     1.0000 0.98733  0.32017  0.10667  Biso   1.000  O
  O280     1.0000 0.65350  0.99950  0.56000  Biso   1.000  O
  O281     1.0000 0.00050  0.65400  0.56000  Biso   1.000  O
  O282     1.0000 0.34600  0.34650  0.56000  Biso   1.000  O
  O283     1.0000 0.32017  0.33283  0.89333  Biso   1.000  O
  O284     1.0000 0.66717  0.98733  0.89333  Biso   1.000  O
  O285     1.0000 0.01267  0.67983  0.89333  Biso   1.000  O
  O286     1.0000 0.98683  0.66617  0.22667  Biso   1.000  O
  O287     1.0000 0.33383  0.32067  0.22667  Biso   1.000  O
  O288     1.0000 0.67933  0.01317  0.22667  Biso   1.000  O
  O289     1.0000 0.49560  0.15730  0.21200  Biso   1.000  O
  O290     1.0000 0.84270  0.33830  0.21200  Biso   1.000  O
  O291     1.0000 0.66170  0.50440  0.21200  Biso   1.000  O
  O292     1.0000 0.16227  0.49063  0.54533  Biso   1.000  O
  O293     1.0000 0.50937  0.67163  0.54533  Biso   1.000  O
  O294     1.0000 0.32837  0.83773  0.54533  Biso   1.000  O
  O295     1.0000 0.82893  0.82397  0.87867  Biso   1.000  O
  O296     1.0000 0.17603  0.00497  0.87867  Biso   1.000  O
  O297     1.0000 0.99503  0.17107  0.87867  Biso   1.000  O
  O298     1.0000 0.50440  0.84270  0.78800  Biso   1.000  O
  O299     1.0000 0.15730  0.66170  0.78800  Biso   1.000  O
  O300     1.0000 0.33830  0.49560  0.78800  Biso   1.000  O
  O301     1.0000 0.17107  0.17603  0.12133  Biso   1.000  O
  O302     1.0000 0.82397  0.99503  0.12133  Biso   1.000  O
  O303     1.0000 0.00497  0.82893  0.12133  Biso   1.000  O
  O304     1.0000 0.83773  0.50937  0.45467  Biso   1.000  O
  O305     1.0000 0.49063  0.32837  0.45467  Biso   1.000  O
  O306     1.0000 0.67163  0.16227  0.45467  Biso   1.000  O
  C145     1.0000 0.53500  0.28400  0.56400  Biso   1.000  C
  C146     1.0000 0.71600  0.25100  0.56400  Biso   1.000  C
  C147     1.0000 0.74900  0.46500  0.56400  Biso   1.000  C
  C148     1.0000 0.20167  0.61733  0.89733  Biso   1.000  C
  C149     1.0000 0.38267  0.58433  0.89733  Biso   1.000  C
  C150     1.0000 0.41567  0.79833  0.89733  Biso   1.000  C
  C151     1.0000 0.86833  0.95067  0.23067  Biso   1.000  C
  C152     1.0000 0.04933  0.91767  0.23067  Biso   1.000  C
  C153     1.0000 0.08233  0.13167  0.23067  Biso   1.000  C
  C154     1.0000 0.46500  0.71600  0.43600  Biso   1.000  C
  C155     1.0000 0.28400  0.74900  0.43600  Biso   1.000  C
  C156     1.0000 0.25100  0.53500  0.43600  Biso   1.000  C
  C157     1.0000 0.13167  0.04933  0.76933  Biso   1.000  C
  C158     1.0000 0.95067  0.08233  0.76933  Biso   1.000  C
  C159     1.0000 0.91767  0.86833  0.76933  Biso   1.000  C
  C160     1.0000 0.79833  0.38267  0.10267  Biso   1.000  C
  C161     1.0000 0.61733  0.41567  0.10267  Biso   1.000  C
  C162     1.0000 0.58433  0.20167  0.10267  Biso   1.000  C
  O307     1.0000 0.43680  0.05130  0.46500  Biso   1.000  O
  O308     1.0000 0.94870  0.38550  0.46500  Biso   1.000  O
  O309     1.0000 0.61450  0.56320  0.46500  Biso   1.000  O
  O310     1.0000 0.10347  0.38463  0.79833  Biso   1.000  O
  O311     1.0000 0.61537  0.71883  0.79833  Biso   1.000  O
  O312     1.0000 0.28117  0.89653  0.79833  Biso   1.000  O
  O313     1.0000 0.77013  0.71797  0.13167  Biso   1.000  O
  O314     1.0000 0.28203  0.05217  0.13167  Biso   1.000  O
  O315     1.0000 0.94783  0.22987  0.13167  Biso   1.000  O
  O316     1.0000 0.56320  0.94870  0.53500  Biso   1.000  O
  O317     1.0000 0.05130  0.61450  0.53500  Biso   1.000  O
  O318     1.0000 0.38550  0.43680  0.53500  Biso   1.000  O
  O319     1.0000 0.22987  0.28203  0.86833  Biso   1.000  O
  O320     1.0000 0.71797  0.94783  0.86833  Biso   1.000  O
  O321     1.0000 0.05217  0.77013  0.86833  Biso   1.000  O
  O322     1.0000 0.89653  0.61537  0.20167  Biso   1.000  O
  O323     1.0000 0.38463  0.28117  0.20167  Biso   1.000  O
  O324     1.0000 0.71883  0.10347  0.20167  Biso   1.000  O
  O325     1.0000 0.39880  0.10910  0.22300  Biso   1.000  O
  O326     1.0000 0.89090  0.28970  0.22300  Biso   1.000  O
  O327     1.0000 0.71030  0.60120  0.22300  Biso   1.000  O
  O328     1.0000 0.06547  0.44243  0.55633  Biso   1.000  O
  O329     1.0000 0.55757  0.62303  0.55633  Biso   1.000  O
  O330     1.0000 0.37697  0.93453  0.55633  Biso   1.000  O
  O331     1.0000 0.73213  0.77577  0.88967  Biso   1.000  O
  O332     1.0000 0.22423  0.95637  0.88967  Biso   1.000  O
  O333     1.0000 0.04363  0.26787  0.88967  Biso   1.000  O
  O334     1.0000 0.60120  0.89090  0.77700  Biso   1.000  O
  O335     1.0000 0.10910  0.71030  0.77700  Biso   1.000  O
  O336     1.0000 0.28970  0.39880  0.77700  Biso   1.000  O
  O337     1.0000 0.26787  0.22423  0.11033  Biso   1.000  O
  O338     1.0000 0.77577  0.04363  0.11033  Biso   1.000  O
  O339     1.0000 0.95637  0.73213  0.11033  Biso   1.000  O
  O340     1.0000 0.93453  0.55757  0.44367  Biso   1.000  O
  O341     1.0000 0.44243  0.37697  0.44367  Biso   1.000  O
  O342     1.0000 0.62303  0.06547  0.44367  Biso   1.000  O
  O343     1.0000 0.58300  0.32400  0.62300  Biso   1.000  O
  O344     1.0000 0.67600  0.25900  0.62300  Biso   1.000  O
  O345     1.0000 0.74100  0.41700  0.62300  Biso   1.000  O
  O346     1.0000 0.24967  0.65733  0.95633  Biso   1.000  O
  O347     1.0000 0.34267  0.59233  0.95633  Biso   1.000  O
  O348     1.0000 0.40767  0.75033  0.95633  Biso   1.000  O
  O349     1.0000 0.91633  0.99067  0.28967  Biso   1.000  O
  O350     1.0000 0.00933  0.92567  0.28967  Biso   1.000  O
  O351     1.0000 0.07433  0.08367  0.28967  Biso   1.000  O
  O352     1.0000 0.41700  0.67600  0.37700  Biso   1.000  O
  O353     1.0000 0.32400  0.74100  0.37700  Biso   1.000  O
  O354     1.0000 0.25900  0.58300  0.37700  Biso   1.000  O
  O355     1.0000 0.08367  0.00933  0.71033  Biso   1.000  O
  O356     1.0000 0.99067  0.07433  0.71033  Biso   1.000  O
  O357     1.0000 0.92567  0.91633  0.71033  Biso   1.000  O
  O358     1.0000 0.75033  0.34267  0.04367  Biso   1.000  O
  O359     1.0000 0.65733  0.40767  0.04367  Biso   1.000  O
  O360     1.0000 0.59233  0.24967  0.04367  Biso   1.000  O
  O361     1.0000 0.41300  0.00400  0.29900  Biso   1.000  O
  O362     1.0000 0.99600  0.40900  0.29900  Biso   1.000  O
  O363     1.0000 0.59100  0.58700  0.29900  Biso   1.000  O
  O364     1.0000 0.07967  0.33733  0.63233  Biso   1.000  O
  O365     1.0000 0.66267  0.74233  0.63233  Biso   1.000  O
  O366     1.0000 0.25767  0.92033  0.63233  Biso   1.000  O
  O367     1.0000 0.74633  0.67067  0.96567  Biso   1.000  O
  O368     1.0000 0.32933  0.07567  0.96567  Biso   1.000  O
  O369     1.0000 0.92433  0.25367  0.96567  Biso   1.000  O
  O370     1.0000 0.58700  0.99600  0.70100  Biso   1.000  O
  O371     1.0000 0.00400  0.59100  0.70100  Biso   1.000  O
  O372     1.0000 0.40900  0.41300  0.70100  Biso   1.000  O
  O373     1.0000 0.25367  0.32933  0.03433  Biso   1.000  O
  O374     1.0000 0.67067  0.92433  0.03433  Biso   1.000  O
  O375     1.0000 0.07567  0.74633  0.03433  Biso   1.000  O
  O376     1.0000 0.92033  0.66267  0.36767  Biso   1.000  O
  O377     1.0000 0.33733  0.25767  0.36767  Biso   1.000  O
  O378     1.0000 0.74233  0.07967  0.36767  Biso   1.000  O
