data_image0
_cell_length_a       11.7555
_cell_length_b       11.7555
_cell_length_c       14.8987
_cell_angle_alpha    90
_cell_angle_beta     90
_cell_angle_gamma    120

_symmetry_space_group_name_H-M    "P 1"
_symmetry_int_tables_number       1

loop_
  _symmetry_equiv_pos_as_xyz
  'x, y, z'

loop_
  _atom_site_label
  _atom_site_occupancy
  _atom_site_fract_x
  _atom_site_fract_y
  _atom_site_fract_z
  _atom_site_thermal_displace_type
  _atom_site_B_iso_or_equiv
  _atom_site_type_symbol
  Cu1      1.0000 0.33330  0.16670  0.16670  Biso   1.000  Cu
  Cu2      1.0000 0.83330  0.16660  0.16670  Biso   1.000  Cu
  Cu3      1.0000 0.83340  0.66670  0.16670  Biso   1.000  Cu
  Cu4      1.0000 0.99997  0.50003  0.50003  Biso   1.000  Cu
  Cu5      1.0000 0.49997  0.49993  0.50003  Biso   1.000  Cu
  Cu6      1.0000 0.50007  0.00003  0.50003  Biso   1.000  Cu
  Cu7      1.0000 0.66663  0.83337  0.83337  Biso   1.000  Cu
  Cu8      1.0000 0.16663  0.83327  0.83337  Biso   1.000  Cu
  Cu9      1.0000 0.16673  0.33337  0.83337  Biso   1.000  Cu
  C1       1.0000 0.49380  0.43850  0.05160  Biso   1.000  C
  C2       1.0000 0.56150  0.05530  0.05160  Biso   1.000  C
  C3       1.0000 0.94470  0.50620  0.05160  Biso   1.000  C
  C4       1.0000 0.16047  0.77183  0.38493  Biso   1.000  C
  C5       1.0000 0.22817  0.38863  0.38493  Biso   1.000  C
  C6       1.0000 0.61137  0.83953  0.38493  Biso   1.000  C
  C7       1.0000 0.82713  0.10517  0.71827  Biso   1.000  C
  C8       1.0000 0.89483  0.72197  0.71827  Biso   1.000  C
  C9       1.0000 0.27803  0.17287  0.71827  Biso   1.000  C
  C10      1.0000 0.50620  0.56150  0.94840  Biso   1.000  C
  C11      1.0000 0.43850  0.94470  0.94840  Biso   1.000  C
  C12      1.0000 0.05530  0.49380  0.94840  Biso   1.000  C
  C13      1.0000 0.17287  0.89483  0.28173  Biso   1.000  C
  C14      1.0000 0.10517  0.27803  0.28173  Biso   1.000  C
  C15      1.0000 0.72197  0.82713  0.28173  Biso   1.000  C
  C16      1.0000 0.83953  0.22817  0.61507  Biso   1.000  C
  C17      1.0000 0.77183  0.61137  0.61507  Biso   1.000  C
  C18      1.0000 0.38863  0.16047  0.61507  Biso   1.000  C
  C19      1.0000 0.59350  0.56940  0.02070  Biso   1.000  C
  C20      1.0000 0.43060  0.02410  0.02070  Biso   1.000  C
  C21      1.0000 0.97590  0.40650  0.02070  Biso   1.000  C
  C22      1.0000 0.26017  0.90273  0.35403  Biso   1.000  C
  C23      1.0000 0.09727  0.35743  0.35403  Biso   1.000  C
  C24      1.0000 0.64257  0.73983  0.35403  Biso   1.000  C
  C25      1.0000 0.92683  0.23607  0.68737  Biso   1.000  C
  C26      1.0000 0.76393  0.69077  0.68737  Biso   1.000  C
  C27      1.0000 0.30923  0.07317  0.68737  Biso   1.000  C
  C28      1.0000 0.40650  0.43060  0.97930  Biso   1.000  C
  C29      1.0000 0.56940  0.97590  0.97930  Biso   1.000  C
  C30      1.0000 0.02410  0.59350  0.97930  Biso   1.000  C
  C31      1.0000 0.07317  0.76393  0.31263  Biso   1.000  C
  C32      1.0000 0.23607  0.30923  0.31263  Biso   1.000  C
  C33      1.0000 0.69077  0.92683  0.31263  Biso   1.000  C
  C34      1.0000 0.73983  0.09727  0.64597  Biso   1.000  C
  C35      1.0000 0.90273  0.64257  0.64597  Biso   1.000  C
  C36      1.0000 0.35743  0.26017  0.64597  Biso   1.000  C
  O1       1.0000 0.48860  0.36490  0.11380  Biso   1.000  O
  O2       1.0000 0.63510  0.12370  0.11380  Biso   1.000  O
  O3       1.0000 0.87630  0.51140  0.11380  Biso   1.000  O
  O4       1.0000 0.15527  0.69823  0.44713  Biso   1.000  O
  O5       1.0000 0.30177  0.45703  0.44713  Biso   1.000  O
  O6       1.0000 0.54297  0.84473  0.44713  Biso   1.000  O
  O7       1.0000 0.82193  0.03157  0.78047  Biso   1.000  O
  O8       1.0000 0.96843  0.79037  0.78047  Biso   1.000  O
  O9       1.0000 0.20963  0.17807  0.78047  Biso   1.000  O
  O10      1.0000 0.51140  0.63510  0.88620  Biso   1.000  O
  O11      1.0000 0.36490  0.87630  0.88620  Biso   1.000  O
  O12      1.0000 0.12370  0.48860  0.88620  Biso   1.000  O
  O13      1.0000 0.17807  0.96843  0.21953  Biso   1.000  O
  O14      1.0000 0.03157  0.20963  0.21953  Biso   1.000  O
  O15      1.0000 0.79037  0.82193  0.21953  Biso   1.000  O
  O16      1.0000 0.84473  0.30177  0.55287  Biso   1.000  O
  O17      1.0000 0.69823  0.54297  0.55287  Biso   1.000  O
  O18      1.0000 0.45703  0.15527  0.55287  Biso   1.000  O
  O19      1.0000 0.70800  0.65170  0.04310  Biso   1.000  O
  O20      1.0000 0.34830  0.05630  0.04310  Biso   1.000  O
  O21      1.0000 0.94370  0.29200  0.04310  Biso   1.000  O
  O22      1.0000 0.37467  0.98503  0.37643  Biso   1.000  O
  O23      1.0000 0.01497  0.38963  0.37643  Biso   1.000  O
  O24      1.0000 0.61037  0.62533  0.37643  Biso   1.000  O
  O25      1.0000 0.04133  0.31837  0.70977  Biso   1.000  O
  O26      1.0000 0.68163  0.72297  0.70977  Biso   1.000  O
  O27      1.0000 0.27703  0.95867  0.70977  Biso   1.000  O
  O28      1.0000 0.29200  0.34830  0.95690  Biso   1.000  O
  O29      1.0000 0.65170  0.94370  0.95690  Biso   1.000  O
  O30      1.0000 0.05630  0.70800  0.95690  Biso   1.000  O
  O31      1.0000 0.95867  0.68163  0.29023  Biso   1.000  O
  O32      1.0000 0.31837  0.27703  0.29023  Biso   1.000  O
  O33      1.0000 0.72297  0.04133  0.29023  Biso   1.000  O
  O34      1.0000 0.62533  0.01497  0.62357  Biso   1.000  O
  O35      1.0000 0.98503  0.61037  0.62357  Biso   1.000  O
  O36      1.0000 0.38963  0.37467  0.62357  Biso   1.000  O
  O37      1.0000 0.16870  0.16060  0.08860  Biso   1.000  O
  O38      1.0000 0.83940  0.00810  0.08860  Biso   1.000  O
  O39      1.0000 0.99190  0.83130  0.08860  Biso   1.000  O
  O40      1.0000 0.83537  0.49393  0.42193  Biso   1.000  O
  O41      1.0000 0.50607  0.34143  0.42193  Biso   1.000  O
  O42      1.0000 0.65857  0.16463  0.42193  Biso   1.000  O
  O43      1.0000 0.50203  0.82727  0.75527  Biso   1.000  O
  O44      1.0000 0.17273  0.67477  0.75527  Biso   1.000  O
  O45      1.0000 0.32523  0.49797  0.75527  Biso   1.000  O
  O46      1.0000 0.83130  0.83940  0.91140  Biso   1.000  O
  O47      1.0000 0.16060  0.99190  0.91140  Biso   1.000  O
  O48      1.0000 0.00810  0.16870  0.91140  Biso   1.000  O
  O49      1.0000 0.49797  0.17273  0.24473  Biso   1.000  O
  O50      1.0000 0.82727  0.32523  0.24473  Biso   1.000  O
  O51      1.0000 0.67477  0.50203  0.24473  Biso   1.000  O
  O52      1.0000 0.16463  0.50607  0.57807  Biso   1.000  O
  O53      1.0000 0.49393  0.65857  0.57807  Biso   1.000  O
  O54      1.0000 0.34143  0.83537  0.57807  Biso   1.000  O
  H1       1.0000 0.18400  0.20700  0.03000  Biso   1.000  H
  H2       1.0000 0.79300  0.97700  0.03000  Biso   1.000  H
  H3       1.0000 0.02300  0.81600  0.03000  Biso   1.000  H
  H4       1.0000 0.85067  0.54033  0.36333  Biso   1.000  H
  H5       1.0000 0.45967  0.31033  0.36333  Biso   1.000  H
  H6       1.0000 0.68967  0.14933  0.36333  Biso   1.000  H
  H7       1.0000 0.51733  0.87367  0.69667  Biso   1.000  H
  H8       1.0000 0.12633  0.64367  0.69667  Biso   1.000  H
  H9       1.0000 0.35633  0.48267  0.69667  Biso   1.000  H
  H10      1.0000 0.81600  0.79300  0.97000  Biso   1.000  H
  H11      1.0000 0.20700  0.02300  0.97000  Biso   1.000  H
  H12      1.0000 0.97700  0.18400  0.97000  Biso   1.000  H
  H13      1.0000 0.48267  0.12633  0.30333  Biso   1.000  H
  H14      1.0000 0.87367  0.35633  0.30333  Biso   1.000  H
  H15      1.0000 0.64367  0.51733  0.30333  Biso   1.000  H
  H16      1.0000 0.14933  0.45967  0.63667  Biso   1.000  H
  H17      1.0000 0.54033  0.68967  0.63667  Biso   1.000  H
  H18      1.0000 0.31033  0.85067  0.63667  Biso   1.000  H
  H19      1.0000 0.11600  0.18600  0.12000  Biso   1.000  H
  H20      1.0000 0.81400  0.93000  0.12000  Biso   1.000  H
  H21      1.0000 0.07000  0.88400  0.12000  Biso   1.000  H
  H22      1.0000 0.78267  0.51933  0.45333  Biso   1.000  H
  H23      1.0000 0.48067  0.26333  0.45333  Biso   1.000  H
  H24      1.0000 0.73667  0.21733  0.45333  Biso   1.000  H
  H25      1.0000 0.44933  0.85267  0.78667  Biso   1.000  H
  H26      1.0000 0.14733  0.59667  0.78667  Biso   1.000  H
  H27      1.0000 0.40333  0.55067  0.78667  Biso   1.000  H
  H28      1.0000 0.88400  0.81400  0.88000  Biso   1.000  H
  H29      1.0000 0.18600  0.07000  0.88000  Biso   1.000  H
  H30      1.0000 0.93000  0.11600  0.88000  Biso   1.000  H
  H31      1.0000 0.55067  0.14733  0.21333  Biso   1.000  H
  H32      1.0000 0.85267  0.40333  0.21333  Biso   1.000  H
  H33      1.0000 0.59667  0.44933  0.21333  Biso   1.000  H
  H34      1.0000 0.21733  0.48067  0.54667  Biso   1.000  H
  H35      1.0000 0.51933  0.73667  0.54667  Biso   1.000  H
  H36      1.0000 0.26333  0.78267  0.54667  Biso   1.000  H
