data_image0
_cell_length_a       29.829
_cell_length_b       13.139
_cell_length_c       8.5558
_cell_angle_alpha    90
_cell_angle_beta     105.95
_cell_angle_gamma    90

_symmetry_space_group_name_H-M    "P 1"
_symmetry_int_tables_number       1

loop_
  _symmetry_equiv_pos_as_xyz
  'x, y, z'

loop_
  _atom_site_label
  _atom_site_occupancy
  _atom_site_fract_x
  _atom_site_fract_y
  _atom_site_fract_z
  _atom_site_thermal_displace_type
  _atom_site_B_iso_or_equiv
  _atom_site_type_symbol
  Cu1      1.0000 0.21318  0.78290  0.04033  Biso   1.000  Cu
  Cu2      1.0000 0.71318  0.28290  0.04033  Biso   1.000  Cu
  Cu3      1.0000 0.21318  0.21710  0.54033  Biso   1.000  Cu
  Cu4      1.0000 0.71318  0.71710  0.54033  Biso   1.000  Cu
  Cu5      1.0000 0.78682  0.21710  0.95967  Biso   1.000  Cu
  Cu6      1.0000 0.28682  0.71710  0.95967  Biso   1.000  Cu
  Cu7      1.0000 0.78682  0.78290  0.45967  Biso   1.000  Cu
  Cu8      1.0000 0.28682  0.28290  0.45967  Biso   1.000  Cu
  O1       1.0000 0.00000  0.89510  0.25000  Biso   1.000  O
  O2       1.0000 0.50000  0.39510  0.25000  Biso   1.000  O
  O3       1.0000 0.00000  0.10490  0.75000  Biso   1.000  O
  O4       1.0000 0.50000  0.60490  0.75000  Biso   1.000  O
  O5       1.0000 0.24385  0.91550  0.05620  Biso   1.000  O
  O6       1.0000 0.74385  0.41550  0.05620  Biso   1.000  O
  O7       1.0000 0.24385  0.08450  0.55620  Biso   1.000  O
  O8       1.0000 0.74385  0.58450  0.55620  Biso   1.000  O
  O9       1.0000 0.75615  0.08450  0.94380  Biso   1.000  O
  O10      1.0000 0.25615  0.58450  0.94380  Biso   1.000  O
  O11      1.0000 0.75615  0.91550  0.44380  Biso   1.000  O
  O12      1.0000 0.25615  0.41550  0.44380  Biso   1.000  O
  O13      1.0000 0.30630  0.85980  0.98730  Biso   1.000  O
  O14      1.0000 0.80630  0.35980  0.98730  Biso   1.000  O
  O15      1.0000 0.30630  0.14020  0.48730  Biso   1.000  O
  O16      1.0000 0.80630  0.64020  0.48730  Biso   1.000  O
  O17      1.0000 0.69370  0.14020  0.01270  Biso   1.000  O
  O18      1.0000 0.19370  0.64020  0.01270  Biso   1.000  O
  O19      1.0000 0.69370  0.85980  0.51270  Biso   1.000  O
  O20      1.0000 0.19370  0.35980  0.51270  Biso   1.000  O
  O21      1.0000 0.18600  0.80660  0.80530  Biso   1.000  O
  O22      1.0000 0.68600  0.30660  0.80530  Biso   1.000  O
  O23      1.0000 0.18600  0.19340  0.30530  Biso   1.000  O
  O24      1.0000 0.68600  0.69340  0.30530  Biso   1.000  O
  O25      1.0000 0.81400  0.19340  0.19470  Biso   1.000  O
  O26      1.0000 0.31400  0.69340  0.19470  Biso   1.000  O
  O27      1.0000 0.81400  0.80660  0.69470  Biso   1.000  O
  O28      1.0000 0.31400  0.30660  0.69470  Biso   1.000  O
  O29      1.0000 0.24910  0.74940  0.74000  Biso   1.000  O
  O30      1.0000 0.74910  0.24940  0.74000  Biso   1.000  O
  O31      1.0000 0.24910  0.25060  0.24000  Biso   1.000  O
  O32      1.0000 0.74910  0.75060  0.24000  Biso   1.000  O
  O33      1.0000 0.75090  0.25060  0.26000  Biso   1.000  O
  O34      1.0000 0.25090  0.75060  0.26000  Biso   1.000  O
  O35      1.0000 0.75090  0.74940  0.76000  Biso   1.000  O
  O36      1.0000 0.25090  0.24940  0.76000  Biso   1.000  O
  O37      1.0000 0.06320  0.63260  0.60800  Biso   1.000  O
  O38      1.0000 0.56320  0.13260  0.60800  Biso   1.000  O
  O39      1.0000 0.06320  0.36740  0.10800  Biso   1.000  O
  O40      1.0000 0.56320  0.86740  0.10800  Biso   1.000  O
  O41      1.0000 0.93680  0.36740  0.39200  Biso   1.000  O
  O42      1.0000 0.43680  0.86740  0.39200  Biso   1.000  O
  O43      1.0000 0.93680  0.63260  0.89200  Biso   1.000  O
  O44      1.0000 0.43680  0.13260  0.89200  Biso   1.000  O
  H1       1.0000 0.08280  0.67460  0.65330  Biso   1.000  H
  H2       1.0000 0.58280  0.17460  0.65330  Biso   1.000  H
  H3       1.0000 0.08280  0.32540  0.15330  Biso   1.000  H
  H4       1.0000 0.58280  0.82540  0.15330  Biso   1.000  H
  H5       1.0000 0.91720  0.32540  0.34670  Biso   1.000  H
  H6       1.0000 0.41720  0.82540  0.34670  Biso   1.000  H
  H7       1.0000 0.91720  0.67460  0.84670  Biso   1.000  H
  H8       1.0000 0.41720  0.17460  0.84670  Biso   1.000  H
  N1       1.0000 0.15220  0.83930  0.11230  Biso   1.000  N
  N2       1.0000 0.65220  0.33930  0.11230  Biso   1.000  N
  N3       1.0000 0.15220  0.16070  0.61230  Biso   1.000  N
  N4       1.0000 0.65220  0.66070  0.61230  Biso   1.000  N
  N5       1.0000 0.84780  0.16070  0.88770  Biso   1.000  N
  N6       1.0000 0.34780  0.66070  0.88770  Biso   1.000  N
  N7       1.0000 0.84780  0.83930  0.38770  Biso   1.000  N
  N8       1.0000 0.34780  0.33930  0.38770  Biso   1.000  N
  N9       1.0000 0.02140  0.05450  0.23000  Biso   1.000  N
  N10      1.0000 0.52140  0.55450  0.23000  Biso   1.000  N
  N11      1.0000 0.02140  0.94550  0.73000  Biso   1.000  N
  N12      1.0000 0.52140  0.44550  0.73000  Biso   1.000  N
  N13      1.0000 0.97860  0.94550  0.77000  Biso   1.000  N
  N14      1.0000 0.47860  0.44550  0.77000  Biso   1.000  N
  N15      1.0000 0.97860  0.05450  0.27000  Biso   1.000  N
  N16      1.0000 0.47860  0.55450  0.27000  Biso   1.000  N
  C1       1.0000 0.14950  0.93600  0.15080  Biso   1.000  C
  C2       1.0000 0.64950  0.43600  0.15080  Biso   1.000  C
  C3       1.0000 0.14950  0.06400  0.65080  Biso   1.000  C
  C4       1.0000 0.64950  0.56400  0.65080  Biso   1.000  C
  C5       1.0000 0.85050  0.06400  0.84920  Biso   1.000  C
  C6       1.0000 0.35050  0.56400  0.84920  Biso   1.000  C
  C7       1.0000 0.85050  0.93600  0.34920  Biso   1.000  C
  C8       1.0000 0.35050  0.43600  0.34920  Biso   1.000  C
  H9       1.0000 0.17470  0.97770  0.15180  Biso   1.000  H
  H10      1.0000 0.67470  0.47770  0.15180  Biso   1.000  H
  H11      1.0000 0.17470  0.02230  0.65180  Biso   1.000  H
  H12      1.0000 0.67470  0.52230  0.65180  Biso   1.000  H
  H13      1.0000 0.82530  0.02230  0.84820  Biso   1.000  H
  H14      1.0000 0.32530  0.52230  0.84820  Biso   1.000  H
  H15      1.0000 0.82530  0.97770  0.34820  Biso   1.000  H
  H16      1.0000 0.32530  0.47770  0.34820  Biso   1.000  H
  C9       1.0000 0.11150  0.98010  0.19000  Biso   1.000  C
  C10      1.0000 0.61150  0.48010  0.19000  Biso   1.000  C
  C11      1.0000 0.11150  0.01990  0.69000  Biso   1.000  C
  C12      1.0000 0.61150  0.51990  0.69000  Biso   1.000  C
  C13      1.0000 0.88850  0.01990  0.81000  Biso   1.000  C
  C14      1.0000 0.38850  0.51990  0.81000  Biso   1.000  C
  C15      1.0000 0.88850  0.98010  0.31000  Biso   1.000  C
  C16      1.0000 0.38850  0.48010  0.31000  Biso   1.000  C
  H17      1.0000 0.11120  0.04870  0.21660  Biso   1.000  H
  H18      1.0000 0.61120  0.54870  0.21660  Biso   1.000  H
  H19      1.0000 0.11120  0.95130  0.71660  Biso   1.000  H
  H20      1.0000 0.61120  0.45130  0.71660  Biso   1.000  H
  H21      1.0000 0.88880  0.95130  0.78340  Biso   1.000  H
  H22      1.0000 0.38880  0.45130  0.78340  Biso   1.000  H
  H23      1.0000 0.88880  0.04870  0.28340  Biso   1.000  H
  H24      1.0000 0.38880  0.54870  0.28340  Biso   1.000  H
  C17      1.0000 0.07440  0.91760  0.18760  Biso   1.000  C
  C18      1.0000 0.57440  0.41760  0.18760  Biso   1.000  C
  C19      1.0000 0.07440  0.08240  0.68760  Biso   1.000  C
  C20      1.0000 0.57440  0.58240  0.68760  Biso   1.000  C
  C21      1.0000 0.92560  0.08240  0.81240  Biso   1.000  C
  C22      1.0000 0.42560  0.58240  0.81240  Biso   1.000  C
  C23      1.0000 0.92560  0.91760  0.31240  Biso   1.000  C
  C24      1.0000 0.42560  0.41760  0.31240  Biso   1.000  C
  C25      1.0000 0.07700  0.81640  0.15130  Biso   1.000  C
  C26      1.0000 0.57700  0.31640  0.15130  Biso   1.000  C
  C27      1.0000 0.07700  0.18360  0.65130  Biso   1.000  C
  C28      1.0000 0.57700  0.68360  0.65130  Biso   1.000  C
  C29      1.0000 0.92300  0.18360  0.84870  Biso   1.000  C
  C30      1.0000 0.42300  0.68360  0.84870  Biso   1.000  C
  C31      1.0000 0.92300  0.81640  0.34870  Biso   1.000  C
  C32      1.0000 0.42300  0.31640  0.34870  Biso   1.000  C
  H25      1.0000 0.05270  0.77250  0.15260  Biso   1.000  H
  H26      1.0000 0.55270  0.27250  0.15260  Biso   1.000  H
  H27      1.0000 0.05270  0.22750  0.65260  Biso   1.000  H
  H28      1.0000 0.55270  0.72750  0.65260  Biso   1.000  H
  H29      1.0000 0.94730  0.22750  0.84740  Biso   1.000  H
  H30      1.0000 0.44730  0.72750  0.84740  Biso   1.000  H
  H31      1.0000 0.94730  0.77250  0.34740  Biso   1.000  H
  H32      1.0000 0.44730  0.27250  0.34740  Biso   1.000  H
  C33      1.0000 0.11620  0.78060  0.11280  Biso   1.000  C
  C34      1.0000 0.61620  0.28060  0.11280  Biso   1.000  C
  C35      1.0000 0.11620  0.21940  0.61280  Biso   1.000  C
  C36      1.0000 0.61620  0.71940  0.61280  Biso   1.000  C
  C37      1.0000 0.88380  0.21940  0.88720  Biso   1.000  C
  C38      1.0000 0.38380  0.71940  0.88720  Biso   1.000  C
  C39      1.0000 0.88380  0.78060  0.38720  Biso   1.000  C
  C40      1.0000 0.38380  0.28060  0.38720  Biso   1.000  C
  H33      1.0000 0.11730  0.71220  0.08610  Biso   1.000  H
  H34      1.0000 0.61730  0.21220  0.08610  Biso   1.000  H
  H35      1.0000 0.11730  0.28780  0.58610  Biso   1.000  H
  H36      1.0000 0.61730  0.78780  0.58610  Biso   1.000  H
  H37      1.0000 0.88270  0.28780  0.91390  Biso   1.000  H
  H38      1.0000 0.38270  0.78780  0.91390  Biso   1.000  H
  H39      1.0000 0.88270  0.71220  0.41390  Biso   1.000  H
  H40      1.0000 0.38270  0.21220  0.41390  Biso   1.000  H
  C41      1.0000 0.03320  0.96050  0.22310  Biso   1.000  C
  C42      1.0000 0.53320  0.46050  0.22310  Biso   1.000  C
  C43      1.0000 0.03320  0.03950  0.72310  Biso   1.000  C
  C44      1.0000 0.53320  0.53950  0.72310  Biso   1.000  C
  C45      1.0000 0.96680  0.03950  0.77690  Biso   1.000  C
  C46      1.0000 0.46680  0.53950  0.77690  Biso   1.000  C
  C47      1.0000 0.96680  0.96050  0.27690  Biso   1.000  C
  C48      1.0000 0.46680  0.46050  0.27690  Biso   1.000  C
  C49      1.0000 0.28200  0.92690  0.02650  Biso   1.000  C
  C50      1.0000 0.78200  0.42690  0.02650  Biso   1.000  C
  C51      1.0000 0.28200  0.07310  0.52650  Biso   1.000  C
  C52      1.0000 0.78200  0.57310  0.52650  Biso   1.000  C
  C53      1.0000 0.71800  0.07310  0.97350  Biso   1.000  C
  C54      1.0000 0.21800  0.57310  0.97350  Biso   1.000  C
  C55      1.0000 0.71800  0.92690  0.47350  Biso   1.000  C
  C56      1.0000 0.21800  0.42690  0.47350  Biso   1.000  C
  C57      1.0000 0.30010  0.03830  0.03620  Biso   1.000  C
  C58      1.0000 0.80010  0.53830  0.03620  Biso   1.000  C
  C59      1.0000 0.30010  0.96170  0.53620  Biso   1.000  C
  C60      1.0000 0.80010  0.46170  0.53620  Biso   1.000  C
  C61      1.0000 0.69990  0.96170  0.96380  Biso   1.000  C
  C62      1.0000 0.19990  0.46170  0.96380  Biso   1.000  C
  C63      1.0000 0.69990  0.03830  0.46380  Biso   1.000  C
  C64      1.0000 0.19990  0.53830  0.46380  Biso   1.000  C
  H41      1.0000 0.27830  0.08260  0.06640  Biso   1.000  H
  H42      1.0000 0.77830  0.58260  0.06640  Biso   1.000  H
  H43      1.0000 0.27830  0.91740  0.56640  Biso   1.000  H
  H44      1.0000 0.77830  0.41740  0.56640  Biso   1.000  H
  H45      1.0000 0.72170  0.91740  0.93360  Biso   1.000  H
  H46      1.0000 0.22170  0.41740  0.93360  Biso   1.000  H
  H47      1.0000 0.72170  0.08260  0.43360  Biso   1.000  H
  H48      1.0000 0.22170  0.58260  0.43360  Biso   1.000  H
  H49      1.0000 0.30350  0.05850  0.93210  Biso   1.000  H
  H50      1.0000 0.80350  0.55850  0.93210  Biso   1.000  H
  H51      1.0000 0.30350  0.94150  0.43210  Biso   1.000  H
  H52      1.0000 0.80350  0.44150  0.43210  Biso   1.000  H
  H53      1.0000 0.69650  0.94150  0.06790  Biso   1.000  H
  H54      1.0000 0.19650  0.44150  0.06790  Biso   1.000  H
  H55      1.0000 0.69650  0.05850  0.56790  Biso   1.000  H
  H56      1.0000 0.19650  0.55850  0.56790  Biso   1.000  H
  H57      1.0000 0.32980  0.04270  0.11610  Biso   1.000  H
  H58      1.0000 0.82980  0.54270  0.11610  Biso   1.000  H
  H59      1.0000 0.32980  0.95730  0.61610  Biso   1.000  H
  H60      1.0000 0.82980  0.45730  0.61610  Biso   1.000  H
  H61      1.0000 0.67020  0.95730  0.88390  Biso   1.000  H
  H62      1.0000 0.17020  0.45730  0.88390  Biso   1.000  H
  H63      1.0000 0.67020  0.04270  0.38390  Biso   1.000  H
  H64      1.0000 0.17020  0.54270  0.38390  Biso   1.000  H
  C65      1.0000 0.20880  0.78650  0.70450  Biso   1.000  C
  C66      1.0000 0.70880  0.28650  0.70450  Biso   1.000  C
  C67      1.0000 0.20880  0.21350  0.20450  Biso   1.000  C
  C68      1.0000 0.70880  0.71350  0.20450  Biso   1.000  C
  C69      1.0000 0.79120  0.21350  0.29550  Biso   1.000  C
  C70      1.0000 0.29120  0.71350  0.29550  Biso   1.000  C
  C71      1.0000 0.79120  0.78650  0.79550  Biso   1.000  C
  C72      1.0000 0.29120  0.28650  0.79550  Biso   1.000  C
  C73      1.0000 0.18470  0.80740  0.52670  Biso   1.000  C
  C74      1.0000 0.68470  0.30740  0.52670  Biso   1.000  C
  C75      1.0000 0.18470  0.19260  0.02670  Biso   1.000  C
  C76      1.0000 0.68470  0.69260  0.02670  Biso   1.000  C
  C77      1.0000 0.81530  0.19260  0.47330  Biso   1.000  C
  C78      1.0000 0.31530  0.69260  0.47330  Biso   1.000  C
  C79      1.0000 0.81530  0.80740  0.97330  Biso   1.000  C
  C80      1.0000 0.31530  0.30740  0.97330  Biso   1.000  C
  H65      1.0000 0.15430  0.83560  0.51690  Biso   1.000  H
  H66      1.0000 0.65430  0.33560  0.51690  Biso   1.000  H
  H67      1.0000 0.15430  0.16440  0.01690  Biso   1.000  H
  H68      1.0000 0.65430  0.66440  0.01690  Biso   1.000  H
  H69      1.0000 0.84570  0.16440  0.48310  Biso   1.000  H
  H70      1.0000 0.34570  0.66440  0.48310  Biso   1.000  H
  H71      1.0000 0.84570  0.83560  0.98310  Biso   1.000  H
  H72      1.0000 0.34570  0.33560  0.98310  Biso   1.000  H
  H73      1.0000 0.18160  0.74500  0.46630  Biso   1.000  H
  H74      1.0000 0.68160  0.24500  0.46630  Biso   1.000  H
  H75      1.0000 0.18160  0.25500  0.96630  Biso   1.000  H
  H76      1.0000 0.68160  0.75500  0.96630  Biso   1.000  H
  H77      1.0000 0.81840  0.25500  0.53370  Biso   1.000  H
  H78      1.0000 0.31840  0.75500  0.53370  Biso   1.000  H
  H79      1.0000 0.81840  0.74500  0.03370  Biso   1.000  H
  H80      1.0000 0.31840  0.24500  0.03370  Biso   1.000  H
  H81      1.0000 0.20290  0.85490  0.48450  Biso   1.000  H
  H82      1.0000 0.70290  0.35490  0.48450  Biso   1.000  H
  H83      1.0000 0.20290  0.14510  0.98450  Biso   1.000  H
  H84      1.0000 0.70290  0.64510  0.98450  Biso   1.000  H
  H85      1.0000 0.79710  0.14510  0.51550  Biso   1.000  H
  H86      1.0000 0.29710  0.64510  0.51550  Biso   1.000  H
  H87      1.0000 0.79710  0.85490  0.01550  Biso   1.000  H
  H88      1.0000 0.29710  0.35490  0.01550  Biso   1.000  H
  C81      1.0000 0.08610  0.50500  0.66100  Biso   1.000  C
  C82      1.0000 0.58610  0.00500  0.66100  Biso   1.000  C
  C83      1.0000 0.08610  0.49500  0.16100  Biso   1.000  C
  C84      1.0000 0.58610  0.99500  0.16100  Biso   1.000  C
  C85      1.0000 0.91390  0.49500  0.33900  Biso   1.000  C
  C86      1.0000 0.41390  0.99500  0.33900  Biso   1.000  C
  C87      1.0000 0.91390  0.50500  0.83900  Biso   1.000  C
  C88      1.0000 0.41390  0.00500  0.83900  Biso   1.000  C
