data_image0
_cell_length_a       9.4253
_cell_length_b       10.9373
_cell_length_c       23.6378
_cell_angle_alpha    90
_cell_angle_beta     98.733
_cell_angle_gamma    90

_symmetry_space_group_name_H-M    "P 1"
_symmetry_int_tables_number       1

loop_
  _symmetry_equiv_pos_as_xyz
  'x, y, z'

loop_
  _atom_site_label
  _atom_site_occupancy
  _atom_site_fract_x
  _atom_site_fract_y
  _atom_site_fract_z
  _atom_site_thermal_displace_type
  _atom_site_B_iso_or_equiv
  _atom_site_type_symbol
  Cu1      1.0000 0.10528  0.11754  0.05231  Biso   1.000  Cu
  Cu2      1.0000 0.10528  0.38246  0.55231  Biso   1.000  Cu
  Cu3      1.0000 0.89472  0.88246  0.94769  Biso   1.000  Cu
  Cu4      1.0000 0.89472  0.61754  0.44769  Biso   1.000  Cu
  S1       1.0000 0.60033  0.84465  0.18896  Biso   1.000  S
  S2       1.0000 0.60033  0.65535  0.68896  Biso   1.000  S
  S3       1.0000 0.39967  0.15535  0.81104  Biso   1.000  S
  S4       1.0000 0.39967  0.34465  0.31104  Biso   1.000  S
  S5       1.0000 0.52305  0.46941  0.91278  Biso   1.000  S
  S6       1.0000 0.52305  0.03059  0.41278  Biso   1.000  S
  S7       1.0000 0.47695  0.53059  0.08722  Biso   1.000  S
  S8       1.0000 0.47695  0.96941  0.58722  Biso   1.000  S
  O1       1.0000 0.31290  0.12500  0.07561  Biso   1.000  O
  O2       1.0000 0.31290  0.37500  0.57561  Biso   1.000  O
  O3       1.0000 0.68710  0.87500  0.92439  Biso   1.000  O
  O4       1.0000 0.68710  0.62500  0.42439  Biso   1.000  O
  O5       1.0000 0.28040  0.27640  0.13508  Biso   1.000  O
  O6       1.0000 0.28040  0.22360  0.63508  Biso   1.000  O
  O7       1.0000 0.71960  0.72360  0.86492  Biso   1.000  O
  O8       1.0000 0.71960  0.77640  0.36492  Biso   1.000  O
  O9       1.0000 0.90500  0.07900  0.01696  Biso   1.000  O
  O10      1.0000 0.90500  0.42100  0.51696  Biso   1.000  O
  O11      1.0000 0.09500  0.92100  0.98304  Biso   1.000  O
  O12      1.0000 0.09500  0.57900  0.48304  Biso   1.000  O
  O13      1.0000 0.84520  0.24890  0.05812  Biso   1.000  O
  O14      1.0000 0.84520  0.25110  0.55812  Biso   1.000  O
  O15      1.0000 0.15480  0.75110  0.94188  Biso   1.000  O
  O16      1.0000 0.15480  0.74890  0.44188  Biso   1.000  O
  N1       1.0000 0.08390  0.03270  0.12678  Biso   1.000  N
  N2       1.0000 0.08390  0.46730  0.62678  Biso   1.000  N
  N3       1.0000 0.91610  0.96730  0.87322  Biso   1.000  N
  N4       1.0000 0.91610  0.53270  0.37322  Biso   1.000  N
  N5       1.0000 0.12250  0.25990  0.49008  Biso   1.000  N
  N6       1.0000 0.12250  0.24010  0.99008  Biso   1.000  N
  N7       1.0000 0.87750  0.74010  0.50992  Biso   1.000  N
  N8       1.0000 0.87750  0.75990  0.00992  Biso   1.000  N
  C1       1.0000 0.02420  0.85320  0.28392  Biso   1.000  C
  C2       1.0000 0.02420  0.64680  0.78392  Biso   1.000  C
  C3       1.0000 0.97580  0.14680  0.71608  Biso   1.000  C
  C4       1.0000 0.97580  0.35320  0.21608  Biso   1.000  C
  H1       1.0000 0.10280  0.79660  0.29510  Biso   1.000  H
  H2       1.0000 0.10280  0.70340  0.79510  Biso   1.000  H
  H3       1.0000 0.89720  0.20340  0.70490  Biso   1.000  H
  H4       1.0000 0.89720  0.29660  0.20490  Biso   1.000  H
  H5       1.0000 0.93640  0.80580  0.27630  Biso   1.000  H
  H6       1.0000 0.93640  0.69420  0.77630  Biso   1.000  H
  H7       1.0000 0.06360  0.19420  0.72370  Biso   1.000  H
  H8       1.0000 0.06360  0.30580  0.22370  Biso   1.000  H
  C5       1.0000 0.01380  0.94050  0.33359  Biso   1.000  C
  C6       1.0000 0.01380  0.55950  0.83359  Biso   1.000  C
  C7       1.0000 0.98620  0.05950  0.66641  Biso   1.000  C
  C8       1.0000 0.98620  0.44050  0.16641  Biso   1.000  C
  H9       1.0000 0.97970  0.89570  0.36430  Biso   1.000  H
  H10      1.0000 0.97970  0.60430  0.86430  Biso   1.000  H
  H11      1.0000 0.02030  0.10430  0.63570  Biso   1.000  H
  H12      1.0000 0.02030  0.39570  0.13570  Biso   1.000  H
  H13      1.0000 0.94400  0.00370  0.32080  Biso   1.000  H
  H14      1.0000 0.94400  0.49630  0.82080  Biso   1.000  H
  H15      1.0000 0.05600  0.99630  0.67920  Biso   1.000  H
  H16      1.0000 0.05600  0.50370  0.17920  Biso   1.000  H
  C9       1.0000 0.15630  0.00020  0.35649  Biso   1.000  C
  C10      1.0000 0.15630  0.49980  0.85649  Biso   1.000  C
  C11      1.0000 0.84370  0.99980  0.64351  Biso   1.000  C
  C12      1.0000 0.84370  0.50020  0.14351  Biso   1.000  C
  H17      1.0000 0.19270  0.04140  0.32530  Biso   1.000  H
  H18      1.0000 0.19270  0.45860  0.82530  Biso   1.000  H
  H19      1.0000 0.80730  0.95860  0.67470  Biso   1.000  H
  H20      1.0000 0.80730  0.54140  0.17470  Biso   1.000  H
  H21      1.0000 0.22470  0.93710  0.37090  Biso   1.000  H
  H22      1.0000 0.22470  0.56290  0.87090  Biso   1.000  H
  H23      1.0000 0.77530  0.06290  0.62910  Biso   1.000  H
  H24      1.0000 0.77530  0.43710  0.12910  Biso   1.000  H
  C13      1.0000 0.35690  0.20050  0.11524  Biso   1.000  C
  C14      1.0000 0.35690  0.29950  0.61524  Biso   1.000  C
  C15      1.0000 0.64310  0.79950  0.88476  Biso   1.000  C
  C16      1.0000 0.64310  0.70050  0.38476  Biso   1.000  C
  C17      1.0000 0.51710  0.19220  0.13913  Biso   1.000  C
  C18      1.0000 0.51710  0.30780  0.63913  Biso   1.000  C
  C19      1.0000 0.48290  0.80780  0.86087  Biso   1.000  C
  C20      1.0000 0.48290  0.69220  0.36087  Biso   1.000  C
  H25      1.0000 0.57290  0.20080  0.10810  Biso   1.000  H
  H26      1.0000 0.57290  0.29920  0.60810  Biso   1.000  H
  H27      1.0000 0.42710  0.79920  0.89190  Biso   1.000  H
  H28      1.0000 0.42710  0.70080  0.39190  Biso   1.000  H
  H29      1.0000 0.54300  0.25860  0.16590  Biso   1.000  H
  H30      1.0000 0.54300  0.24140  0.66590  Biso   1.000  H
  H31      1.0000 0.45700  0.74140  0.83410  Biso   1.000  H
  H32      1.0000 0.45700  0.75860  0.33410  Biso   1.000  H
  C21      1.0000 0.81610  0.16500  0.02473  Biso   1.000  C
  C22      1.0000 0.81610  0.33500  0.52473  Biso   1.000  C
  C23      1.0000 0.18390  0.83500  0.97527  Biso   1.000  C
  C24      1.0000 0.18390  0.66500  0.47527  Biso   1.000  C
  C25      1.0000 0.66940  0.15640  0.98805  Biso   1.000  C
  C26      1.0000 0.66940  0.34360  0.48805  Biso   1.000  C
  C27      1.0000 0.33060  0.84360  0.01195  Biso   1.000  C
  C28      1.0000 0.33060  0.65640  0.51195  Biso   1.000  C
  H33      1.0000 0.66750  0.08740  0.96220  Biso   1.000  H
  H34      1.0000 0.66750  0.41260  0.46220  Biso   1.000  H
  H35      1.0000 0.33250  0.91260  0.03780  Biso   1.000  H
  H36      1.0000 0.33250  0.58740  0.53780  Biso   1.000  H
  H37      1.0000 0.59660  0.14320  0.01240  Biso   1.000  H
  H38      1.0000 0.59660  0.35680  0.51240  Biso   1.000  H
  H39      1.0000 0.40340  0.85680  0.98760  Biso   1.000  H
  H40      1.0000 0.40340  0.64320  0.48760  Biso   1.000  H
  C29      1.0000 0.96950  0.05570  0.15271  Biso   1.000  C
  C30      1.0000 0.96950  0.44430  0.65271  Biso   1.000  C
  C31      1.0000 0.03050  0.94430  0.84729  Biso   1.000  C
  C32      1.0000 0.03050  0.55570  0.34729  Biso   1.000  C
  H41      1.0000 0.90120  0.11120  0.13580  Biso   1.000  H
  H42      1.0000 0.90120  0.38880  0.63580  Biso   1.000  H
  H43      1.0000 0.09880  0.88880  0.86420  Biso   1.000  H
  H44      1.0000 0.09880  0.61120  0.36420  Biso   1.000  H
  C33      1.0000 0.94900  0.00130  0.20273  Biso   1.000  C
  C34      1.0000 0.94900  0.49870  0.70273  Biso   1.000  C
  C35      1.0000 0.05100  0.99870  0.79727  Biso   1.000  C
  C36      1.0000 0.05100  0.50130  0.29727  Biso   1.000  C
  H45      1.0000 0.86800  0.02050  0.21900  Biso   1.000  H
  H46      1.0000 0.86800  0.47950  0.71900  Biso   1.000  H
  H47      1.0000 0.13200  0.97950  0.78100  Biso   1.000  H
  H48      1.0000 0.13200  0.52050  0.28100  Biso   1.000  H
  C37      1.0000 0.04790  0.91730  0.22977  Biso   1.000  C
  C38      1.0000 0.04790  0.58270  0.72977  Biso   1.000  C
  C39      1.0000 0.95210  0.08270  0.77023  Biso   1.000  C
  C40      1.0000 0.95210  0.41730  0.27023  Biso   1.000  C
  C41      1.0000 0.16660  0.89530  0.20319  Biso   1.000  C
  C42      1.0000 0.16660  0.60470  0.70319  Biso   1.000  C
  C43      1.0000 0.83340  0.10470  0.79681  Biso   1.000  C
  C44      1.0000 0.83340  0.39530  0.29681  Biso   1.000  C
  H49      1.0000 0.23700  0.84090  0.21950  Biso   1.000  H
  H50      1.0000 0.23700  0.65910  0.71950  Biso   1.000  H
  H51      1.0000 0.76300  0.15910  0.78050  Biso   1.000  H
  H52      1.0000 0.76300  0.34090  0.28050  Biso   1.000  H
  C45      1.0000 0.18100  0.95400  0.15253  Biso   1.000  C
  C46      1.0000 0.18100  0.54600  0.65253  Biso   1.000  C
  C47      1.0000 0.81900  0.04600  0.84747  Biso   1.000  C
  C48      1.0000 0.81900  0.45400  0.34747  Biso   1.000  C
  H53      1.0000 0.26200  0.93790  0.13570  Biso   1.000  H
  H54      1.0000 0.26200  0.56210  0.63570  Biso   1.000  H
  H55      1.0000 0.73800  0.06210  0.86430  Biso   1.000  H
  H56      1.0000 0.73800  0.43790  0.36430  Biso   1.000  H
  C49      1.0000 0.13600  0.14060  0.50129  Biso   1.000  C
  C50      1.0000 0.13600  0.35940  0.00129  Biso   1.000  C
  C51      1.0000 0.86400  0.85940  0.49871  Biso   1.000  C
  C52      1.0000 0.86400  0.64060  0.99871  Biso   1.000  C
  H57      1.0000 0.13710  0.11420  0.53880  Biso   1.000  H
  H58      1.0000 0.13710  0.38580  0.03880  Biso   1.000  H
  H59      1.0000 0.86290  0.88580  0.46120  Biso   1.000  H
  H60      1.0000 0.86290  0.61420  0.96120  Biso   1.000  H
  C53      1.0000 0.14840  0.05430  0.45928  Biso   1.000  C
  C54      1.0000 0.14840  0.44570  0.95928  Biso   1.000  C
  C55      1.0000 0.85160  0.94570  0.54072  Biso   1.000  C
  C56      1.0000 0.85160  0.55430  0.04072  Biso   1.000  C
  H61      1.0000 0.15810  0.97200  0.46890  Biso   1.000  H
  H62      1.0000 0.15810  0.52800  0.96890  Biso   1.000  H
  H63      1.0000 0.84190  0.02800  0.53110  Biso   1.000  H
  H64      1.0000 0.84190  0.47200  0.03110  Biso   1.000  H
  C57      1.0000 0.14630  0.09050  0.40313  Biso   1.000  C
  C58      1.0000 0.14630  0.40950  0.90313  Biso   1.000  C
  C59      1.0000 0.85370  0.90950  0.59687  Biso   1.000  C
  C60      1.0000 0.85370  0.59050  0.09687  Biso   1.000  C
  C61      1.0000 0.13280  0.21500  0.39224  Biso   1.000  C
  C62      1.0000 0.13280  0.28500  0.89224  Biso   1.000  C
  C63      1.0000 0.86720  0.78500  0.60776  Biso   1.000  C
  C64      1.0000 0.86720  0.71500  0.10776  Biso   1.000  C
  H65      1.0000 0.13150  0.24400  0.35520  Biso   1.000  H
  H66      1.0000 0.13150  0.25600  0.85520  Biso   1.000  H
  H67      1.0000 0.86850  0.75600  0.64480  Biso   1.000  H
  H68      1.0000 0.86850  0.74400  0.14480  Biso   1.000  H
  C65      1.0000 0.12150  0.29570  0.43595  Biso   1.000  C
  C66      1.0000 0.12150  0.20430  0.93595  Biso   1.000  C
  C67      1.0000 0.87850  0.70430  0.56405  Biso   1.000  C
  C68      1.0000 0.87850  0.79570  0.06405  Biso   1.000  C
  H69      1.0000 0.11280  0.37860  0.42750  Biso   1.000  H
  H70      1.0000 0.11280  0.12140  0.92750  Biso   1.000  H
  H71      1.0000 0.88720  0.62140  0.57250  Biso   1.000  H
  H72      1.0000 0.88720  0.87860  0.07250  Biso   1.000  H
  C69      1.0000 0.55170  0.07240  0.16880  Biso   1.000  C
  C70      1.0000 0.55170  0.42760  0.66880  Biso   1.000  C
  C71      1.0000 0.44830  0.92760  0.83120  Biso   1.000  C
  C72      1.0000 0.44830  0.57240  0.33120  Biso   1.000  C
  C73      1.0000 0.56170  0.05400  0.22900  Biso   1.000  C
  C74      1.0000 0.56170  0.44600  0.72900  Biso   1.000  C
  C75      1.0000 0.43830  0.94600  0.77100  Biso   1.000  C
  C76      1.0000 0.43830  0.55400  0.27100  Biso   1.000  C
  H73      1.0000 0.55260  0.11680  0.25470  Biso   1.000  H
  H74      1.0000 0.55260  0.38320  0.75470  Biso   1.000  H
  H75      1.0000 0.44740  0.88320  0.74530  Biso   1.000  H
  H76      1.0000 0.44740  0.61680  0.24530  Biso   1.000  H
  C77      1.0000 0.58680  0.93150  0.24561  Biso   1.000  C
  C78      1.0000 0.58680  0.56850  0.74561  Biso   1.000  C
  C79      1.0000 0.41320  0.06850  0.75439  Biso   1.000  C
  C80      1.0000 0.41320  0.43150  0.25439  Biso   1.000  C
  H77      1.0000 0.59470  0.90300  0.28300  Biso   1.000  H
  H78      1.0000 0.59470  0.59700  0.78300  Biso   1.000  H
  H79      1.0000 0.40530  0.09700  0.71700  Biso   1.000  H
  H80      1.0000 0.40530  0.40300  0.21700  Biso   1.000  H
  C81      1.0000 0.57250  0.96540  0.14203  Biso   1.000  C
  C82      1.0000 0.57250  0.53460  0.64203  Biso   1.000  C
  C83      1.0000 0.42750  0.03460  0.85797  Biso   1.000  C
  C84      1.0000 0.42750  0.46540  0.35797  Biso   1.000  C
  H81      1.0000 0.57180  0.95830  0.10280  Biso   1.000  H
  H82      1.0000 0.57180  0.54170  0.60280  Biso   1.000  H
  H83      1.0000 0.42820  0.04170  0.89720  Biso   1.000  H
  H84      1.0000 0.42820  0.45830  0.39720  Biso   1.000  H
  C85      1.0000 0.63720  0.27100  0.95442  Biso   1.000  C
  C86      1.0000 0.63720  0.22900  0.45442  Biso   1.000  C
  C87      1.0000 0.36280  0.72900  0.04558  Biso   1.000  C
  C88      1.0000 0.36280  0.77100  0.54558  Biso   1.000  C
  C89      1.0000 0.73010  0.32390  0.91838  Biso   1.000  C
  C90      1.0000 0.73010  0.17610  0.41838  Biso   1.000  C
  C91      1.0000 0.26990  0.67610  0.08162  Biso   1.000  C
  C92      1.0000 0.26990  0.82390  0.58162  Biso   1.000  C
  H85      1.0000 0.81660  0.28860  0.91280  Biso   1.000  H
  H86      1.0000 0.81660  0.21140  0.41280  Biso   1.000  H
  H87      1.0000 0.18340  0.71140  0.08720  Biso   1.000  H
  H88      1.0000 0.18340  0.78860  0.58720  Biso   1.000  H
  C93      1.0000 0.68110  0.42930  0.89342  Biso   1.000  C
  C94      1.0000 0.68110  0.07070  0.39342  Biso   1.000  C
  C95      1.0000 0.31890  0.57070  0.10658  Biso   1.000  C
  C96      1.0000 0.31890  0.92930  0.60658  Biso   1.000  C
  H89      1.0000 0.72860  0.47420  0.86860  Biso   1.000  H
  H90      1.0000 0.72860  0.02580  0.36860  Biso   1.000  H
  H91      1.0000 0.27140  0.52580  0.13140  Biso   1.000  H
  H92      1.0000 0.27140  0.97420  0.63140  Biso   1.000  H
  C97      1.0000 0.52100  0.34260  0.95455  Biso   1.000  C
  C98      1.0000 0.52100  0.15740  0.45455  Biso   1.000  C
  C99      1.0000 0.47900  0.65740  0.04545  Biso   1.000  C
  C100     1.0000 0.47900  0.84260  0.54545  Biso   1.000  C
  H93      1.0000 0.44730  0.32470  0.97530  Biso   1.000  H
  H94      1.0000 0.44730  0.17530  0.47530  Biso   1.000  H
  H95      1.0000 0.55270  0.67530  0.02470  Biso   1.000  H
  H96      1.0000 0.55270  0.82470  0.52470  Biso   1.000  H
