data_image0
_cell_length_a       6.22
_cell_length_b       16.2648
_cell_length_c       10.576
_cell_angle_alpha    90
_cell_angle_beta     116.857
_cell_angle_gamma    90

_symmetry_space_group_name_H-M    "P 1"
_symmetry_int_tables_number       1

loop_
  _symmetry_equiv_pos_as_xyz
  'x, y, z'

loop_
  _atom_site_label
  _atom_site_occupancy
  _atom_site_fract_x
  _atom_site_fract_y
  _atom_site_fract_z
  _atom_site_thermal_displace_type
  _atom_site_B_iso_or_equiv
  _atom_site_type_symbol
  Cu1      1.0000 0.50000  0.00000  0.50000  Biso   1.000  Cu
  Cu2      1.0000 0.50000  0.50000  0.00000  Biso   1.000  Cu
  O1       1.0000 0.36680  0.91295  0.56353  Biso   1.000  O
  O2       1.0000 0.63320  0.41295  0.93647  Biso   1.000  O
  O3       1.0000 0.63320  0.08705  0.43647  Biso   1.000  O
  O4       1.0000 0.36680  0.58705  0.06353  Biso   1.000  O
  O5       1.0000 0.61990  0.88526  0.35874  Biso   1.000  O
  O6       1.0000 0.38010  0.38526  0.14126  Biso   1.000  O
  O7       1.0000 0.38010  0.11474  0.64126  Biso   1.000  O
  O8       1.0000 0.61990  0.61474  0.85874  Biso   1.000  O
  N1       1.0000 0.01100  0.94537  0.36939  Biso   1.000  N
  N2       1.0000 0.98900  0.44537  0.13061  Biso   1.000  N
  N3       1.0000 0.98900  0.05463  0.63061  Biso   1.000  N
  N4       1.0000 0.01100  0.55463  0.86939  Biso   1.000  N
  N5       1.0000 0.15160  0.00404  0.34259  Biso   1.000  N
  N6       1.0000 0.84840  0.50404  0.15741  Biso   1.000  N
  N7       1.0000 0.84840  0.99596  0.65741  Biso   1.000  N
  N8       1.0000 0.15160  0.49596  0.84259  Biso   1.000  N
  C1       1.0000 0.76400  0.82914  0.45557  Biso   1.000  C
  C2       1.0000 0.23600  0.32914  0.04443  Biso   1.000  C
  C3       1.0000 0.23600  0.17086  0.54443  Biso   1.000  C
  C4       1.0000 0.76400  0.67086  0.95557  Biso   1.000  C
  C5       1.0000 0.01720  0.83492  0.51912  Biso   1.000  C
  C6       1.0000 0.98280  0.33492  0.98088  Biso   1.000  C
  C7       1.0000 0.98280  0.16508  0.48088  Biso   1.000  C
  C8       1.0000 0.01720  0.66508  0.01912  Biso   1.000  C
  C9       1.0000 0.14100  0.90165  0.48316  Biso   1.000  C
  C10      1.0000 0.85900  0.40165  0.01684  Biso   1.000  C
  C11      1.0000 0.85900  0.09835  0.51684  Biso   1.000  C
  C12      1.0000 0.14100  0.59835  0.98316  Biso   1.000  C
  C13      1.0000 0.15250  0.77565  0.62007  Biso   1.000  C
  C14      1.0000 0.84750  0.27565  0.87993  Biso   1.000  C
  C15      1.0000 0.84750  0.22435  0.37993  Biso   1.000  C
  C16      1.0000 0.15250  0.72435  0.12007  Biso   1.000  C
  H1       1.0000 0.31990  0.77840  0.66220  Biso   1.000  H
  H2       1.0000 0.68010  0.27840  0.83780  Biso   1.000  H
  H3       1.0000 0.68010  0.22160  0.33780  Biso   1.000  H
  H4       1.0000 0.31990  0.72160  0.16220  Biso   1.000  H
  C17      1.0000 0.79280  0.71029  0.59767  Biso   1.000  C
  C18      1.0000 0.20720  0.21029  0.90233  Biso   1.000  C
  C19      1.0000 0.20720  0.28971  0.40233  Biso   1.000  C
  C20      1.0000 0.79280  0.78971  0.09767  Biso   1.000  C
  H5       1.0000 0.71780  0.66950  0.62510  Biso   1.000  H
  H6       1.0000 0.28220  0.16950  0.87490  Biso   1.000  H
  H7       1.0000 0.28220  0.33050  0.37490  Biso   1.000  H
  H8       1.0000 0.71780  0.83050  0.12510  Biso   1.000  H
  C21      1.0000 0.65500  0.76720  0.49722  Biso   1.000  C
  C22      1.0000 0.34500  0.26720  0.00278  Biso   1.000  C
  C23      1.0000 0.34500  0.23280  0.50278  Biso   1.000  C
  C24      1.0000 0.65500  0.73280  0.99722  Biso   1.000  C
  H9       1.0000 0.48780  0.76420  0.45690  Biso   1.000  H
  H10      1.0000 0.51220  0.26420  0.04310  Biso   1.000  H
  H11      1.0000 0.51220  0.23580  0.54310  Biso   1.000  H
  H12      1.0000 0.48780  0.73580  0.95690  Biso   1.000  H
  C25      1.0000 0.04300  0.71319  0.65843  Biso   1.000  C
  C26      1.0000 0.95700  0.21319  0.84157  Biso   1.000  C
  C27      1.0000 0.95700  0.28681  0.34157  Biso   1.000  C
  C28      1.0000 0.04300  0.78681  0.15843  Biso   1.000  C
  H13      1.0000 0.13540  0.67360  0.72400  Biso   1.000  H
  H14      1.0000 0.86460  0.17360  0.77600  Biso   1.000  H
  H15      1.0000 0.86460  0.32640  0.27600  Biso   1.000  H
  H16      1.0000 0.13540  0.82640  0.22400  Biso   1.000  H
  C29      1.0000 0.03300  0.04781  0.23063  Biso   1.000  C
  C30      1.0000 0.96700  0.54781  0.26937  Biso   1.000  C
  C31      1.0000 0.96700  0.95219  0.76937  Biso   1.000  C
  C32      1.0000 0.03300  0.45219  0.73063  Biso   1.000  C
  C33      1.0000 0.76640  0.03862  0.14190  Biso   1.000  C
  C34      1.0000 0.23360  0.53862  0.35810  Biso   1.000  C
  C35      1.0000 0.23360  0.96138  0.85810  Biso   1.000  C
  C36      1.0000 0.76640  0.46138  0.64190  Biso   1.000  C
  H17      1.0000 0.68540  0.05090  0.19840  Biso   1.000  H
  H18      1.0000 0.31460  0.55090  0.30160  Biso   1.000  H
  H19      1.0000 0.31460  0.94910  0.80160  Biso   1.000  H
  H20      1.0000 0.68540  0.44910  0.69840  Biso   1.000  H
  H21      1.0000 0.73040  0.98320  0.10750  Biso   1.000  H
  H22      1.0000 0.26960  0.48320  0.39250  Biso   1.000  H
  H23      1.0000 0.26960  0.01680  0.89250  Biso   1.000  H
  H24      1.0000 0.73040  0.51680  0.60750  Biso   1.000  H
  H25      1.0000 0.71260  0.07590  0.06310  Biso   1.000  H
  H26      1.0000 0.28740  0.57590  0.43690  Biso   1.000  H
  H27      1.0000 0.28740  0.92410  0.93690  Biso   1.000  H
  H28      1.0000 0.71260  0.42410  0.56310  Biso   1.000  H
  C37      1.0000 0.15310  0.10989  0.18119  Biso   1.000  C
  C38      1.0000 0.84690  0.60989  0.31881  Biso   1.000  C
  C39      1.0000 0.84690  0.89011  0.81881  Biso   1.000  C
  C40      1.0000 0.15310  0.39011  0.68119  Biso   1.000  C
  H29      1.0000 0.32310  0.10980  0.24300  Biso   1.000  H
  H30      1.0000 0.67690  0.60980  0.25700  Biso   1.000  H
  H31      1.0000 0.67690  0.89020  0.75700  Biso   1.000  H
  H32      1.0000 0.32310  0.39020  0.74300  Biso   1.000  H
  H33      1.0000 0.08830  0.16340  0.18200  Biso   1.000  H
  H34      1.0000 0.91170  0.66340  0.31800  Biso   1.000  H
  H35      1.0000 0.91170  0.83660  0.81800  Biso   1.000  H
  H36      1.0000 0.08830  0.33660  0.68200  Biso   1.000  H
  H37      1.0000 0.12530  0.09670  0.08660  Biso   1.000  H
  H38      1.0000 0.87470  0.59670  0.41340  Biso   1.000  H
  H39      1.0000 0.87470  0.90330  0.91340  Biso   1.000  H
  H40      1.0000 0.12530  0.40330  0.58660  Biso   1.000  H
  H41      1.0000 0.70300  0.91830  0.33900  Biso   1.000  H
  H42      1.0000 0.29700  0.41830  0.16100  Biso   1.000  H
  H43      1.0000 0.29700  0.08170  0.66100  Biso   1.000  H
  H44      1.0000 0.70300  0.58170  0.83900  Biso   1.000  H
