data_image0
_cell_length_a       11.299
_cell_length_b       10.7226
_cell_length_c       10.1049
_cell_angle_alpha    90
_cell_angle_beta     109.262
_cell_angle_gamma    90

_symmetry_space_group_name_H-M    "P 1"
_symmetry_int_tables_number       1

loop_
  _symmetry_equiv_pos_as_xyz
  'x, y, z'

loop_
  _atom_site_label
  _atom_site_occupancy
  _atom_site_fract_x
  _atom_site_fract_y
  _atom_site_fract_z
  _atom_site_thermal_displace_type
  _atom_site_B_iso_or_equiv
  _atom_site_type_symbol
  Cu1      1.0000 0.51161  0.58799  0.12871  Biso   1.000  Cu
  Cu2      1.0000 0.51161  0.91201  0.62871  Biso   1.000  Cu
  Cu3      1.0000 0.48839  0.41201  0.87129  Biso   1.000  Cu
  Cu4      1.0000 0.48839  0.08799  0.37129  Biso   1.000  Cu
  Cu5      1.0000 0.51106  0.72438  0.39128  Biso   1.000  Cu
  Cu6      1.0000 0.51106  0.77562  0.89128  Biso   1.000  Cu
  Cu7      1.0000 0.48894  0.27562  0.60872  Biso   1.000  Cu
  Cu8      1.0000 0.48894  0.22438  0.10872  Biso   1.000  Cu
  O1       1.0000 0.32980  0.58500  0.11390  Biso   1.000  O
  O2       1.0000 0.32980  0.91500  0.61390  Biso   1.000  O
  O3       1.0000 0.67020  0.41500  0.88610  Biso   1.000  O
  O4       1.0000 0.67020  0.08500  0.38610  Biso   1.000  O
  O5       1.0000 0.33420  0.67140  0.31750  Biso   1.000  O
  O6       1.0000 0.33420  0.82860  0.81750  Biso   1.000  O
  O7       1.0000 0.66580  0.32860  0.68250  Biso   1.000  O
  O8       1.0000 0.66580  0.17140  0.18250  Biso   1.000  O
  O9       1.0000 0.12890  0.52760  0.48340  Biso   1.000  O
  O10      1.0000 0.12890  0.97240  0.98340  Biso   1.000  O
  O11      1.0000 0.87110  0.47240  0.51660  Biso   1.000  O
  O12      1.0000 0.87110  0.02760  0.01660  Biso   1.000  O
  O13      1.0000 0.22680  0.43130  0.36280  Biso   1.000  O
  O14      1.0000 0.22680  0.06870  0.86280  Biso   1.000  O
  O15      1.0000 0.77320  0.56870  0.63720  Biso   1.000  O
  O16      1.0000 0.77320  0.93130  0.13720  Biso   1.000  O
  O17      1.0000 0.68370  0.71340  0.94600  Biso   1.000  O
  O18      1.0000 0.68370  0.78660  0.44600  Biso   1.000  O
  O19      1.0000 0.31630  0.28660  0.05400  Biso   1.000  O
  O20      1.0000 0.31630  0.21340  0.55400  Biso   1.000  O
  O21      1.0000 0.69240  0.61420  0.14510  Biso   1.000  O
  O22      1.0000 0.69240  0.88580  0.64510  Biso   1.000  O
  O23      1.0000 0.30760  0.38580  0.85490  Biso   1.000  O
  O24      1.0000 0.30760  0.11420  0.35490  Biso   1.000  O
  O25      1.0000 0.56560  0.57140  0.32920  Biso   1.000  O
  O26      1.0000 0.56560  0.92860  0.82920  Biso   1.000  O
  O27      1.0000 0.43440  0.42860  0.67080  Biso   1.000  O
  O28      1.0000 0.43440  0.07140  0.17080  Biso   1.000  O
  O29      1.0000 0.45390  0.61500  0.92880  Biso   1.000  O
  O30      1.0000 0.45390  0.88500  0.42880  Biso   1.000  O
  O31      1.0000 0.54610  0.38500  0.07120  Biso   1.000  O
  O32      1.0000 0.54610  0.11500  0.57120  Biso   1.000  O
  O33      1.0000 0.52470  0.66160  0.63220  Biso   1.000  O
  O34      1.0000 0.52470  0.83840  0.13220  Biso   1.000  O
  O35      1.0000 0.47530  0.33840  0.36780  Biso   1.000  O
  O36      1.0000 0.47530  0.16160  0.86780  Biso   1.000  O
  O37      1.0000 0.15800  0.60000  0.75100  Biso   1.000  O
  O38      1.0000 0.15800  0.90000  0.25100  Biso   1.000  O
  O39      1.0000 0.84200  0.40000  0.24900  Biso   1.000  O
  O40      1.0000 0.84200  0.10000  0.74900  Biso   1.000  O
  O41      1.0000 0.10400  0.45600  0.59500  Biso   1.000  O
  O42      1.0000 0.10400  0.04400  0.09500  Biso   1.000  O
  O43      1.0000 0.89600  0.54400  0.40500  Biso   1.000  O
  O44      1.0000 0.89600  0.95600  0.90500  Biso   1.000  O
  N1       1.0000 0.15040  0.50750  0.37380  Biso   1.000  N
  N2       1.0000 0.15040  0.99250  0.87380  Biso   1.000  N
  N3       1.0000 0.84960  0.49250  0.62620  Biso   1.000  N
  N4       1.0000 0.84960  0.00750  0.12620  Biso   1.000  N
  N5       1.0000 0.10800  0.49900  0.70500  Biso   1.000  N
  N6       1.0000 0.10800  0.00100  0.20500  Biso   1.000  N
  N7       1.0000 0.89200  0.50100  0.29500  Biso   1.000  N
  N8       1.0000 0.89200  0.99900  0.79500  Biso   1.000  N
  C1       1.0000 0.28040  0.62400  0.20000  Biso   1.000  C
  C2       1.0000 0.28040  0.87600  0.70000  Biso   1.000  C
  C3       1.0000 0.71960  0.37600  0.80000  Biso   1.000  C
  C4       1.0000 0.71960  0.12400  0.30000  Biso   1.000  C
  C5       1.0000 0.13910  0.61900  0.15680  Biso   1.000  C
  C6       1.0000 0.13910  0.88100  0.65680  Biso   1.000  C
  C7       1.0000 0.86090  0.38100  0.84320  Biso   1.000  C
  C8       1.0000 0.86090  0.11900  0.34320  Biso   1.000  C
  C9       1.0000 0.06710  0.67210  0.03300  Biso   1.000  C
  C10      1.0000 0.06710  0.82790  0.53300  Biso   1.000  C
  C11      1.0000 0.93290  0.32790  0.96700  Biso   1.000  C
  C12      1.0000 0.93290  0.17210  0.46700  Biso   1.000  C
  C13      1.0000 0.93840  0.68350  0.00080  Biso   1.000  C
  C14      1.0000 0.93840  0.81650  0.50080  Biso   1.000  C
  C15      1.0000 0.06160  0.31650  0.99920  Biso   1.000  C
  C16      1.0000 0.06160  0.18350  0.49920  Biso   1.000  C
  C17      1.0000 0.87910  0.63900  0.09090  Biso   1.000  C
  C18      1.0000 0.87910  0.86100  0.59090  Biso   1.000  C
  C19      1.0000 0.12090  0.36100  0.90910  Biso   1.000  C
  C20      1.0000 0.12090  0.13900  0.40910  Biso   1.000  C
  C21      1.0000 0.95020  0.58160  0.21500  Biso   1.000  C
  C22      1.0000 0.95020  0.91840  0.71500  Biso   1.000  C
  C23      1.0000 0.04980  0.41840  0.78500  Biso   1.000  C
  C24      1.0000 0.04980  0.08160  0.28500  Biso   1.000  C
  C25      1.0000 0.07810  0.57280  0.24590  Biso   1.000  C
  C26      1.0000 0.07810  0.92720  0.74590  Biso   1.000  C
  C27      1.0000 0.92190  0.42720  0.75410  Biso   1.000  C
  C28      1.0000 0.92190  0.07280  0.25410  Biso   1.000  C
  C29      1.0000 0.73990  0.65580  0.05790  Biso   1.000  C
  C30      1.0000 0.73990  0.84420  0.55790  Biso   1.000  C
  C31      1.0000 0.26010  0.34420  0.94210  Biso   1.000  C
  C32      1.0000 0.26010  0.15580  0.44210  Biso   1.000  C
  H1       1.0000 0.11560  0.69710  0.97190  Biso   1.000  H
  H2       1.0000 0.11560  0.80290  0.47190  Biso   1.000  H
  H3       1.0000 0.88440  0.30290  0.02810  Biso   1.000  H
  H4       1.0000 0.88440  0.19710  0.52810  Biso   1.000  H
  H5       1.0000 0.89520  0.72400  0.92350  Biso   1.000  H
  H6       1.0000 0.89520  0.77600  0.42350  Biso   1.000  H
  H7       1.0000 0.10480  0.27600  0.07650  Biso   1.000  H
  H8       1.0000 0.10480  0.22400  0.57650  Biso   1.000  H
  H9       1.0000 0.91310  0.57750  0.28700  Biso   1.000  H
  H10      1.0000 0.91310  0.92250  0.78700  Biso   1.000  H
  H11      1.0000 0.08690  0.42250  0.71300  Biso   1.000  H
  H12      1.0000 0.08690  0.07750  0.21300  Biso   1.000  H
  H13      1.0000 0.64540  0.57560  0.35430  Biso   1.000  H
  H14      1.0000 0.64540  0.92440  0.85430  Biso   1.000  H
  H15      1.0000 0.35460  0.42440  0.64570  Biso   1.000  H
  H16      1.0000 0.35460  0.07560  0.14570  Biso   1.000  H
  H17      1.0000 0.37540  0.61660  0.89830  Biso   1.000  H
  H18      1.0000 0.37540  0.88340  0.39830  Biso   1.000  H
  H19      1.0000 0.62460  0.38340  0.10170  Biso   1.000  H
  H20      1.0000 0.62460  0.11660  0.60170  Biso   1.000  H
  H21      1.0000 0.47330  0.59230  0.63060  Biso   1.000  H
  H22      1.0000 0.47330  0.90770  0.13060  Biso   1.000  H
  H23      1.0000 0.52670  0.40770  0.36940  Biso   1.000  H
  H24      1.0000 0.52670  0.09230  0.86940  Biso   1.000  H
  H25      1.0000 0.60330  0.65030  0.69060  Biso   1.000  H
  H26      1.0000 0.60330  0.84970  0.19060  Biso   1.000  H
  H27      1.0000 0.39670  0.34970  0.30940  Biso   1.000  H
  H28      1.0000 0.39670  0.15030  0.80940  Biso   1.000  H
