data_image0
_cell_length_a       5.6783
_cell_length_b       10.2533
_cell_length_c       11.7581
_cell_angle_alpha    72.638
_cell_angle_beta     80.446
_cell_angle_gamma    86.637

_symmetry_space_group_name_H-M    "P 1"
_symmetry_int_tables_number       1

loop_
  _symmetry_equiv_pos_as_xyz
  'x, y, z'

loop_
  _atom_site_label
  _atom_site_occupancy
  _atom_site_fract_x
  _atom_site_fract_y
  _atom_site_fract_z
  _atom_site_thermal_displace_type
  _atom_site_B_iso_or_equiv
  _atom_site_type_symbol
  As1      1.0000 0.67410  0.89028  0.11029  Biso   1.000  As
  As2      1.0000 0.32590  0.10972  0.88971  Biso   1.000  As
  Cu1      1.0000 0.66768  0.88156  0.83019  Biso   1.000  Cu
  Cu2      1.0000 0.33232  0.11844  0.16981  Biso   1.000  Cu
  V1       1.0000 0.14400  0.79441  0.24949  Biso   1.000  V
  V2       1.0000 0.85600  0.20559  0.75051  Biso   1.000  V
  O1       1.0000 0.75140  0.93813  0.96133  Biso   1.000  O
  O2       1.0000 0.24860  0.06187  0.03867  Biso   1.000  O
  O3       1.0000 0.89510  0.78493  0.17029  Biso   1.000  O
  O4       1.0000 0.10490  0.21507  0.82971  Biso   1.000  O
  O5       1.0000 0.43500  0.78185  0.15372  Biso   1.000  O
  O6       1.0000 0.56500  0.21815  0.84628  Biso   1.000  O
  O7       1.0000 0.63200  0.01874  0.17072  Biso   1.000  O
  O8       1.0000 0.36800  0.98126  0.82928  Biso   1.000  O
  O9       1.0000 0.86900  0.07058  0.70263  Biso   1.000  O
  O10      1.0000 0.13100  0.92942  0.29737  Biso   1.000  O
  O11      1.0000 0.12650  0.66075  0.36641  Biso   1.000  O
  O12      1.0000 0.87350  0.33925  0.63359  Biso   1.000  O
  N1       1.0000 0.59890  0.81190  0.69857  Biso   1.000  N
  N2       1.0000 0.40110  0.18810  0.30143  Biso   1.000  N
  N3       1.0000 0.92160  0.73786  0.83860  Biso   1.000  N
  N4       1.0000 0.07840  0.26214  0.16140  Biso   1.000  N
  C1       1.0000 0.42850  0.86050  0.63020  Biso   1.000  C
  C2       1.0000 0.57150  0.13950  0.36980  Biso   1.000  C
  C3       1.0000 0.39950  0.81110  0.53530  Biso   1.000  C
  C4       1.0000 0.60050  0.18890  0.46470  Biso   1.000  C
  C5       1.0000 0.55170  0.70820  0.51200  Biso   1.000  C
  C6       1.0000 0.44830  0.29180  0.48800  Biso   1.000  C
  C7       1.0000 0.72700  0.65610  0.58370  Biso   1.000  C
  C8       1.0000 0.27300  0.34390  0.41630  Biso   1.000  C
  C9       1.0000 0.74530  0.71000  0.67690  Biso   1.000  C
  C10      1.0000 0.25470  0.29000  0.32310  Biso   1.000  C
  C11      1.0000 0.92430  0.66440  0.75950  Biso   1.000  C
  C12      1.0000 0.07570  0.33560  0.24050  Biso   1.000  C
  C13      1.0000 0.08440  0.55690  0.75830  Biso   1.000  C
  C14      1.0000 0.91560  0.44310  0.24170  Biso   1.000  C
  C15      1.0000 0.24840  0.52590  0.83870  Biso   1.000  C
  C16      1.0000 0.75160  0.47410  0.16130  Biso   1.000  C
  C17      1.0000 0.24810  0.60400  0.91690  Biso   1.000  C
  C18      1.0000 0.75190  0.39600  0.08310  Biso   1.000  C
  C19      1.0000 0.08210  0.70960  0.91480  Biso   1.000  C
  C20      1.0000 0.91790  0.29040  0.08520  Biso   1.000  C
  H1       1.0000 0.33100  0.92800  0.65000  Biso   1.000  H
  H2       1.0000 0.66900  0.07200  0.35000  Biso   1.000  H
  H3       1.0000 0.27500  0.84600  0.49700  Biso   1.000  H
  H4       1.0000 0.72500  0.15400  0.50300  Biso   1.000  H
  H5       1.0000 0.53600  0.67200  0.45300  Biso   1.000  H
  H6       1.0000 0.46400  0.32800  0.54700  Biso   1.000  H
  H7       1.0000 0.83500  0.58600  0.57200  Biso   1.000  H
  H8       1.0000 0.16500  0.41400  0.42800  Biso   1.000  H
  H9       1.0000 0.08900  0.51000  0.70400  Biso   1.000  H
  H10      1.0000 0.91100  0.49000  0.29600  Biso   1.000  H
  H11      1.0000 0.36200  0.45000  0.84000  Biso   1.000  H
  H12      1.0000 0.63800  0.55000  0.16000  Biso   1.000  H
  H13      1.0000 0.35600  0.58800  0.97200  Biso   1.000  H
  H14      1.0000 0.64400  0.41200  0.02800  Biso   1.000  H
  H15      1.0000 0.08700  0.76600  0.96500  Biso   1.000  H
  H16      1.0000 0.91300  0.23400  0.03500  Biso   1.000  H
