data_image0
_cell_length_a       5.6848
_cell_length_b       10.275
_cell_length_c       11.807
_cell_angle_alpha    73.7
_cell_angle_beta     80.48
_cell_angle_gamma    86.09

_symmetry_space_group_name_H-M    "P 1"
_symmetry_int_tables_number       1

loop_
  _symmetry_equiv_pos_as_xyz
  'x, y, z'

loop_
  _atom_site_label
  _atom_site_occupancy
  _atom_site_fract_x
  _atom_site_fract_y
  _atom_site_fract_z
  _atom_site_thermal_displace_type
  _atom_site_B_iso_or_equiv
  _atom_site_type_symbol
  As1      1.0000 0.17672  0.89027  0.10935  Biso   1.000  As
  As2      1.0000 0.82328  0.10973  0.89065  Biso   1.000  As
  Cu1      1.0000 0.16921  0.88145  0.83011  Biso   1.000  Cu
  Cu2      1.0000 0.83079  0.11855  0.16989  Biso   1.000  Cu
  V1       1.0000 0.64885  0.79555  0.24742  Biso   1.000  V
  V2       1.0000 0.35115  0.20445  0.75258  Biso   1.000  V
  O1       1.0000 0.25150  0.93490  0.96240  Biso   1.000  O
  O2       1.0000 0.74850  0.06510  0.03760  Biso   1.000  O
  O3       1.0000 0.13240  0.01930  0.16810  Biso   1.000  O
  O4       1.0000 0.86760  0.98070  0.83190  Biso   1.000  O
  O5       1.0000 0.39960  0.78700  0.16860  Biso   1.000  O
  O6       1.0000 0.60040  0.21300  0.83140  Biso   1.000  O
  O7       1.0000 0.36540  0.07050  0.70420  Biso   1.000  O
  O8       1.0000 0.63460  0.92950  0.29580  Biso   1.000  O
  O9       1.0000 0.93930  0.78340  0.15250  Biso   1.000  O
  O10      1.0000 0.06070  0.21660  0.84750  Biso   1.000  O
  N1       1.0000 0.10010  0.81240  0.69840  Biso   1.000  N
  N2       1.0000 0.89990  0.18760  0.30160  Biso   1.000  N
  O11      1.0000 0.63470  0.66280  0.36180  Biso   1.000  O
  O12      1.0000 0.36530  0.33720  0.63820  Biso   1.000  O
  N3       1.0000 0.42520  0.73790  0.83640  Biso   1.000  N
  N4       1.0000 0.57480  0.26210  0.16360  Biso   1.000  N
  C1       1.0000 0.42670  0.66540  0.75730  Biso   1.000  C
  C2       1.0000 0.57330  0.33460  0.24270  Biso   1.000  C
  C3       1.0000 0.24790  0.71130  0.67610  Biso   1.000  C
  C4       1.0000 0.75210  0.28870  0.32390  Biso   1.000  C
  C5       1.0000 0.23100  0.65980  0.58190  Biso   1.000  C
  C6       1.0000 0.76900  0.34020  0.41810  Biso   1.000  C
  H1       1.0000 0.33680  0.59200  0.56530  Biso   1.000  H
  H2       1.0000 0.66320  0.40800  0.43470  Biso   1.000  H
  C7       1.0000 0.93160  0.86210  0.63010  Biso   1.000  C
  C8       1.0000 0.06840  0.13790  0.36990  Biso   1.000  C
  H3       1.0000 0.83070  0.93180  0.64670  Biso   1.000  H
  H4       1.0000 0.16930  0.06820  0.35330  Biso   1.000  H
  C9       1.0000 0.74970  0.52670  0.83670  Biso   1.000  C
  C10      1.0000 0.25030  0.47330  0.16330  Biso   1.000  C
  H5       1.0000 0.85840  0.45480  0.83730  Biso   1.000  H
  H6       1.0000 0.14160  0.54520  0.16270  Biso   1.000  H
  C11      1.0000 0.90280  0.81320  0.53590  Biso   1.000  C
  C12      1.0000 0.09720  0.18680  0.46410  Biso   1.000  C
  H7       1.0000 0.78410  0.84880  0.48950  Biso   1.000  H
  H8       1.0000 0.21590  0.15120  0.51050  Biso   1.000  H
  C13      1.0000 0.58530  0.70940  0.91140  Biso   1.000  C
  C14      1.0000 0.41470  0.29060  0.08860  Biso   1.000  C
  H9       1.0000 0.58740  0.76270  0.96310  Biso   1.000  H
  H10      1.0000 0.41260  0.23730  0.03690  Biso   1.000  H
  C15      1.0000 0.74850  0.60240  0.91410  Biso   1.000  C
  C16      1.0000 0.25150  0.39760  0.08590  Biso   1.000  C
  H11      1.0000 0.85590  0.58280  0.96840  Biso   1.000  H
  H12      1.0000 0.14410  0.41720  0.03160  Biso   1.000  H
  C17      1.0000 0.58600  0.55780  0.75580  Biso   1.000  C
  C18      1.0000 0.41400  0.44220  0.24420  Biso   1.000  C
  H13      1.0000 0.58450  0.50690  0.70200  Biso   1.000  H
  H14      1.0000 0.41550  0.49310  0.29800  Biso   1.000  H
  C19      1.0000 0.05360  0.71050  0.51200  Biso   1.000  C
  C20      1.0000 0.94640  0.28950  0.48800  Biso   1.000  C
  H15      1.0000 0.03700  0.67520  0.44940  Biso   1.000  H
  H16      1.0000 0.96300  0.32480  0.55060  Biso   1.000  H
