data_image0
_cell_length_a       9.4867
_cell_length_b       10.629
_cell_length_c       11.8068
_cell_angle_alpha    98.625
_cell_angle_beta     92.974
_cell_angle_gamma    116.142

_symmetry_space_group_name_H-M    "P 1"
_symmetry_int_tables_number       1

loop_
  _symmetry_equiv_pos_as_xyz
  'x, y, z'

loop_
  _atom_site_label
  _atom_site_occupancy
  _atom_site_fract_x
  _atom_site_fract_y
  _atom_site_fract_z
  _atom_site_thermal_displace_type
  _atom_site_B_iso_or_equiv
  _atom_site_type_symbol
  Cu1      1.0000 0.87893  0.85367  0.54214  Biso   1.000  Cu
  Cu2      1.0000 0.12107  0.14633  0.45786  Biso   1.000  Cu
  S1       1.0000 0.94367  0.82202  0.77870  Biso   1.000  S
  S2       1.0000 0.05633  0.17798  0.22130  Biso   1.000  S
  O1       1.0000 0.89995  0.67642  0.72645  Biso   1.000  O
  O2       1.0000 0.10005  0.32358  0.27355  Biso   1.000  O
  O3       1.0000 0.05340  0.87760  0.88336  Biso   1.000  O
  O4       1.0000 0.94660  0.12240  0.11664  Biso   1.000  O
  O5       1.0000 0.08160  0.92725  0.47988  Biso   1.000  O
  O6       1.0000 0.91840  0.07275  0.52012  Biso   1.000  O
  O7       1.0000 0.09628  0.72704  0.48941  Biso   1.000  O
  O8       1.0000 0.90372  0.27296  0.51059  Biso   1.000  O
  O9       1.0000 0.18695  0.83240  0.25775  Biso   1.000  O
  O10      1.0000 0.81305  0.16760  0.74225  Biso   1.000  O
  O11      1.0000 0.39290  0.80740  0.19856  Biso   1.000  O
  O12      1.0000 0.60710  0.19260  0.80144  Biso   1.000  O
  N1       1.0000 0.74257  0.74249  0.39484  Biso   1.000  N
  N2       1.0000 0.25743  0.25751  0.60516  Biso   1.000  N
  O13      1.0000 0.00137  0.91929  0.69566  Biso   1.000  O
  O14      1.0000 0.99863  0.08071  0.30434  Biso   1.000  O
  C1       1.0000 0.76560  0.82540  0.81169  Biso   1.000  C
  C2       1.0000 0.23440  0.17460  0.18831  Biso   1.000  C
  C3       1.0000 0.74380  0.85320  0.92590  Biso   1.000  C
  C4       1.0000 0.25620  0.14680  0.07410  Biso   1.000  C
  H1       1.0000 0.82360  0.87230  0.98470  Biso   1.000  H
  H2       1.0000 0.17640  0.12770  0.01530  Biso   1.000  H
  C5       1.0000 0.60260  0.85280  0.95260  Biso   1.000  C
  C6       1.0000 0.39740  0.14720  0.04740  Biso   1.000  C
  H3       1.0000 0.58830  0.87240  0.02940  Biso   1.000  H
  H4       1.0000 0.41170  0.12760  0.97060  Biso   1.000  H
  C7       1.0000 0.48550  0.82360  0.86650  Biso   1.000  C
  C8       1.0000 0.51450  0.17640  0.13350  Biso   1.000  C
  H5       1.0000 0.39120  0.82310  0.88500  Biso   1.000  H
  H6       1.0000 0.60880  0.17690  0.11500  Biso   1.000  H
  C9       1.0000 0.50430  0.79450  0.75150  Biso   1.000  C
  C10      1.0000 0.49570  0.20550  0.24850  Biso   1.000  C
  H7       1.0000 0.42320  0.77480  0.69350  Biso   1.000  H
  H8       1.0000 0.57680  0.22520  0.30650  Biso   1.000  H
  C11      1.0000 0.64510  0.79490  0.72310  Biso   1.000  C
  C12      1.0000 0.35490  0.20510  0.27690  Biso   1.000  C
  N3       1.0000 0.67119  0.76887  0.60569  Biso   1.000  N
  N4       1.0000 0.32881  0.23113  0.39431  Biso   1.000  N
  C13      1.0000 0.55590  0.68540  0.52717  Biso   1.000  C
  C14      1.0000 0.44410  0.31460  0.47283  Biso   1.000  C
  H9       1.0000 0.45370  0.63760  0.54550  Biso   1.000  H
  H10      1.0000 0.54630  0.36240  0.45450  Biso   1.000  H
  C15      1.0000 0.58860  0.66710  0.40857  Biso   1.000  C
  C16      1.0000 0.41140  0.33290  0.59143  Biso   1.000  C
  C17      1.0000 0.78380  0.73280  0.28924  Biso   1.000  C
  C18      1.0000 0.21620  0.26720  0.71076  Biso   1.000  C
  H11      1.0000 0.88920  0.78480  0.27920  Biso   1.000  H
  H12      1.0000 0.11080  0.21520  0.72080  Biso   1.000  H
  C19      1.0000 0.67380  0.64730  0.19360  Biso   1.000  C
  C20      1.0000 0.32620  0.35270  0.80640  Biso   1.000  C
  H13      1.0000 0.70530  0.64220  0.12040  Biso   1.000  H
  H14      1.0000 0.29470  0.35780  0.87960  Biso   1.000  H
  C21      1.0000 0.51830  0.57040  0.20800  Biso   1.000  C
  C22      1.0000 0.48170  0.42960  0.79200  Biso   1.000  C
  H15      1.0000 0.44340  0.51200  0.14480  Biso   1.000  H
  H16      1.0000 0.55660  0.48800  0.85520  Biso   1.000  H
  C23      1.0000 0.47390  0.58030  0.31680  Biso   1.000  C
  C24      1.0000 0.52610  0.41970  0.68320  Biso   1.000  C
  H17      1.0000 0.36880  0.52960  0.32820  Biso   1.000  H
  H18      1.0000 0.63120  0.47040  0.67180  Biso   1.000  H
  C25      1.0000 0.15740  0.85305  0.48178  Biso   1.000  C
  C26      1.0000 0.84260  0.14695  0.51822  Biso   1.000  C
  C27      1.0000 0.33461  0.93274  0.48611  Biso   1.000  C
  C28      1.0000 0.66539  0.06726  0.51389  Biso   1.000  C
  C29      1.0000 0.41440  0.92197  0.39166  Biso   1.000  C
  C30      1.0000 0.58560  0.07803  0.60834  Biso   1.000  C
  C31      1.0000 0.33010  0.84620  0.27269  Biso   1.000  C
  C32      1.0000 0.66990  0.15380  0.72731  Biso   1.000  C
  C33      1.0000 0.42050  0.01080  0.59251  Biso   1.000  C
  C34      1.0000 0.57950  0.98920  0.40749  Biso   1.000  C
  H19      1.0000 0.36680  0.01860  0.65480  Biso   1.000  H
  H20      1.0000 0.63320  0.98140  0.34520  Biso   1.000  H
  H21      1.0000 0.14800  0.80200  0.19600  Biso   1.000  H
  H22      1.0000 0.85200  0.19800  0.80400  Biso   1.000  H
  O15      1.0000 0.19360  0.52750  0.54520  Biso   1.000  O
  O16      1.0000 0.80640  0.47250  0.45480  Biso   1.000  O
  H23      1.0000 0.11800  0.44700  0.52300  Biso   1.000  H
  H24      1.0000 0.88200  0.55300  0.47700  Biso   1.000  H
  H25      1.0000 0.17200  0.57700  0.50500  Biso   1.000  H
  H26      1.0000 0.82800  0.42300  0.49500  Biso   1.000  H
  O17      1.0000 0.22520  0.54100  0.00030  Biso   1.000  O
  O18      1.0000 0.77480  0.45900  0.99970  Biso   1.000  O
  H27      1.0000 0.19300  0.55400  0.93300  Biso   1.000  H
  H28      1.0000 0.80700  0.44600  0.06700  Biso   1.000  H
  H29      1.0000 0.22500  0.60800  0.05200  Biso   1.000  H
  H30      1.0000 0.77500  0.39200  0.94800  Biso   1.000  H
  O19      1.0000 0.03300  0.72500  0.05600  Biso   1.000  O
  O20      1.0000 0.96700  0.27500  0.94400  Biso   1.000  O
  H31      1.0000 0.04700  0.77600  0.00400  Biso   1.000  H
  H32      1.0000 0.95300  0.22400  0.99600  Biso   1.000  H
  H33      1.0000 0.96800  0.64500  0.03100  Biso   1.000  H
  H34      1.0000 0.03200  0.35500  0.96900  Biso   1.000  H
  O21      1.0000 0.10400  0.54880  0.78340  Biso   1.000  O
  O22      1.0000 0.89600  0.45120  0.21660  Biso   1.000  O
  H35      1.0000 0.12500  0.52900  0.70900  Biso   1.000  H
  H36      1.0000 0.87500  0.47100  0.29100  Biso   1.000  H
  H37      1.0000 0.03600  0.57100  0.77300  Biso   1.000  H
  H38      1.0000 0.96400  0.42900  0.22700  Biso   1.000  H
