data_image0
_cell_length_a       14.8737
_cell_length_b       8.9886
_cell_length_c       15.5407
_cell_angle_alpha    90
_cell_angle_beta     98.379
_cell_angle_gamma    90

_symmetry_space_group_name_H-M    "P 1"
_symmetry_int_tables_number       1

loop_
  _symmetry_equiv_pos_as_xyz
  'x, y, z'

loop_
  _atom_site_label
  _atom_site_occupancy
  _atom_site_fract_x
  _atom_site_fract_y
  _atom_site_fract_z
  _atom_site_thermal_displace_type
  _atom_site_B_iso_or_equiv
  _atom_site_type_symbol
  Cu1      1.0000 0.61021  0.03925  0.23181  Biso   1.000  Cu
  Cu2      1.0000 0.38979  0.53925  0.26819  Biso   1.000  Cu
  Cu3      1.0000 0.38979  0.96075  0.76819  Biso   1.000  Cu
  Cu4      1.0000 0.61021  0.46075  0.73181  Biso   1.000  Cu
  S1       1.0000 0.50991  0.30050  0.14765  Biso   1.000  S
  S2       1.0000 0.49009  0.80050  0.35235  Biso   1.000  S
  S3       1.0000 0.49009  0.69950  0.85235  Biso   1.000  S
  S4       1.0000 0.50991  0.19950  0.64765  Biso   1.000  S
  O1       1.0000 0.47189  0.44509  0.16246  Biso   1.000  O
  O2       1.0000 0.52811  0.94509  0.33754  Biso   1.000  O
  O3       1.0000 0.52811  0.55491  0.83754  Biso   1.000  O
  O4       1.0000 0.47189  0.05491  0.66246  Biso   1.000  O
  O5       1.0000 0.56825  0.29720  0.08172  Biso   1.000  O
  O6       1.0000 0.43175  0.79720  0.41828  Biso   1.000  O
  O7       1.0000 0.43175  0.70280  0.91828  Biso   1.000  O
  O8       1.0000 0.56825  0.20280  0.58172  Biso   1.000  O
  O9       1.0000 0.55243  0.23492  0.23141  Biso   1.000  O
  O10      1.0000 0.44757  0.73492  0.26859  Biso   1.000  O
  O11      1.0000 0.44757  0.76508  0.76859  Biso   1.000  O
  O12      1.0000 0.55243  0.26508  0.73141  Biso   1.000  O
  O13      1.0000 0.70722  0.10397  0.32282  Biso   1.000  O
  O14      1.0000 0.29278  0.60397  0.17718  Biso   1.000  O
  O15      1.0000 0.29278  0.89603  0.67718  Biso   1.000  O
  O16      1.0000 0.70722  0.39603  0.82282  Biso   1.000  O
  O17      1.0000 0.76790  0.17163  0.20671  Biso   1.000  O
  O18      1.0000 0.23210  0.67163  0.29329  Biso   1.000  O
  O19      1.0000 0.23210  0.82837  0.79329  Biso   1.000  O
  O20      1.0000 0.76790  0.32837  0.70671  Biso   1.000  O
  O21      1.0000 0.11106  0.53900  0.37318  Biso   1.000  O
  O22      1.0000 0.88894  0.03900  0.12682  Biso   1.000  O
  O23      1.0000 0.88894  0.46100  0.62682  Biso   1.000  O
  O24      1.0000 0.11106  0.96100  0.87318  Biso   1.000  O
  O25      1.0000 0.01856  0.54045  0.24731  Biso   1.000  O
  O26      1.0000 0.98144  0.04045  0.25269  Biso   1.000  O
  O27      1.0000 0.98144  0.45955  0.75269  Biso   1.000  O
  O28      1.0000 0.01856  0.95955  0.74731  Biso   1.000  O
  O29      1.0000 0.05717  0.21460  0.61125  Biso   1.000  O
  O30      1.0000 0.94283  0.71460  0.88875  Biso   1.000  O
  O31      1.0000 0.94283  0.78540  0.38875  Biso   1.000  O
  O32      1.0000 0.05717  0.28540  0.11125  Biso   1.000  O
  O33      1.0000 0.93660  0.06520  0.59445  Biso   1.000  O
  O34      1.0000 0.06340  0.56520  0.90555  Biso   1.000  O
  O35      1.0000 0.06340  0.93480  0.40555  Biso   1.000  O
  O36      1.0000 0.93660  0.43480  0.09445  Biso   1.000  O
  N1       1.0000 0.51327  0.96239  0.13735  Biso   1.000  N
  N2       1.0000 0.48673  0.46239  0.36265  Biso   1.000  N
  N3       1.0000 0.48673  0.03761  0.86265  Biso   1.000  N
  N4       1.0000 0.51327  0.53761  0.63735  Biso   1.000  N
  N5       1.0000 0.67164  0.85130  0.20508  Biso   1.000  N
  N6       1.0000 0.32836  0.35130  0.29492  Biso   1.000  N
  N7       1.0000 0.32836  0.14870  0.79492  Biso   1.000  N
  N8       1.0000 0.67164  0.64870  0.70508  Biso   1.000  N
  C1       1.0000 0.42649  0.02800  0.10781  Biso   1.000  C
  C2       1.0000 0.57351  0.52800  0.39219  Biso   1.000  C
  C3       1.0000 0.57351  0.97200  0.89219  Biso   1.000  C
  C4       1.0000 0.42649  0.47200  0.60781  Biso   1.000  C
  C5       1.0000 0.41681  0.18240  0.11055  Biso   1.000  C
  C6       1.0000 0.58319  0.68240  0.38945  Biso   1.000  C
  C7       1.0000 0.58319  0.81760  0.88945  Biso   1.000  C
  C8       1.0000 0.41681  0.31760  0.61055  Biso   1.000  C
  C9       1.0000 0.33379  0.24830  0.08052  Biso   1.000  C
  C10      1.0000 0.66621  0.74830  0.41948  Biso   1.000  C
  C11      1.0000 0.66621  0.75170  0.91948  Biso   1.000  C
  C12      1.0000 0.33379  0.25170  0.58052  Biso   1.000  C
  H1       1.0000 0.32760  0.35110  0.08250  Biso   1.000  H
  H2       1.0000 0.67240  0.85110  0.41750  Biso   1.000  H
  H3       1.0000 0.67240  0.64890  0.91750  Biso   1.000  H
  H4       1.0000 0.32760  0.14890  0.58250  Biso   1.000  H
  C13      1.0000 0.26038  0.16110  0.04780  Biso   1.000  C
  C14      1.0000 0.73962  0.66110  0.45220  Biso   1.000  C
  C15      1.0000 0.73962  0.83890  0.95220  Biso   1.000  C
  C16      1.0000 0.26038  0.33890  0.54780  Biso   1.000  C
  H5       1.0000 0.20520  0.20540  0.02620  Biso   1.000  H
  H6       1.0000 0.79480  0.70540  0.47380  Biso   1.000  H
  H7       1.0000 0.79480  0.79460  0.97380  Biso   1.000  H
  H8       1.0000 0.20520  0.29460  0.52620  Biso   1.000  H
  C17      1.0000 0.26893  0.00820  0.04710  Biso   1.000  C
  C18      1.0000 0.73107  0.50820  0.45290  Biso   1.000  C
  C19      1.0000 0.73107  0.99180  0.95290  Biso   1.000  C
  C20      1.0000 0.26893  0.49180  0.54710  Biso   1.000  C
  H9       1.0000 0.21900  0.94980  0.02560  Biso   1.000  H
  H10      1.0000 0.78100  0.44980  0.47440  Biso   1.000  H
  H11      1.0000 0.78100  0.05020  0.97440  Biso   1.000  H
  H12      1.0000 0.21900  0.55020  0.52560  Biso   1.000  H
  C21      1.0000 0.35102  0.94090  0.07798  Biso   1.000  C
  C22      1.0000 0.64898  0.44090  0.42202  Biso   1.000  C
  C23      1.0000 0.64898  0.05910  0.92202  Biso   1.000  C
  C24      1.0000 0.35102  0.55910  0.57798  Biso   1.000  C
  H13      1.0000 0.35570  0.83780  0.07880  Biso   1.000  H
  H14      1.0000 0.64430  0.33780  0.42120  Biso   1.000  H
  H15      1.0000 0.64430  0.16220  0.92120  Biso   1.000  H
  H16      1.0000 0.35570  0.66220  0.57880  Biso   1.000  H
  C25      1.0000 0.53323  0.83460  0.10925  Biso   1.000  C
  C26      1.0000 0.46677  0.33460  0.39075  Biso   1.000  C
  C27      1.0000 0.46677  0.16540  0.89075  Biso   1.000  C
  C28      1.0000 0.53323  0.66540  0.60925  Biso   1.000  C
  H17      1.0000 0.49320  0.78550  0.06710  Biso   1.000  H
  H18      1.0000 0.50680  0.28550  0.43290  Biso   1.000  H
  H19      1.0000 0.50680  0.21450  0.93290  Biso   1.000  H
  H20      1.0000 0.49320  0.71450  0.56710  Biso   1.000  H
  C29      1.0000 0.61997  0.76780  0.14464  Biso   1.000  C
  C30      1.0000 0.38003  0.26780  0.35536  Biso   1.000  C
  C31      1.0000 0.38003  0.23220  0.85536  Biso   1.000  C
  C32      1.0000 0.61997  0.73220  0.64464  Biso   1.000  C
  C33      1.0000 0.75304  0.79970  0.23915  Biso   1.000  C
  C34      1.0000 0.24696  0.29970  0.26085  Biso   1.000  C
  C35      1.0000 0.24696  0.20030  0.76085  Biso   1.000  C
  C36      1.0000 0.75304  0.70030  0.73915  Biso   1.000  C
  H21      1.0000 0.78950  0.85730  0.28000  Biso   1.000  H
  H22      1.0000 0.21050  0.35730  0.22000  Biso   1.000  H
  H23      1.0000 0.21050  0.14270  0.72000  Biso   1.000  H
  H24      1.0000 0.78950  0.64270  0.78000  Biso   1.000  H
  C37      1.0000 0.78496  0.66380  0.21570  Biso   1.000  C
  C38      1.0000 0.21504  0.16380  0.28430  Biso   1.000  C
  C39      1.0000 0.21504  0.33620  0.78430  Biso   1.000  C
  C40      1.0000 0.78496  0.83620  0.71570  Biso   1.000  C
  H25      1.0000 0.84250  0.63150  0.23980  Biso   1.000  H
  H26      1.0000 0.15750  0.13150  0.26020  Biso   1.000  H
  H27      1.0000 0.15750  0.36850  0.76020  Biso   1.000  H
  H28      1.0000 0.84250  0.86850  0.73980  Biso   1.000  H
  C41      1.0000 0.73100  0.57610  0.15640  Biso   1.000  C
  C42      1.0000 0.26900  0.07610  0.34360  Biso   1.000  C
  C43      1.0000 0.26900  0.42390  0.84360  Biso   1.000  C
  C44      1.0000 0.73100  0.92390  0.65640  Biso   1.000  C
  H29      1.0000 0.75070  0.48260  0.14150  Biso   1.000  H
  H30      1.0000 0.24930  0.98260  0.35850  Biso   1.000  H
  H31      1.0000 0.24930  0.51740  0.85850  Biso   1.000  H
  H32      1.0000 0.75070  0.01740  0.64150  Biso   1.000  H
  C45      1.0000 0.64707  0.62980  0.11949  Biso   1.000  C
  C46      1.0000 0.35293  0.12980  0.38051  Biso   1.000  C
  C47      1.0000 0.35293  0.37020  0.88051  Biso   1.000  C
  C48      1.0000 0.64707  0.87020  0.61949  Biso   1.000  C
  H33      1.0000 0.60960  0.57390  0.07850  Biso   1.000  H
  H34      1.0000 0.39040  0.07390  0.42150  Biso   1.000  H
  H35      1.0000 0.39040  0.42610  0.92150  Biso   1.000  H
  H36      1.0000 0.60960  0.92610  0.57850  Biso   1.000  H
  C49      1.0000 0.76970  0.16370  0.28688  Biso   1.000  C
  C50      1.0000 0.23030  0.66370  0.21312  Biso   1.000  C
  C51      1.0000 0.23030  0.83630  0.71312  Biso   1.000  C
  C52      1.0000 0.76970  0.33630  0.78688  Biso   1.000  C
  C53      1.0000 0.84986  0.22660  0.34570  Biso   1.000  C
  C54      1.0000 0.15014  0.72660  0.15430  Biso   1.000  C
  C55      1.0000 0.15014  0.77340  0.65430  Biso   1.000  C
  C56      1.0000 0.84986  0.27340  0.84570  Biso   1.000  C
  C57      1.0000 0.87453  0.17580  0.43045  Biso   1.000  C
  C58      1.0000 0.12547  0.67580  0.06955  Biso   1.000  C
  C59      1.0000 0.12547  0.82420  0.56955  Biso   1.000  C
  C60      1.0000 0.87453  0.32420  0.93045  Biso   1.000  C
  H37      1.0000 0.83850  0.10650  0.45390  Biso   1.000  H
  H38      1.0000 0.16150  0.60650  0.04610  Biso   1.000  H
  H39      1.0000 0.16150  0.89350  0.54610  Biso   1.000  H
  H40      1.0000 0.83850  0.39350  0.95390  Biso   1.000  H
  C61      1.0000 0.95352  0.22930  0.47989  Biso   1.000  C
  C62      1.0000 0.04648  0.72930  0.02011  Biso   1.000  C
  C63      1.0000 0.04648  0.77070  0.52011  Biso   1.000  C
  C64      1.0000 0.95352  0.27070  0.97989  Biso   1.000  C
  C65      1.0000 0.00575  0.33630  0.44585  Biso   1.000  C
  C66      1.0000 0.99425  0.83630  0.05415  Biso   1.000  C
  C67      1.0000 0.99425  0.66370  0.55415  Biso   1.000  C
  C68      1.0000 0.00575  0.16370  0.94585  Biso   1.000  C
  H41      1.0000 0.05760  0.37360  0.47970  Biso   1.000  H
  H42      1.0000 0.94240  0.87360  0.02030  Biso   1.000  H
  H43      1.0000 0.94240  0.62640  0.52030  Biso   1.000  H
  H44      1.0000 0.05760  0.12640  0.97970  Biso   1.000  H
  C69      1.0000 0.98094  0.38780  0.36180  Biso   1.000  C
  C70      1.0000 0.01906  0.88780  0.13820  Biso   1.000  C
  C71      1.0000 0.01906  0.61220  0.63820  Biso   1.000  C
  C72      1.0000 0.98094  0.11220  0.86180  Biso   1.000  C
  C73      1.0000 0.90317  0.33110  0.31162  Biso   1.000  C
  C74      1.0000 0.09683  0.83110  0.18838  Biso   1.000  C
  C75      1.0000 0.09683  0.66890  0.68838  Biso   1.000  C
  C76      1.0000 0.90317  0.16890  0.81162  Biso   1.000  C
  H45      1.0000 0.88700  0.36390  0.25470  Biso   1.000  H
  H46      1.0000 0.11300  0.86390  0.24530  Biso   1.000  H
  H47      1.0000 0.11300  0.63610  0.74530  Biso   1.000  H
  H48      1.0000 0.88700  0.13610  0.75470  Biso   1.000  H
  C77      1.0000 0.03771  0.49640  0.32149  Biso   1.000  C
  C78      1.0000 0.96229  0.99640  0.17851  Biso   1.000  C
  C79      1.0000 0.96229  0.50360  0.67851  Biso   1.000  C
  C80      1.0000 0.03771  0.00360  0.82149  Biso   1.000  C
  C81      1.0000 0.98815  0.17130  0.56832  Biso   1.000  C
  C82      1.0000 0.01185  0.67130  0.93168  Biso   1.000  C
  C83      1.0000 0.01185  0.82870  0.43168  Biso   1.000  C
  C84      1.0000 0.98815  0.32870  0.06832  Biso   1.000  C
  H49      1.0000 0.13800  0.58400  0.34600  Biso   1.000  H
  H50      1.0000 0.86200  0.08400  0.15400  Biso   1.000  H
  H51      1.0000 0.86200  0.41600  0.65400  Biso   1.000  H
  H52      1.0000 0.13800  0.91600  0.84600  Biso   1.000  H
  H53      1.0000 0.95800  0.03900  0.63500  Biso   1.000  H
  H54      1.0000 0.04200  0.53900  0.86500  Biso   1.000  H
  H55      1.0000 0.04200  0.96100  0.36500  Biso   1.000  H
  H56      1.0000 0.95800  0.46100  0.13500  Biso   1.000  H
