data_image0
_cell_length_a       7.082
_cell_length_b       10.285
_cell_length_c       17.911
_cell_angle_alpha    90
_cell_angle_beta     90
_cell_angle_gamma    90

_symmetry_space_group_name_H-M    "P 1"
_symmetry_int_tables_number       1

loop_
  _symmetry_equiv_pos_as_xyz
  'x, y, z'

loop_
  _atom_site_label
  _atom_site_occupancy
  _atom_site_fract_x
  _atom_site_fract_y
  _atom_site_fract_z
  _atom_site_thermal_displace_type
  _atom_site_B_iso_or_equiv
  _atom_site_type_symbol
  Cu1      1.0000 0.50000  0.50000  0.50000  Biso   1.000  Cu
  Cu2      1.0000 0.00000  0.50000  0.00000  Biso   1.000  Cu
  Cu3      1.0000 0.50000  0.00000  0.00000  Biso   1.000  Cu
  Cu4      1.0000 0.00000  0.00000  0.50000  Biso   1.000  Cu
  O1       1.0000 0.48890  0.36405  0.57876  Biso   1.000  O
  O2       1.0000 0.98890  0.36405  0.92124  Biso   1.000  O
  O3       1.0000 0.48890  0.13595  0.07876  Biso   1.000  O
  O4       1.0000 0.01110  0.86405  0.57876  Biso   1.000  O
  O5       1.0000 0.51110  0.63595  0.42124  Biso   1.000  O
  O6       1.0000 0.01110  0.63595  0.07876  Biso   1.000  O
  O7       1.0000 0.51110  0.86405  0.92124  Biso   1.000  O
  O8       1.0000 0.98890  0.13595  0.42124  Biso   1.000  O
  O9       1.0000 0.73490  0.59707  0.57989  Biso   1.000  O
  O10      1.0000 0.23490  0.59707  0.92011  Biso   1.000  O
  O11      1.0000 0.73490  0.90293  0.07989  Biso   1.000  O
  O12      1.0000 0.76510  0.09707  0.57989  Biso   1.000  O
  O13      1.0000 0.26510  0.40293  0.42011  Biso   1.000  O
  O14      1.0000 0.76510  0.40293  0.07989  Biso   1.000  O
  O15      1.0000 0.26510  0.09707  0.92011  Biso   1.000  O
  O16      1.0000 0.23490  0.90293  0.42011  Biso   1.000  O
  O17      1.0000 0.91180  0.23292  0.70535  Biso   1.000  O
  O18      1.0000 0.41180  0.23292  0.79465  Biso   1.000  O
  O19      1.0000 0.91180  0.26708  0.20535  Biso   1.000  O
  O20      1.0000 0.58820  0.73292  0.70535  Biso   1.000  O
  O21      1.0000 0.08820  0.76708  0.29465  Biso   1.000  O
  O22      1.0000 0.58820  0.76708  0.20535  Biso   1.000  O
  O23      1.0000 0.08820  0.73292  0.79465  Biso   1.000  O
  O24      1.0000 0.41180  0.26708  0.29465  Biso   1.000  O
  O25      1.0000 0.95090  0.37315  0.61674  Biso   1.000  O
  O26      1.0000 0.45090  0.37315  0.88326  Biso   1.000  O
  O27      1.0000 0.95090  0.12685  0.11674  Biso   1.000  O
  O28      1.0000 0.54910  0.87315  0.61674  Biso   1.000  O
  O29      1.0000 0.04910  0.62685  0.38326  Biso   1.000  O
  O30      1.0000 0.54910  0.62685  0.11674  Biso   1.000  O
  O31      1.0000 0.04910  0.87315  0.88326  Biso   1.000  O
  O32      1.0000 0.45090  0.12685  0.38326  Biso   1.000  O
  O33      1.0000 0.91960  0.43640  0.73021  Biso   1.000  O
  O34      1.0000 0.41960  0.43640  0.76979  Biso   1.000  O
  O35      1.0000 0.91960  0.06360  0.23021  Biso   1.000  O
  O36      1.0000 0.58040  0.93640  0.73021  Biso   1.000  O
  O37      1.0000 0.08040  0.56360  0.26979  Biso   1.000  O
  O38      1.0000 0.58040  0.56360  0.23021  Biso   1.000  O
  O39      1.0000 0.08040  0.93640  0.76979  Biso   1.000  O
  O40      1.0000 0.41960  0.06360  0.26979  Biso   1.000  O
  N1       1.0000 0.35130  0.19464  0.64575  Biso   1.000  N
  N2       1.0000 0.85130  0.19464  0.85425  Biso   1.000  N
  N3       1.0000 0.35130  0.30536  0.14575  Biso   1.000  N
  N4       1.0000 0.14870  0.69464  0.64575  Biso   1.000  N
  N5       1.0000 0.64870  0.80536  0.35425  Biso   1.000  N
  N6       1.0000 0.14870  0.80536  0.14575  Biso   1.000  N
  N7       1.0000 0.64870  0.69464  0.85425  Biso   1.000  N
  N8       1.0000 0.85130  0.30536  0.35425  Biso   1.000  N
  C1       1.0000 0.23390  0.09690  0.62686  Biso   1.000  C
  C2       1.0000 0.73390  0.09690  0.87314  Biso   1.000  C
  C3       1.0000 0.23390  0.40310  0.12686  Biso   1.000  C
  C4       1.0000 0.26610  0.59690  0.62686  Biso   1.000  C
  C5       1.0000 0.76610  0.90310  0.37314  Biso   1.000  C
  C6       1.0000 0.26610  0.90310  0.12686  Biso   1.000  C
  C7       1.0000 0.76610  0.59690  0.87314  Biso   1.000  C
  C8       1.0000 0.73390  0.40310  0.37314  Biso   1.000  C
  N9       1.0000 0.28710  0.20624  0.52941  Biso   1.000  N
  N10      1.0000 0.78710  0.20624  0.97059  Biso   1.000  N
  N11      1.0000 0.28710  0.29376  0.02941  Biso   1.000  N
  N12      1.0000 0.21290  0.70624  0.52941  Biso   1.000  N
  N13      1.0000 0.71290  0.79376  0.47059  Biso   1.000  N
  N14      1.0000 0.21290  0.79376  0.02941  Biso   1.000  N
  N15      1.0000 0.71290  0.70624  0.97059  Biso   1.000  N
  N16      1.0000 0.78710  0.29376  0.47059  Biso   1.000  N
  N17      1.0000 0.92630  0.34950  0.68452  Biso   1.000  N
  N18      1.0000 0.42630  0.34950  0.81548  Biso   1.000  N
  N19      1.0000 0.92630  0.15050  0.18452  Biso   1.000  N
  N20      1.0000 0.57370  0.84950  0.68452  Biso   1.000  N
  N21      1.0000 0.07370  0.65050  0.31548  Biso   1.000  N
  N22      1.0000 0.57370  0.65050  0.18452  Biso   1.000  N
  N23      1.0000 0.07370  0.84950  0.81548  Biso   1.000  N
  N24      1.0000 0.42630  0.15050  0.31548  Biso   1.000  N
  C9       1.0000 0.38440  0.26563  0.58324  Biso   1.000  C
  C10      1.0000 0.88440  0.26563  0.91676  Biso   1.000  C
  C11      1.0000 0.38440  0.23437  0.08324  Biso   1.000  C
  C12      1.0000 0.11560  0.76563  0.58324  Biso   1.000  C
  C13      1.0000 0.61560  0.73437  0.41676  Biso   1.000  C
  C14      1.0000 0.11560  0.73437  0.08324  Biso   1.000  C
  C15      1.0000 0.61560  0.76563  0.91676  Biso   1.000  C
  C16      1.0000 0.88440  0.23437  0.41676  Biso   1.000  C
  N25      1.0000 0.19180  0.10035  0.55694  Biso   1.000  N
  N26      1.0000 0.69180  0.10035  0.94306  Biso   1.000  N
  N27      1.0000 0.19180  0.39965  0.05694  Biso   1.000  N
  N28      1.0000 0.30820  0.60035  0.55694  Biso   1.000  N
  N29      1.0000 0.80820  0.89965  0.44306  Biso   1.000  N
  N30      1.0000 0.30820  0.89965  0.05694  Biso   1.000  N
  N31      1.0000 0.80820  0.60035  0.94306  Biso   1.000  N
  N32      1.0000 0.69180  0.39965  0.44306  Biso   1.000  N
  H1       1.0000 0.29500  0.21600  0.48100  Biso   1.000  H
  H2       1.0000 0.79500  0.21600  0.01900  Biso   1.000  H
  H3       1.0000 0.29500  0.28400  0.98100  Biso   1.000  H
  H4       1.0000 0.20500  0.71600  0.48100  Biso   1.000  H
  H5       1.0000 0.70500  0.78400  0.51900  Biso   1.000  H
  H6       1.0000 0.20500  0.78400  0.98100  Biso   1.000  H
  H7       1.0000 0.70500  0.71600  0.01900  Biso   1.000  H
  H8       1.0000 0.79500  0.28400  0.51900  Biso   1.000  H
  H9       1.0000 0.38900  0.20700  0.69360  Biso   1.000  H
  H10      1.0000 0.88900  0.20700  0.80640  Biso   1.000  H
  H11      1.0000 0.38900  0.29300  0.19360  Biso   1.000  H
  H12      1.0000 0.11100  0.70700  0.69360  Biso   1.000  H
  H13      1.0000 0.61100  0.79300  0.30640  Biso   1.000  H
  H14      1.0000 0.11100  0.79300  0.19360  Biso   1.000  H
  H15      1.0000 0.61100  0.70700  0.80640  Biso   1.000  H
  H16      1.0000 0.88900  0.29300  0.30640  Biso   1.000  H
  H17      1.0000 0.18800  0.03700  0.65580  Biso   1.000  H
  H18      1.0000 0.68800  0.03700  0.84420  Biso   1.000  H
  H19      1.0000 0.18800  0.46300  0.15580  Biso   1.000  H
  H20      1.0000 0.31200  0.53700  0.65580  Biso   1.000  H
  H21      1.0000 0.81200  0.96300  0.34420  Biso   1.000  H
  H22      1.0000 0.31200  0.96300  0.15580  Biso   1.000  H
  H23      1.0000 0.81200  0.53700  0.84420  Biso   1.000  H
  H24      1.0000 0.68800  0.46300  0.34420  Biso   1.000  H
  H25      1.0000 0.69000  0.63200  0.61640  Biso   1.000  H
  H26      1.0000 0.19000  0.63200  0.88360  Biso   1.000  H
  H27      1.0000 0.69000  0.86800  0.11640  Biso   1.000  H
  H28      1.0000 0.81000  0.13200  0.61640  Biso   1.000  H
  H29      1.0000 0.31000  0.36800  0.38360  Biso   1.000  H
  H30      1.0000 0.81000  0.36800  0.11640  Biso   1.000  H
  H31      1.0000 0.31000  0.13200  0.88360  Biso   1.000  H
  H32      1.0000 0.19000  0.86800  0.38360  Biso   1.000  H
  H33      1.0000 0.81500  0.54300  0.58830  Biso   1.000  H
  H34      1.0000 0.31500  0.54300  0.91170  Biso   1.000  H
  H35      1.0000 0.81500  0.95700  0.08830  Biso   1.000  H
  H36      1.0000 0.68500  0.04300  0.58830  Biso   1.000  H
  H37      1.0000 0.18500  0.45700  0.41170  Biso   1.000  H
  H38      1.0000 0.68500  0.45700  0.08830  Biso   1.000  H
  H39      1.0000 0.18500  0.04300  0.91170  Biso   1.000  H
  H40      1.0000 0.31500  0.95700  0.41170  Biso   1.000  H
