data_image0
_cell_length_a       9.1961
_cell_length_b       11.5011
_cell_length_c       21.128
_cell_angle_alpha    90
_cell_angle_beta     95.729
_cell_angle_gamma    90

_symmetry_space_group_name_H-M    "P 1"
_symmetry_int_tables_number       1

loop_
  _symmetry_equiv_pos_as_xyz
  'x, y, z'

loop_
  _atom_site_label
  _atom_site_occupancy
  _atom_site_fract_x
  _atom_site_fract_y
  _atom_site_fract_z
  _atom_site_thermal_displace_type
  _atom_site_B_iso_or_equiv
  _atom_site_type_symbol
  Cu1      1.0000 0.76022  0.14206  0.15796  Biso   1.000  Cu
  Cu2      1.0000 0.76022  0.35794  0.65796  Biso   1.000  Cu
  Cu3      1.0000 0.23978  0.85794  0.84204  Biso   1.000  Cu
  Cu4      1.0000 0.23978  0.64206  0.34204  Biso   1.000  Cu
  O1       1.0000 0.89490  0.37490  0.00301  Biso   1.000  O
  O2       1.0000 0.89490  0.12510  0.50301  Biso   1.000  O
  O3       1.0000 0.10510  0.62510  0.99699  Biso   1.000  O
  O4       1.0000 0.10510  0.87490  0.49699  Biso   1.000  O
  O5       1.0000 0.65150  0.35890  0.98884  Biso   1.000  O
  O6       1.0000 0.65150  0.14110  0.48884  Biso   1.000  O
  O7       1.0000 0.34850  0.64110  0.01116  Biso   1.000  O
  O8       1.0000 0.34850  0.85890  0.51116  Biso   1.000  O
  N1       1.0000 0.91100  0.13650  0.23403  Biso   1.000  N
  N2       1.0000 0.91100  0.36350  0.73403  Biso   1.000  N
  N3       1.0000 0.08900  0.86350  0.76597  Biso   1.000  N
  N4       1.0000 0.08900  0.63650  0.26597  Biso   1.000  N
  H1       1.0000 0.92850  0.05840  0.23940  Biso   1.000  H
  H2       1.0000 0.92850  0.44160  0.73940  Biso   1.000  H
  H3       1.0000 0.07150  0.94160  0.76060  Biso   1.000  H
  H4       1.0000 0.07150  0.55840  0.26060  Biso   1.000  H
  H5       1.0000 0.89050  0.14240  0.27280  Biso   1.000  H
  H6       1.0000 0.89050  0.35760  0.77280  Biso   1.000  H
  H7       1.0000 0.10950  0.85760  0.72720  Biso   1.000  H
  H8       1.0000 0.10950  0.64240  0.22720  Biso   1.000  H
  N5       1.0000 0.92670  0.19090  0.10869  Biso   1.000  N
  N6       1.0000 0.92670  0.30910  0.60869  Biso   1.000  N
  N7       1.0000 0.07330  0.80910  0.89131  Biso   1.000  N
  N8       1.0000 0.07330  0.69090  0.39131  Biso   1.000  N
  H9       1.0000 0.91650  0.26530  0.10950  Biso   1.000  H
  H10      1.0000 0.91650  0.23470  0.60950  Biso   1.000  H
  H11      1.0000 0.08350  0.73470  0.89050  Biso   1.000  H
  H12      1.0000 0.08350  0.76530  0.39050  Biso   1.000  H
  N9       1.0000 0.60920  0.16370  0.08222  Biso   1.000  N
  N10      1.0000 0.60920  0.33630  0.58222  Biso   1.000  N
  N11      1.0000 0.39080  0.83630  0.91778  Biso   1.000  N
  N12      1.0000 0.39080  0.66370  0.41778  Biso   1.000  N
  H13      1.0000 0.60290  0.23370  0.08380  Biso   1.000  H
  H14      1.0000 0.60290  0.26630  0.58380  Biso   1.000  H
  H15      1.0000 0.39710  0.76630  0.91620  Biso   1.000  H
  H16      1.0000 0.39710  0.73370  0.41620  Biso   1.000  H
  N13      1.0000 0.59280  0.08050  0.20250  Biso   1.000  N
  N14      1.0000 0.59280  0.41950  0.70250  Biso   1.000  N
  N15      1.0000 0.40720  0.91950  0.79750  Biso   1.000  N
  N16      1.0000 0.40720  0.58050  0.29750  Biso   1.000  N
  H17      1.0000 0.60420  0.98990  0.19940  Biso   1.000  H
  H18      1.0000 0.60420  0.51010  0.69940  Biso   1.000  H
  H19      1.0000 0.39580  0.01010  0.80060  Biso   1.000  H
  H20      1.0000 0.39580  0.48990  0.30060  Biso   1.000  H
  H21      1.0000 0.60090  0.09430  0.24120  Biso   1.000  H
  H22      1.0000 0.60090  0.40570  0.74120  Biso   1.000  H
  H23      1.0000 0.39910  0.90570  0.75880  Biso   1.000  H
  H24      1.0000 0.39910  0.59430  0.25880  Biso   1.000  H
  C1       1.0000 0.04500  0.19580  0.21682  Biso   1.000  C
  C2       1.0000 0.04500  0.30420  0.71682  Biso   1.000  C
  C3       1.0000 0.95500  0.80420  0.78318  Biso   1.000  C
  C4       1.0000 0.95500  0.69580  0.28318  Biso   1.000  C
  H25      1.0000 0.12930  0.17160  0.24500  Biso   1.000  H
  H26      1.0000 0.12930  0.32840  0.74500  Biso   1.000  H
  H27      1.0000 0.87070  0.82840  0.75500  Biso   1.000  H
  H28      1.0000 0.87070  0.67160  0.25500  Biso   1.000  H
  H29      1.0000 0.03470  0.27950  0.22000  Biso   1.000  H
  H30      1.0000 0.03470  0.22050  0.72000  Biso   1.000  H
  H31      1.0000 0.96530  0.72050  0.78000  Biso   1.000  H
  H32      1.0000 0.96530  0.77950  0.28000  Biso   1.000  H
  C5       1.0000 0.06300  0.16050  0.14859  Biso   1.000  C
  C6       1.0000 0.06300  0.33950  0.64859  Biso   1.000  C
  C7       1.0000 0.93700  0.83950  0.85141  Biso   1.000  C
  C8       1.0000 0.93700  0.66050  0.35141  Biso   1.000  C
  H33      1.0000 0.14530  0.20120  0.13360  Biso   1.000  H
  H34      1.0000 0.14530  0.29880  0.63360  Biso   1.000  H
  H35      1.0000 0.85470  0.79880  0.86640  Biso   1.000  H
  H36      1.0000 0.85470  0.70120  0.36640  Biso   1.000  H
  H37      1.0000 0.08100  0.07760  0.14630  Biso   1.000  H
  H38      1.0000 0.08100  0.42240  0.64630  Biso   1.000  H
  H39      1.0000 0.91900  0.92240  0.85370  Biso   1.000  H
  H40      1.0000 0.91900  0.57760  0.35370  Biso   1.000  H
  C9       1.0000 0.92460  0.14510  0.04310  Biso   1.000  C
  C10      1.0000 0.92460  0.35490  0.54310  Biso   1.000  C
  C11      1.0000 0.07540  0.85490  0.95690  Biso   1.000  C
  C12      1.0000 0.07540  0.64510  0.45690  Biso   1.000  C
  H41      1.0000 0.92730  0.06080  0.04480  Biso   1.000  H
  H42      1.0000 0.92730  0.43920  0.54480  Biso   1.000  H
  H43      1.0000 0.07270  0.93920  0.95520  Biso   1.000  H
  H44      1.0000 0.07270  0.56080  0.45520  Biso   1.000  H
  H45      1.0000 0.01190  0.17120  0.02510  Biso   1.000  H
  H46      1.0000 0.01190  0.32880  0.52510  Biso   1.000  H
  H47      1.0000 0.98810  0.82880  0.97490  Biso   1.000  H
  H48      1.0000 0.98810  0.67120  0.47490  Biso   1.000  H
  C13      1.0000 0.79050  0.18300  0.99940  Biso   1.000  C
  C14      1.0000 0.79050  0.31700  0.49940  Biso   1.000  C
  C15      1.0000 0.20950  0.81700  0.00060  Biso   1.000  C
  C16      1.0000 0.20950  0.68300  0.50060  Biso   1.000  C
  C17      1.0000 0.64970  0.12780  0.01894  Biso   1.000  C
  C18      1.0000 0.64970  0.37220  0.51894  Biso   1.000  C
  C19      1.0000 0.35030  0.87220  0.98106  Biso   1.000  C
  C20      1.0000 0.35030  0.62780  0.48106  Biso   1.000  C
  H49      1.0000 0.56990  0.14750  0.98720  Biso   1.000  H
  H50      1.0000 0.56990  0.35250  0.48720  Biso   1.000  H
  H51      1.0000 0.43010  0.85250  0.01280  Biso   1.000  H
  H52      1.0000 0.43010  0.64750  0.51280  Biso   1.000  H
  H53      1.0000 0.66080  0.04400  0.01870  Biso   1.000  H
  H54      1.0000 0.66080  0.45600  0.51870  Biso   1.000  H
  H55      1.0000 0.33920  0.95600  0.98130  Biso   1.000  H
  H56      1.0000 0.33920  0.54400  0.48130  Biso   1.000  H
  C21      1.0000 0.80750  0.14070  0.93159  Biso   1.000  C
  C22      1.0000 0.80750  0.35930  0.43159  Biso   1.000  C
  C23      1.0000 0.19250  0.85930  0.06841  Biso   1.000  C
  C24      1.0000 0.19250  0.64070  0.56841  Biso   1.000  C
  H57      1.0000 0.89490  0.17310  0.91750  Biso   1.000  H
  H58      1.0000 0.89490  0.32690  0.41750  Biso   1.000  H
  H59      1.0000 0.10510  0.82690  0.08250  Biso   1.000  H
  H60      1.0000 0.10510  0.67310  0.58250  Biso   1.000  H
  H61      1.0000 0.72450  0.16510  0.90360  Biso   1.000  H
  H62      1.0000 0.72450  0.33490  0.40360  Biso   1.000  H
  H63      1.0000 0.27550  0.83490  0.09640  Biso   1.000  H
  H64      1.0000 0.27550  0.66510  0.59640  Biso   1.000  H
  H65      1.0000 0.81370  0.05740  0.93130  Biso   1.000  H
  H66      1.0000 0.81370  0.44260  0.43130  Biso   1.000  H
  H67      1.0000 0.18630  0.94260  0.06870  Biso   1.000  H
  H68      1.0000 0.18630  0.55740  0.56870  Biso   1.000  H
  C25      1.0000 0.77900  0.31710  0.99695  Biso   1.000  C
  C26      1.0000 0.77900  0.18290  0.49695  Biso   1.000  C
  C27      1.0000 0.22100  0.68290  0.00305  Biso   1.000  C
  C28      1.0000 0.22100  0.81710  0.50305  Biso   1.000  C
  C29      1.0000 0.47330  0.10410  0.09713  Biso   1.000  C
  C30      1.0000 0.47330  0.39590  0.59713  Biso   1.000  C
  C31      1.0000 0.52670  0.89590  0.90287  Biso   1.000  C
  C32      1.0000 0.52670  0.60410  0.40287  Biso   1.000  C
  H69      1.0000 0.47850  0.02220  0.08680  Biso   1.000  H
  H70      1.0000 0.47850  0.47780  0.58680  Biso   1.000  H
  H71      1.0000 0.52150  0.97780  0.91320  Biso   1.000  H
  H72      1.0000 0.52150  0.52220  0.41320  Biso   1.000  H
  H73      1.0000 0.38970  0.13730  0.07180  Biso   1.000  H
  H74      1.0000 0.38970  0.36270  0.57180  Biso   1.000  H
  H75      1.0000 0.61030  0.86270  0.92820  Biso   1.000  H
  H76      1.0000 0.61030  0.63730  0.42820  Biso   1.000  H
  C33      1.0000 0.45540  0.11840  0.16673  Biso   1.000  C
  C34      1.0000 0.45540  0.38160  0.66673  Biso   1.000  C
  C35      1.0000 0.54460  0.88160  0.83327  Biso   1.000  C
  C36      1.0000 0.54460  0.61840  0.33327  Biso   1.000  C
  H77      1.0000 0.43560  0.19900  0.17620  Biso   1.000  H
  H78      1.0000 0.43560  0.30100  0.67620  Biso   1.000  H
  H79      1.0000 0.56440  0.80100  0.82380  Biso   1.000  H
  H80      1.0000 0.56440  0.69900  0.32380  Biso   1.000  H
  H81      1.0000 0.37450  0.07130  0.17830  Biso   1.000  H
  H82      1.0000 0.37450  0.42870  0.67830  Biso   1.000  H
  H83      1.0000 0.62550  0.92870  0.82170  Biso   1.000  H
  H84      1.0000 0.62550  0.57130  0.32170  Biso   1.000  H
  Cl1      1.0000 0.77974  0.82379  0.10828  Biso   1.000  Cl
  Cl2      1.0000 0.77974  0.67621  0.60828  Biso   1.000  Cl
  Cl3      1.0000 0.22026  0.17621  0.89172  Biso   1.000  Cl
  Cl4      1.0000 0.22026  0.32379  0.39172  Biso   1.000  Cl
  O9       1.0000 0.83450  0.92980  0.13872  Biso   1.000  O
  O10      1.0000 0.83450  0.57020  0.63872  Biso   1.000  O
  O11      1.0000 0.16550  0.07020  0.86128  Biso   1.000  O
  O12      1.0000 0.16550  0.42980  0.36128  Biso   1.000  O
  O13      1.0000 0.76840  0.83780  0.04039  Biso   1.000  O
  O14      1.0000 0.76840  0.66220  0.54039  Biso   1.000  O
  O15      1.0000 0.23160  0.16220  0.95961  Biso   1.000  O
  O16      1.0000 0.23160  0.33780  0.45961  Biso   1.000  O
  O17      1.0000 0.63630  0.79970  0.12801  Biso   1.000  O
  O18      1.0000 0.63630  0.70030  0.62801  Biso   1.000  O
  O19      1.0000 0.36370  0.20030  0.87199  Biso   1.000  O
  O20      1.0000 0.36370  0.29970  0.37199  Biso   1.000  O
  O21      1.0000 0.87850  0.72970  0.12705  Biso   1.000  O
  O22      1.0000 0.87850  0.77030  0.62705  Biso   1.000  O
  O23      1.0000 0.12150  0.27030  0.87295  Biso   1.000  O
  O24      1.0000 0.12150  0.22970  0.37295  Biso   1.000  O
  Cl5      1.0000 0.74372  0.43989  0.19942  Biso   1.000  Cl
  Cl6      1.0000 0.74372  0.06011  0.69942  Biso   1.000  Cl
  Cl7      1.0000 0.25628  0.56011  0.80058  Biso   1.000  Cl
  Cl8      1.0000 0.25628  0.93989  0.30058  Biso   1.000  Cl
  O25      1.0000 0.66610  0.33120  0.20710  Biso   1.000  O
  O26      1.0000 0.66610  0.16880  0.70710  Biso   1.000  O
  O27      1.0000 0.33390  0.66880  0.79290  Biso   1.000  O
  O28      1.0000 0.33390  0.83120  0.29290  Biso   1.000  O
  O29      1.0000 0.67800  0.34550  0.17100  Biso   1.000  O
  O30      1.0000 0.67800  0.15450  0.67100  Biso   1.000  O
  O31      1.0000 0.32200  0.65450  0.82900  Biso   1.000  O
  O32      1.0000 0.32200  0.84550  0.32900  Biso   1.000  O
  O33      1.0000 0.79740  0.43100  0.13730  Biso   1.000  O
  O34      1.0000 0.79740  0.06900  0.63730  Biso   1.000  O
  O35      1.0000 0.20260  0.56900  0.86270  Biso   1.000  O
  O36      1.0000 0.20260  0.93100  0.36270  Biso   1.000  O
  O37      1.0000 0.87550  0.46760  0.16640  Biso   1.000  O
  O38      1.0000 0.87550  0.03240  0.66640  Biso   1.000  O
  O39      1.0000 0.12450  0.53240  0.83360  Biso   1.000  O
  O40      1.0000 0.12450  0.96760  0.33360  Biso   1.000  O
  O41      1.0000 0.85620  0.45150  0.24720  Biso   1.000  O
  O42      1.0000 0.85620  0.04850  0.74720  Biso   1.000  O
  O43      1.0000 0.14380  0.54850  0.75280  Biso   1.000  O
  O44      1.0000 0.14380  0.95150  0.25280  Biso   1.000  O
  O45      1.0000 0.80360  0.42310  0.26450  Biso   1.000  O
  O46      1.0000 0.80360  0.07690  0.76450  Biso   1.000  O
  O47      1.0000 0.19640  0.57690  0.73550  Biso   1.000  O
  O48      1.0000 0.19640  0.92310  0.23550  Biso   1.000  O
  O49      1.0000 0.64630  0.53780  0.19678  Biso   1.000  O
  O50      1.0000 0.64630  0.96220  0.69678  Biso   1.000  O
  O51      1.0000 0.35370  0.46220  0.80322  Biso   1.000  O
  O52      1.0000 0.35370  0.03780  0.30322  Biso   1.000  O
  Cl9      1.0000 0.26816  0.45193  0.14504  Biso   1.000  Cl
  Cl10     1.0000 0.26816  0.04807  0.64504  Biso   1.000  Cl
  Cl11     1.0000 0.73184  0.54807  0.85496  Biso   1.000  Cl
  Cl12     1.0000 0.73184  0.95193  0.35496  Biso   1.000  Cl
  O53      1.0000 0.12920  0.43130  0.11100  Biso   1.000  O
  O54      1.0000 0.12920  0.06870  0.61100  Biso   1.000  O
  O55      1.0000 0.87080  0.56870  0.88900  Biso   1.000  O
  O56      1.0000 0.87080  0.93130  0.38900  Biso   1.000  O
  O57      1.0000 0.38200  0.40940  0.10828  Biso   1.000  O
  O58      1.0000 0.38200  0.09060  0.60828  Biso   1.000  O
  O59      1.0000 0.61800  0.59060  0.89172  Biso   1.000  O
  O60      1.0000 0.61800  0.90940  0.39172  Biso   1.000  O
  O61      1.0000 0.29280  0.57550  0.15338  Biso   1.000  O
  O62      1.0000 0.29280  0.92450  0.65338  Biso   1.000  O
  O63      1.0000 0.70720  0.42450  0.84662  Biso   1.000  O
  O64      1.0000 0.70720  0.07550  0.34662  Biso   1.000  O
  O65      1.0000 0.27800  0.39600  0.20581  Biso   1.000  O
  O66      1.0000 0.27800  0.10400  0.70581  Biso   1.000  O
  O67      1.0000 0.72200  0.60400  0.79419  Biso   1.000  O
  O68      1.0000 0.72200  0.89600  0.29419  Biso   1.000  O
  Na1      1.0000 0.93298  0.55578  0.06332  Biso   1.000  Na
  Na2      1.0000 0.93298  0.94422  0.56332  Biso   1.000  Na
  Na3      1.0000 0.06702  0.44422  0.93668  Biso   1.000  Na
  Na4      1.0000 0.06702  0.05578  0.43668  Biso   1.000  Na
  Na5      1.0000 0.48545  0.38337  0.89844  Biso   1.000  Na
  Na6      1.0000 0.48545  0.11663  0.39844  Biso   1.000  Na
  Na7      1.0000 0.51455  0.61663  0.10156  Biso   1.000  Na
  Na8      1.0000 0.51455  0.88337  0.60156  Biso   1.000  Na
  O69      1.0000 0.68230  0.57890  0.03027  Biso   1.000  O
  O70      1.0000 0.68230  0.92110  0.53027  Biso   1.000  O
  O71      1.0000 0.31770  0.42110  0.96973  Biso   1.000  O
  O72      1.0000 0.31770  0.07890  0.46973  Biso   1.000  O
  H85      1.0000 0.67760  0.51310  0.01410  Biso   1.000  H
  H86      1.0000 0.67760  0.98690  0.51410  Biso   1.000  H
  H87      1.0000 0.32240  0.48690  0.98590  Biso   1.000  H
  H88      1.0000 0.32240  0.01310  0.48590  Biso   1.000  H
  H89      1.0000 0.66020  0.62040  0.99860  Biso   1.000  H
  H90      1.0000 0.66020  0.87960  0.49860  Biso   1.000  H
  H91      1.0000 0.33980  0.37960  0.00140  Biso   1.000  H
  H92      1.0000 0.33980  0.12040  0.50140  Biso   1.000  H
  O73      1.0000 0.55780  0.23940  0.79920  Biso   1.000  O
  O74      1.0000 0.55780  0.26060  0.29920  Biso   1.000  O
  O75      1.0000 0.44220  0.76060  0.20080  Biso   1.000  O
  O76      1.0000 0.44220  0.73940  0.70080  Biso   1.000  O
