data_image0
_cell_length_a       20.618
_cell_length_b       10.3393
_cell_length_c       23.857
_cell_angle_alpha    90
_cell_angle_beta     92.033
_cell_angle_gamma    90

_symmetry_space_group_name_H-M    "P 1"
_symmetry_int_tables_number       1

loop_
  _symmetry_equiv_pos_as_xyz
  'x, y, z'

loop_
  _atom_site_label
  _atom_site_occupancy
  _atom_site_fract_x
  _atom_site_fract_y
  _atom_site_fract_z
  _atom_site_thermal_displace_type
  _atom_site_B_iso_or_equiv
  _atom_site_type_symbol
  C1       1.0000 0.10260  0.21080  0.15970  Biso   1.000  C
  C2       1.0000 0.89740  0.21080  0.34030  Biso   1.000  C
  C3       1.0000 0.60260  0.71080  0.15970  Biso   1.000  C
  C4       1.0000 0.39740  0.71080  0.34030  Biso   1.000  C
  C5       1.0000 0.89740  0.78920  0.84030  Biso   1.000  C
  C6       1.0000 0.10260  0.78920  0.65970  Biso   1.000  C
  C7       1.0000 0.39740  0.28920  0.84030  Biso   1.000  C
  C8       1.0000 0.60260  0.28920  0.65970  Biso   1.000  C
  C9       1.0000 0.11170  0.11800  0.11696  Biso   1.000  C
  C10      1.0000 0.88830  0.11800  0.38304  Biso   1.000  C
  C11      1.0000 0.61170  0.61800  0.11696  Biso   1.000  C
  C12      1.0000 0.38830  0.61800  0.38304  Biso   1.000  C
  C13      1.0000 0.88830  0.88200  0.88304  Biso   1.000  C
  C14      1.0000 0.11170  0.88200  0.61696  Biso   1.000  C
  C15      1.0000 0.38830  0.38200  0.88304  Biso   1.000  C
  C16      1.0000 0.61170  0.38200  0.61696  Biso   1.000  C
  C17      1.0000 0.06150  0.03380  0.10202  Biso   1.000  C
  C18      1.0000 0.93850  0.03380  0.39798  Biso   1.000  C
  C19      1.0000 0.56150  0.53380  0.10202  Biso   1.000  C
  C20      1.0000 0.43850  0.53380  0.39798  Biso   1.000  C
  C21      1.0000 0.93850  0.96620  0.89798  Biso   1.000  C
  C22      1.0000 0.06150  0.96620  0.60202  Biso   1.000  C
  C23      1.0000 0.43850  0.46620  0.89798  Biso   1.000  C
  C24      1.0000 0.56150  0.46620  0.60202  Biso   1.000  C
  H1       1.0000 0.06710  0.97260  0.07400  Biso   1.000  H
  H2       1.0000 0.93290  0.97260  0.42600  Biso   1.000  H
  H3       1.0000 0.56710  0.47260  0.07400  Biso   1.000  H
  H4       1.0000 0.43290  0.47260  0.42600  Biso   1.000  H
  H5       1.0000 0.93290  0.02740  0.92600  Biso   1.000  H
  H6       1.0000 0.06710  0.02740  0.57400  Biso   1.000  H
  H7       1.0000 0.43290  0.52740  0.92600  Biso   1.000  H
  H8       1.0000 0.56710  0.52740  0.57400  Biso   1.000  H
  C25      1.0000 0.00350  0.04130  0.12891  Biso   1.000  C
  C26      1.0000 0.99650  0.04130  0.37109  Biso   1.000  C
  C27      1.0000 0.50350  0.54130  0.12891  Biso   1.000  C
  C28      1.0000 0.49650  0.54130  0.37109  Biso   1.000  C
  C29      1.0000 0.99650  0.95870  0.87109  Biso   1.000  C
  C30      1.0000 0.00350  0.95870  0.62891  Biso   1.000  C
  C31      1.0000 0.49650  0.45870  0.87109  Biso   1.000  C
  C32      1.0000 0.50350  0.45870  0.62891  Biso   1.000  C
  H9       1.0000 0.97000  0.98460  0.11910  Biso   1.000  H
  H10      1.0000 0.03000  0.98460  0.38090  Biso   1.000  H
  H11      1.0000 0.47000  0.48460  0.11910  Biso   1.000  H
  H12      1.0000 0.53000  0.48460  0.38090  Biso   1.000  H
  H13      1.0000 0.03000  0.01540  0.88090  Biso   1.000  H
  H14      1.0000 0.97000  0.01540  0.61910  Biso   1.000  H
  H15      1.0000 0.53000  0.51540  0.88090  Biso   1.000  H
  H16      1.0000 0.47000  0.51540  0.61910  Biso   1.000  H
  C33      1.0000 0.99500  0.13320  0.17060  Biso   1.000  C
  C34      1.0000 0.00500  0.13320  0.32940  Biso   1.000  C
  C35      1.0000 0.49500  0.63320  0.17060  Biso   1.000  C
  C36      1.0000 0.50500  0.63320  0.32940  Biso   1.000  C
  C37      1.0000 0.00500  0.86680  0.82940  Biso   1.000  C
  C38      1.0000 0.99500  0.86680  0.67060  Biso   1.000  C
  C39      1.0000 0.50500  0.36680  0.82940  Biso   1.000  C
  C40      1.0000 0.49500  0.36680  0.67060  Biso   1.000  C
  H17      1.0000 0.95570  0.13740  0.18840  Biso   1.000  H
  H18      1.0000 0.04430  0.13740  0.31160  Biso   1.000  H
  H19      1.0000 0.45570  0.63740  0.18840  Biso   1.000  H
  H20      1.0000 0.54430  0.63740  0.31160  Biso   1.000  H
  H21      1.0000 0.04430  0.86260  0.81160  Biso   1.000  H
  H22      1.0000 0.95570  0.86260  0.68840  Biso   1.000  H
  H23      1.0000 0.54430  0.36260  0.81160  Biso   1.000  H
  H24      1.0000 0.45570  0.36260  0.68840  Biso   1.000  H
  C41      1.0000 0.04380  0.21780  0.18573  Biso   1.000  C
  C42      1.0000 0.95620  0.21780  0.31427  Biso   1.000  C
  C43      1.0000 0.54380  0.71780  0.18573  Biso   1.000  C
  C44      1.0000 0.45620  0.71780  0.31427  Biso   1.000  C
  C45      1.0000 0.95620  0.78220  0.81427  Biso   1.000  C
  C46      1.0000 0.04380  0.78220  0.68573  Biso   1.000  C
  C47      1.0000 0.45620  0.28220  0.81427  Biso   1.000  C
  C48      1.0000 0.54380  0.28220  0.68573  Biso   1.000  C
  H25      1.0000 0.03740  0.27950  0.21340  Biso   1.000  H
  H26      1.0000 0.96260  0.27950  0.28660  Biso   1.000  H
  H27      1.0000 0.53740  0.77950  0.21340  Biso   1.000  H
  H28      1.0000 0.46260  0.77950  0.28660  Biso   1.000  H
  H29      1.0000 0.96260  0.72050  0.78660  Biso   1.000  H
  H30      1.0000 0.03740  0.72050  0.71340  Biso   1.000  H
  H31      1.0000 0.46260  0.22050  0.78660  Biso   1.000  H
  H32      1.0000 0.53740  0.22050  0.71340  Biso   1.000  H
  C49      1.0000 0.20360  0.45210  0.22460  Biso   1.000  C
  C50      1.0000 0.79640  0.45210  0.27540  Biso   1.000  C
  C51      1.0000 0.70360  0.95210  0.22460  Biso   1.000  C
  C52      1.0000 0.29640  0.95210  0.27540  Biso   1.000  C
  C53      1.0000 0.79640  0.54790  0.77540  Biso   1.000  C
  C54      1.0000 0.20360  0.54790  0.72460  Biso   1.000  C
  C55      1.0000 0.29640  0.04790  0.77540  Biso   1.000  C
  C56      1.0000 0.70360  0.04790  0.72460  Biso   1.000  C
  C57      1.0000 0.19110  0.53170  0.27454  Biso   1.000  C
  C58      1.0000 0.80890  0.53170  0.22546  Biso   1.000  C
  C59      1.0000 0.69110  0.03170  0.27454  Biso   1.000  C
  C60      1.0000 0.30890  0.03170  0.22546  Biso   1.000  C
  C61      1.0000 0.80890  0.46830  0.72546  Biso   1.000  C
  C62      1.0000 0.19110  0.46830  0.77454  Biso   1.000  C
  C63      1.0000 0.30890  0.96830  0.72546  Biso   1.000  C
  C64      1.0000 0.69110  0.96830  0.77454  Biso   1.000  C
  C65      1.0000 0.11480  0.57380  0.34472  Biso   1.000  C
  C66      1.0000 0.88520  0.57380  0.15528  Biso   1.000  C
  C67      1.0000 0.61480  0.07380  0.34472  Biso   1.000  C
  C68      1.0000 0.38520  0.07380  0.15528  Biso   1.000  C
  C69      1.0000 0.88520  0.42620  0.65528  Biso   1.000  C
  C70      1.0000 0.11480  0.42620  0.84472  Biso   1.000  C
  C71      1.0000 0.38520  0.92620  0.65528  Biso   1.000  C
  C72      1.0000 0.61480  0.92620  0.84472  Biso   1.000  C
  H33      1.0000 0.11740  0.66650  0.33920  Biso   1.000  H
  H34      1.0000 0.88260  0.66650  0.16080  Biso   1.000  H
  H35      1.0000 0.61740  0.16650  0.33920  Biso   1.000  H
  H36      1.0000 0.38260  0.16650  0.16080  Biso   1.000  H
  H37      1.0000 0.88260  0.33350  0.66080  Biso   1.000  H
  H38      1.0000 0.11740  0.33350  0.83920  Biso   1.000  H
  H39      1.0000 0.38260  0.83350  0.66080  Biso   1.000  H
  H40      1.0000 0.61740  0.83350  0.83920  Biso   1.000  H
  H41      1.0000 0.14380  0.54990  0.37590  Biso   1.000  H
  H42      1.0000 0.85620  0.54990  0.12410  Biso   1.000  H
  H43      1.0000 0.64380  0.04990  0.37590  Biso   1.000  H
  H44      1.0000 0.35620  0.04990  0.12410  Biso   1.000  H
  H45      1.0000 0.85620  0.45010  0.62410  Biso   1.000  H
  H46      1.0000 0.14380  0.45010  0.87590  Biso   1.000  H
  H47      1.0000 0.35620  0.95010  0.62410  Biso   1.000  H
  H48      1.0000 0.64380  0.95010  0.87590  Biso   1.000  H
  C73      1.0000 0.04670  0.53470  0.35610  Biso   1.000  C
  C74      1.0000 0.95330  0.53470  0.14390  Biso   1.000  C
  C75      1.0000 0.54670  0.03470  0.35610  Biso   1.000  C
  C76      1.0000 0.45330  0.03470  0.14390  Biso   1.000  C
  C77      1.0000 0.95330  0.46530  0.64390  Biso   1.000  C
  C78      1.0000 0.04670  0.46530  0.85610  Biso   1.000  C
  C79      1.0000 0.45330  0.96530  0.64390  Biso   1.000  C
  C80      1.0000 0.54670  0.96530  0.85610  Biso   1.000  C
  H49      1.0000 0.01840  0.56050  0.32520  Biso   1.000  H
  H50      1.0000 0.98160  0.56050  0.17480  Biso   1.000  H
  H51      1.0000 0.51840  0.06050  0.32520  Biso   1.000  H
  H52      1.0000 0.48160  0.06050  0.17480  Biso   1.000  H
  H53      1.0000 0.98160  0.43950  0.67480  Biso   1.000  H
  H54      1.0000 0.01840  0.43950  0.82520  Biso   1.000  H
  H55      1.0000 0.48160  0.93950  0.67480  Biso   1.000  H
  H56      1.0000 0.51840  0.93950  0.82520  Biso   1.000  H
  H57      1.0000 0.03320  0.57590  0.38980  Biso   1.000  H
  H58      1.0000 0.96680  0.57590  0.11020  Biso   1.000  H
  H59      1.0000 0.53320  0.07590  0.38980  Biso   1.000  H
  H60      1.0000 0.46680  0.07590  0.11020  Biso   1.000  H
  H61      1.0000 0.96680  0.42410  0.61020  Biso   1.000  H
  H62      1.0000 0.03320  0.42410  0.88980  Biso   1.000  H
  H63      1.0000 0.46680  0.92410  0.61020  Biso   1.000  H
  H64      1.0000 0.53320  0.92410  0.88980  Biso   1.000  H
  H65      1.0000 0.04460  0.44250  0.36050  Biso   1.000  H
  H66      1.0000 0.95540  0.44250  0.13950  Biso   1.000  H
  H67      1.0000 0.54460  0.94250  0.36050  Biso   1.000  H
  H68      1.0000 0.45540  0.94250  0.13950  Biso   1.000  H
  H69      1.0000 0.95540  0.55750  0.63950  Biso   1.000  H
  H70      1.0000 0.04460  0.55750  0.86050  Biso   1.000  H
  H71      1.0000 0.45540  0.05750  0.63950  Biso   1.000  H
  H72      1.0000 0.54460  0.05750  0.86050  Biso   1.000  H
  C81      1.0000 0.26280  0.46480  0.19525  Biso   1.000  C
  C82      1.0000 0.73720  0.46480  0.30475  Biso   1.000  C
  C83      1.0000 0.76280  0.96480  0.19525  Biso   1.000  C
  C84      1.0000 0.23720  0.96480  0.30475  Biso   1.000  C
  C85      1.0000 0.73720  0.53520  0.80475  Biso   1.000  C
  C86      1.0000 0.26280  0.53520  0.69525  Biso   1.000  C
  C87      1.0000 0.23720  0.03520  0.80475  Biso   1.000  C
  C88      1.0000 0.76280  0.03520  0.69525  Biso   1.000  C
  C89      1.0000 0.31290  0.56400  0.21032  Biso   1.000  C
  C90      1.0000 0.68710  0.56400  0.28968  Biso   1.000  C
  C91      1.0000 0.81290  0.06400  0.21032  Biso   1.000  C
  C92      1.0000 0.18710  0.06400  0.28968  Biso   1.000  C
  C93      1.0000 0.68710  0.43600  0.78968  Biso   1.000  C
  C94      1.0000 0.31290  0.43600  0.71032  Biso   1.000  C
  C95      1.0000 0.18710  0.93600  0.78968  Biso   1.000  C
  C96      1.0000 0.81290  0.93600  0.71032  Biso   1.000  C
  H73      1.0000 0.33380  0.54200  0.24560  Biso   1.000  H
  H74      1.0000 0.66620  0.54200  0.25440  Biso   1.000  H
  H75      1.0000 0.83380  0.04200  0.24560  Biso   1.000  H
  H76      1.0000 0.16620  0.04200  0.25440  Biso   1.000  H
  H77      1.0000 0.66620  0.45800  0.75440  Biso   1.000  H
  H78      1.0000 0.33380  0.45800  0.74560  Biso   1.000  H
  H79      1.0000 0.16620  0.95800  0.75440  Biso   1.000  H
  H80      1.0000 0.83380  0.95800  0.74560  Biso   1.000  H
  H81      1.0000 0.29260  0.64720  0.21320  Biso   1.000  H
  H82      1.0000 0.70740  0.64720  0.28680  Biso   1.000  H
  H83      1.0000 0.79260  0.14720  0.21320  Biso   1.000  H
  H84      1.0000 0.20740  0.14720  0.28680  Biso   1.000  H
  H85      1.0000 0.70740  0.35280  0.78680  Biso   1.000  H
  H86      1.0000 0.29260  0.35280  0.71320  Biso   1.000  H
  H87      1.0000 0.20740  0.85280  0.78680  Biso   1.000  H
  H88      1.0000 0.79260  0.85280  0.71320  Biso   1.000  H
  H89      1.0000 0.34470  0.56680  0.18180  Biso   1.000  H
  H90      1.0000 0.65530  0.56680  0.31820  Biso   1.000  H
  H91      1.0000 0.84470  0.06680  0.18180  Biso   1.000  H
  H92      1.0000 0.15530  0.06680  0.31820  Biso   1.000  H
  H93      1.0000 0.65530  0.43320  0.81820  Biso   1.000  H
  H94      1.0000 0.34470  0.43320  0.68180  Biso   1.000  H
  H95      1.0000 0.15530  0.93320  0.81820  Biso   1.000  H
  H96      1.0000 0.84470  0.93320  0.68180  Biso   1.000  H
  C97      1.0000 0.34240  0.09810  0.99352  Biso   1.000  C
  C98      1.0000 0.65760  0.09810  0.50648  Biso   1.000  C
  C99      1.0000 0.84240  0.59810  0.99352  Biso   1.000  C
  C100     1.0000 0.15760  0.59810  0.50648  Biso   1.000  C
  C101     1.0000 0.65760  0.90190  0.00648  Biso   1.000  C
  C102     1.0000 0.34240  0.90190  0.49352  Biso   1.000  C
  C103     1.0000 0.15760  0.40190  0.00648  Biso   1.000  C
  C104     1.0000 0.84240  0.40190  0.49352  Biso   1.000  C
  C105     1.0000 0.33260  0.19430  0.03466  Biso   1.000  C
  C106     1.0000 0.66740  0.19430  0.46534  Biso   1.000  C
  C107     1.0000 0.83260  0.69430  0.03466  Biso   1.000  C
  C108     1.0000 0.16740  0.69430  0.46534  Biso   1.000  C
  C109     1.0000 0.66740  0.80570  0.96534  Biso   1.000  C
  C110     1.0000 0.33260  0.80570  0.53466  Biso   1.000  C
  C111     1.0000 0.16740  0.30570  0.96534  Biso   1.000  C
  C112     1.0000 0.83260  0.30570  0.53466  Biso   1.000  C
  C113     1.0000 0.38140  0.28470  0.04629  Biso   1.000  C
  C114     1.0000 0.61860  0.28470  0.45371  Biso   1.000  C
  C115     1.0000 0.88140  0.78470  0.04629  Biso   1.000  C
  C116     1.0000 0.11860  0.78470  0.45371  Biso   1.000  C
  C117     1.0000 0.61860  0.71530  0.95371  Biso   1.000  C
  C118     1.0000 0.38140  0.71530  0.54629  Biso   1.000  C
  C119     1.0000 0.11860  0.21530  0.95371  Biso   1.000  C
  C120     1.0000 0.88140  0.21530  0.54629  Biso   1.000  C
  H97      1.0000 0.37510  0.34980  0.07250  Biso   1.000  H
  H98      1.0000 0.62490  0.34980  0.42750  Biso   1.000  H
  H99      1.0000 0.87510  0.84980  0.07250  Biso   1.000  H
  H100     1.0000 0.12490  0.84980  0.42750  Biso   1.000  H
  H101     1.0000 0.62490  0.65020  0.92750  Biso   1.000  H
  H102     1.0000 0.37510  0.65020  0.57250  Biso   1.000  H
  H103     1.0000 0.12490  0.15020  0.92750  Biso   1.000  H
  H104     1.0000 0.87510  0.15020  0.57250  Biso   1.000  H
  C121     1.0000 0.43890  0.27700  0.01877  Biso   1.000  C
  C122     1.0000 0.56110  0.27700  0.48123  Biso   1.000  C
  C123     1.0000 0.93890  0.77700  0.01877  Biso   1.000  C
  C124     1.0000 0.06110  0.77700  0.48123  Biso   1.000  C
  C125     1.0000 0.56110  0.72300  0.98123  Biso   1.000  C
  C126     1.0000 0.43890  0.72300  0.51877  Biso   1.000  C
  C127     1.0000 0.06110  0.22300  0.98123  Biso   1.000  C
  C128     1.0000 0.93890  0.22300  0.51877  Biso   1.000  C
  H105     1.0000 0.47150  0.33710  0.02670  Biso   1.000  H
  H106     1.0000 0.52850  0.33710  0.47330  Biso   1.000  H
  H107     1.0000 0.97150  0.83710  0.02670  Biso   1.000  H
  H108     1.0000 0.02850  0.83710  0.47330  Biso   1.000  H
  H109     1.0000 0.52850  0.66290  0.97330  Biso   1.000  H
  H110     1.0000 0.47150  0.66290  0.52670  Biso   1.000  H
  H111     1.0000 0.02850  0.16290  0.97330  Biso   1.000  H
  H112     1.0000 0.97150  0.16290  0.52670  Biso   1.000  H
  C129     1.0000 0.44890  0.17990  0.97913  Biso   1.000  C
  C130     1.0000 0.55110  0.17990  0.52087  Biso   1.000  C
  C131     1.0000 0.94890  0.67990  0.97913  Biso   1.000  C
  C132     1.0000 0.05110  0.67990  0.52087  Biso   1.000  C
  C133     1.0000 0.55110  0.82010  0.02087  Biso   1.000  C
  C134     1.0000 0.44890  0.82010  0.47913  Biso   1.000  C
  C135     1.0000 0.05110  0.32010  0.02087  Biso   1.000  C
  C136     1.0000 0.94890  0.32010  0.47913  Biso   1.000  C
  H113     1.0000 0.48820  0.17560  0.96130  Biso   1.000  H
  H114     1.0000 0.51180  0.17560  0.53870  Biso   1.000  H
  H115     1.0000 0.98820  0.67560  0.96130  Biso   1.000  H
  H116     1.0000 0.01180  0.67560  0.53870  Biso   1.000  H
  H117     1.0000 0.51180  0.82440  0.03870  Biso   1.000  H
  H118     1.0000 0.48820  0.82440  0.46130  Biso   1.000  H
  H119     1.0000 0.01180  0.32440  0.03870  Biso   1.000  H
  H120     1.0000 0.98820  0.32440  0.46130  Biso   1.000  H
  C137     1.0000 0.40120  0.09090  0.96640  Biso   1.000  C
  C138     1.0000 0.59880  0.09090  0.53360  Biso   1.000  C
  C139     1.0000 0.90120  0.59090  0.96640  Biso   1.000  C
  C140     1.0000 0.09880  0.59090  0.53360  Biso   1.000  C
  C141     1.0000 0.59880  0.90910  0.03360  Biso   1.000  C
  C142     1.0000 0.40120  0.90910  0.46640  Biso   1.000  C
  C143     1.0000 0.09880  0.40910  0.03360  Biso   1.000  C
  C144     1.0000 0.90120  0.40910  0.46640  Biso   1.000  C
  H121     1.0000 0.40790  0.02660  0.94000  Biso   1.000  H
  H122     1.0000 0.59210  0.02660  0.56000  Biso   1.000  H
  H123     1.0000 0.90790  0.52660  0.94000  Biso   1.000  H
  H124     1.0000 0.09210  0.52660  0.56000  Biso   1.000  H
  H125     1.0000 0.59210  0.97340  0.06000  Biso   1.000  H
  H126     1.0000 0.40790  0.97340  0.44000  Biso   1.000  H
  H127     1.0000 0.09210  0.47340  0.06000  Biso   1.000  H
  H128     1.0000 0.90790  0.47340  0.44000  Biso   1.000  H
  C145     1.0000 0.24500  0.84110  0.93725  Biso   1.000  C
  C146     1.0000 0.75500  0.84110  0.56275  Biso   1.000  C
  C147     1.0000 0.74500  0.34110  0.93725  Biso   1.000  C
  C148     1.0000 0.25500  0.34110  0.56275  Biso   1.000  C
  C149     1.0000 0.75500  0.15890  0.06275  Biso   1.000  C
  C150     1.0000 0.24500  0.15890  0.43725  Biso   1.000  C
  C151     1.0000 0.25500  0.65890  0.06275  Biso   1.000  C
  C152     1.0000 0.74500  0.65890  0.43725  Biso   1.000  C
  C153     1.0000 0.26220  0.74130  0.89557  Biso   1.000  C
  C154     1.0000 0.73780  0.74130  0.60443  Biso   1.000  C
  C155     1.0000 0.76220  0.24130  0.89557  Biso   1.000  C
  C156     1.0000 0.23780  0.24130  0.60443  Biso   1.000  C
  C157     1.0000 0.73780  0.25870  0.10443  Biso   1.000  C
  C158     1.0000 0.26220  0.25870  0.39557  Biso   1.000  C
  C159     1.0000 0.23780  0.75870  0.10443  Biso   1.000  C
  C160     1.0000 0.76220  0.75870  0.39557  Biso   1.000  C
  C161     1.0000 0.33300  0.69010  0.82240  Biso   1.000  C
  C162     1.0000 0.66700  0.69010  0.67760  Biso   1.000  C
  C163     1.0000 0.83300  0.19010  0.82240  Biso   1.000  C
  C164     1.0000 0.16700  0.19010  0.67760  Biso   1.000  C
  C165     1.0000 0.66700  0.30990  0.17760  Biso   1.000  C
  C166     1.0000 0.33300  0.30990  0.32240  Biso   1.000  C
  C167     1.0000 0.16700  0.80990  0.17760  Biso   1.000  C
  C168     1.0000 0.83300  0.80990  0.32240  Biso   1.000  C
  H129     1.0000 0.30330  0.68950  0.79000  Biso   1.000  H
  H130     1.0000 0.69670  0.68950  0.71000  Biso   1.000  H
  H131     1.0000 0.80330  0.18950  0.79000  Biso   1.000  H
  H132     1.0000 0.19670  0.18950  0.71000  Biso   1.000  H
  H133     1.0000 0.69670  0.31050  0.21000  Biso   1.000  H
  H134     1.0000 0.30330  0.31050  0.29000  Biso   1.000  H
  H135     1.0000 0.19670  0.81050  0.21000  Biso   1.000  H
  H136     1.0000 0.80330  0.81050  0.29000  Biso   1.000  H
  H137     1.0000 0.33500  0.60340  0.83800  Biso   1.000  H
  H138     1.0000 0.66500  0.60340  0.66200  Biso   1.000  H
  H139     1.0000 0.83500  0.10340  0.83800  Biso   1.000  H
  H140     1.0000 0.16500  0.10340  0.66200  Biso   1.000  H
  H141     1.0000 0.66500  0.39660  0.16200  Biso   1.000  H
  H142     1.0000 0.33500  0.39660  0.33800  Biso   1.000  H
  H143     1.0000 0.16500  0.89660  0.16200  Biso   1.000  H
  H144     1.0000 0.83500  0.89660  0.33800  Biso   1.000  H
  C169     1.0000 0.39910  0.73270  0.80590  Biso   1.000  C
  C170     1.0000 0.60090  0.73270  0.69410  Biso   1.000  C
  C171     1.0000 0.89910  0.23270  0.80590  Biso   1.000  C
  C172     1.0000 0.10090  0.23270  0.69410  Biso   1.000  C
  C173     1.0000 0.60090  0.26730  0.19410  Biso   1.000  C
  C174     1.0000 0.39910  0.26730  0.30590  Biso   1.000  C
  C175     1.0000 0.10090  0.76730  0.19410  Biso   1.000  C
  C176     1.0000 0.89910  0.76730  0.30590  Biso   1.000  C
  H145     1.0000 0.39730  0.82130  0.79390  Biso   1.000  H
  H146     1.0000 0.60270  0.82130  0.70610  Biso   1.000  H
  H147     1.0000 0.89730  0.32130  0.79390  Biso   1.000  H
  H148     1.0000 0.10270  0.32130  0.70610  Biso   1.000  H
  H149     1.0000 0.60270  0.17870  0.20610  Biso   1.000  H
  H150     1.0000 0.39730  0.17870  0.29390  Biso   1.000  H
  H151     1.0000 0.10270  0.67870  0.20610  Biso   1.000  H
  H152     1.0000 0.89730  0.67870  0.29390  Biso   1.000  H
  H153     1.0000 0.41330  0.67950  0.77570  Biso   1.000  H
  H154     1.0000 0.58670  0.67950  0.72430  Biso   1.000  H
  H155     1.0000 0.91330  0.17950  0.77570  Biso   1.000  H
  H156     1.0000 0.08670  0.17950  0.72430  Biso   1.000  H
  H157     1.0000 0.58670  0.32050  0.22430  Biso   1.000  H
  H158     1.0000 0.41330  0.32050  0.27570  Biso   1.000  H
  H159     1.0000 0.08670  0.82050  0.22430  Biso   1.000  H
  H160     1.0000 0.91330  0.82050  0.27570  Biso   1.000  H
  H161     1.0000 0.42900  0.72460  0.83740  Biso   1.000  H
  H162     1.0000 0.57100  0.72460  0.66260  Biso   1.000  H
  H163     1.0000 0.92900  0.22460  0.83740  Biso   1.000  H
  H164     1.0000 0.07100  0.22460  0.66260  Biso   1.000  H
  H165     1.0000 0.57100  0.27540  0.16260  Biso   1.000  H
  H166     1.0000 0.42900  0.27540  0.33740  Biso   1.000  H
  H167     1.0000 0.07100  0.77540  0.16260  Biso   1.000  H
  H168     1.0000 0.92900  0.77540  0.33740  Biso   1.000  H
  C177     1.0000 0.18250  0.84170  0.96120  Biso   1.000  C
  C178     1.0000 0.81750  0.84170  0.53880  Biso   1.000  C
  C179     1.0000 0.68250  0.34170  0.96120  Biso   1.000  C
  C180     1.0000 0.31750  0.34170  0.53880  Biso   1.000  C
  C181     1.0000 0.81750  0.15830  0.03880  Biso   1.000  C
  C182     1.0000 0.18250  0.15830  0.46120  Biso   1.000  C
  C183     1.0000 0.31750  0.65830  0.03880  Biso   1.000  C
  C184     1.0000 0.68250  0.65830  0.46120  Biso   1.000  C
  C185     1.0000 0.12940  0.75400  0.94140  Biso   1.000  C
  C186     1.0000 0.87060  0.75400  0.55860  Biso   1.000  C
  C187     1.0000 0.62940  0.25400  0.94140  Biso   1.000  C
  C188     1.0000 0.37060  0.25400  0.55860  Biso   1.000  C
  C189     1.0000 0.87060  0.24600  0.05860  Biso   1.000  C
  C190     1.0000 0.12940  0.24600  0.44140  Biso   1.000  C
  C191     1.0000 0.37060  0.74600  0.05860  Biso   1.000  C
  C192     1.0000 0.62940  0.74600  0.44140  Biso   1.000  C
  H169     1.0000 0.13140  0.67500  0.96250  Biso   1.000  H
  H170     1.0000 0.86860  0.67500  0.53750  Biso   1.000  H
  H171     1.0000 0.63140  0.17500  0.96250  Biso   1.000  H
  H172     1.0000 0.36860  0.17500  0.53750  Biso   1.000  H
  H173     1.0000 0.86860  0.32500  0.03750  Biso   1.000  H
  H174     1.0000 0.13140  0.32500  0.46250  Biso   1.000  H
  H175     1.0000 0.36860  0.82500  0.03750  Biso   1.000  H
  H176     1.0000 0.63140  0.82500  0.46250  Biso   1.000  H
  H177     1.0000 0.13410  0.73510  0.90230  Biso   1.000  H
  H178     1.0000 0.86590  0.73510  0.59770  Biso   1.000  H
  H179     1.0000 0.63410  0.23510  0.90230  Biso   1.000  H
  H180     1.0000 0.36590  0.23510  0.59770  Biso   1.000  H
  H181     1.0000 0.86590  0.26490  0.09770  Biso   1.000  H
  H182     1.0000 0.13410  0.26490  0.40230  Biso   1.000  H
  H183     1.0000 0.36590  0.76490  0.09770  Biso   1.000  H
  H184     1.0000 0.63410  0.76490  0.40230  Biso   1.000  H
  H185     1.0000 0.08820  0.79510  0.94640  Biso   1.000  H
  H186     1.0000 0.91180  0.79510  0.55360  Biso   1.000  H
  H187     1.0000 0.58820  0.29510  0.94640  Biso   1.000  H
  H188     1.0000 0.41180  0.29510  0.55360  Biso   1.000  H
  H189     1.0000 0.91180  0.20490  0.05360  Biso   1.000  H
  H190     1.0000 0.08820  0.20490  0.44640  Biso   1.000  H
  H191     1.0000 0.41180  0.70490  0.05360  Biso   1.000  H
  H192     1.0000 0.58820  0.70490  0.44640  Biso   1.000  H
  N1       1.0000 0.15407  0.37110  0.21099  Biso   1.000  N
  N2       1.0000 0.84593  0.37110  0.28901  Biso   1.000  N
  N3       1.0000 0.65407  0.87110  0.21099  Biso   1.000  N
  N4       1.0000 0.34593  0.87110  0.28901  Biso   1.000  N
  N5       1.0000 0.84593  0.62890  0.78901  Biso   1.000  N
  N6       1.0000 0.15407  0.62890  0.71099  Biso   1.000  N
  N7       1.0000 0.34593  0.12890  0.78901  Biso   1.000  N
  N8       1.0000 0.65407  0.12890  0.71099  Biso   1.000  N
  N9       1.0000 0.29393  0.92550  0.94744  Biso   1.000  N
  N10      1.0000 0.70607  0.92550  0.55256  Biso   1.000  N
  N11      1.0000 0.79393  0.42550  0.94744  Biso   1.000  N
  N12      1.0000 0.20607  0.42550  0.55256  Biso   1.000  N
  N13      1.0000 0.70607  0.07450  0.05256  Biso   1.000  N
  N14      1.0000 0.29393  0.07450  0.44744  Biso   1.000  N
  N15      1.0000 0.20607  0.57450  0.05256  Biso   1.000  N
  N16      1.0000 0.79393  0.57450  0.44744  Biso   1.000  N
  N17      1.0000 0.15735  0.29090  0.17023  Biso   1.000  N
  N18      1.0000 0.84265  0.29090  0.32977  Biso   1.000  N
  N19      1.0000 0.65735  0.79090  0.17023  Biso   1.000  N
  N20      1.0000 0.34265  0.79090  0.32977  Biso   1.000  N
  N21      1.0000 0.84265  0.70910  0.82977  Biso   1.000  N
  N22      1.0000 0.15735  0.70910  0.67023  Biso   1.000  N
  N23      1.0000 0.34265  0.20910  0.82977  Biso   1.000  N
  N24      1.0000 0.65735  0.20910  0.67023  Biso   1.000  N
  N25      1.0000 0.28893  0.01500  0.98508  Biso   1.000  N
  N26      1.0000 0.71107  0.01500  0.51492  Biso   1.000  N
  N27      1.0000 0.78893  0.51500  0.98508  Biso   1.000  N
  N28      1.0000 0.21107  0.51500  0.51492  Biso   1.000  N
  N29      1.0000 0.71107  0.98500  0.01492  Biso   1.000  N
  N30      1.0000 0.28893  0.98500  0.48508  Biso   1.000  N
  N31      1.0000 0.21107  0.48500  0.01492  Biso   1.000  N
  N32      1.0000 0.78893  0.48500  0.48508  Biso   1.000  N
  O1       1.0000 0.27693  0.39400  0.15363  Biso   1.000  O
  O2       1.0000 0.72307  0.39400  0.34637  Biso   1.000  O
  O3       1.0000 0.77693  0.89400  0.15363  Biso   1.000  O
  O4       1.0000 0.22307  0.89400  0.34637  Biso   1.000  O
  O5       1.0000 0.72307  0.60600  0.84637  Biso   1.000  O
  O6       1.0000 0.27693  0.60600  0.65363  Biso   1.000  O
  O7       1.0000 0.22307  0.10600  0.84637  Biso   1.000  O
  O8       1.0000 0.77693  0.10600  0.65363  Biso   1.000  O
  O9       1.0000 0.22793  0.61040  0.29630  Biso   1.000  O
  O10      1.0000 0.77207  0.61040  0.20370  Biso   1.000  O
  O11      1.0000 0.72793  0.11040  0.29630  Biso   1.000  O
  O12      1.0000 0.27207  0.11040  0.20370  Biso   1.000  O
  O13      1.0000 0.77207  0.38960  0.70370  Biso   1.000  O
  O14      1.0000 0.22793  0.38960  0.79630  Biso   1.000  O
  O15      1.0000 0.27207  0.88960  0.70370  Biso   1.000  O
  O16      1.0000 0.72793  0.88960  0.79630  Biso   1.000  O
  O17      1.0000 0.13213  0.50550  0.29415  Biso   1.000  O
  O18      1.0000 0.86787  0.50550  0.20585  Biso   1.000  O
  O19      1.0000 0.63213  0.00550  0.29415  Biso   1.000  O
  O20      1.0000 0.36787  0.00550  0.20585  Biso   1.000  O
  O21      1.0000 0.86787  0.49450  0.70585  Biso   1.000  O
  O22      1.0000 0.13213  0.49450  0.79415  Biso   1.000  O
  O23      1.0000 0.36787  0.99450  0.70585  Biso   1.000  O
  O24      1.0000 0.63213  0.99450  0.79415  Biso   1.000  O
  O25      1.0000 0.16726  0.91860  0.00015  Biso   1.000  O
  O26      1.0000 0.83274  0.91860  0.49985  Biso   1.000  O
  O27      1.0000 0.66726  0.41860  0.00015  Biso   1.000  O
  O28      1.0000 0.33274  0.41860  0.49985  Biso   1.000  O
  O29      1.0000 0.83274  0.08140  0.99985  Biso   1.000  O
  O30      1.0000 0.16726  0.08140  0.50015  Biso   1.000  O
  O31      1.0000 0.33274  0.58140  0.99985  Biso   1.000  O
  O32      1.0000 0.66726  0.58140  0.50015  Biso   1.000  O
  O33      1.0000 0.23683  0.63550  0.89064  Biso   1.000  O
  O34      1.0000 0.76317  0.63550  0.60936  Biso   1.000  O
  O35      1.0000 0.73683  0.13550  0.89064  Biso   1.000  O
  O36      1.0000 0.26317  0.13550  0.60936  Biso   1.000  O
  O37      1.0000 0.76317  0.36450  0.10936  Biso   1.000  O
  O38      1.0000 0.23683  0.36450  0.39064  Biso   1.000  O
  O39      1.0000 0.26317  0.86450  0.10936  Biso   1.000  O
  O40      1.0000 0.73683  0.86450  0.39064  Biso   1.000  O
  O41      1.0000 0.31092  0.78000  0.86374  Biso   1.000  O
  O42      1.0000 0.68908  0.78000  0.63626  Biso   1.000  O
  O43      1.0000 0.81092  0.28000  0.86374  Biso   1.000  O
  O44      1.0000 0.18908  0.28000  0.63626  Biso   1.000  O
  O45      1.0000 0.68908  0.22000  0.13626  Biso   1.000  O
  O46      1.0000 0.31092  0.22000  0.36374  Biso   1.000  O
  O47      1.0000 0.18908  0.72000  0.13626  Biso   1.000  O
  O48      1.0000 0.81092  0.72000  0.36374  Biso   1.000  O
  O49      1.0000 0.17033  0.11860  0.09385  Biso   1.000  O
  O50      1.0000 0.82967  0.11860  0.40615  Biso   1.000  O
  O51      1.0000 0.67033  0.61860  0.09385  Biso   1.000  O
  O52      1.0000 0.32967  0.61860  0.40615  Biso   1.000  O
  O53      1.0000 0.82967  0.88140  0.90615  Biso   1.000  O
  O54      1.0000 0.17033  0.88140  0.59385  Biso   1.000  O
  O55      1.0000 0.32967  0.38140  0.90615  Biso   1.000  O
  O56      1.0000 0.67033  0.38140  0.59385  Biso   1.000  O
  O57      1.0000 0.27555  0.19160  0.06023  Biso   1.000  O
  O58      1.0000 0.72445  0.19160  0.43977  Biso   1.000  O
  O59      1.0000 0.77555  0.69160  0.06023  Biso   1.000  O
  O60      1.0000 0.22445  0.69160  0.43977  Biso   1.000  O
  O61      1.0000 0.72445  0.80840  0.93977  Biso   1.000  O
  O62      1.0000 0.27555  0.80840  0.56023  Biso   1.000  O
  O63      1.0000 0.22445  0.30840  0.93977  Biso   1.000  O
  O64      1.0000 0.77555  0.30840  0.56023  Biso   1.000  O
  Cu1      1.0000 0.22822  0.25159  0.12474  Biso   1.000  Cu
  Cu2      1.0000 0.77178  0.25159  0.37526  Biso   1.000  Cu
  Cu3      1.0000 0.72822  0.75159  0.12474  Biso   1.000  Cu
  Cu4      1.0000 0.27178  0.75159  0.37526  Biso   1.000  Cu
  Cu5      1.0000 0.77178  0.74841  0.87526  Biso   1.000  Cu
  Cu6      1.0000 0.22822  0.74841  0.62474  Biso   1.000  Cu
  Cu7      1.0000 0.27178  0.24841  0.87526  Biso   1.000  Cu
  Cu8      1.0000 0.72822  0.24841  0.62474  Biso   1.000  Cu
  Cu9      1.0000 0.22026  0.04840  0.03395  Biso   1.000  Cu
  Cu10     1.0000 0.77974  0.04840  0.46605  Biso   1.000  Cu
  Cu11     1.0000 0.72026  0.54840  0.03395  Biso   1.000  Cu
  Cu12     1.0000 0.27974  0.54840  0.46605  Biso   1.000  Cu
  Cu13     1.0000 0.77974  0.95160  0.96605  Biso   1.000  Cu
  Cu14     1.0000 0.22026  0.95160  0.53395  Biso   1.000  Cu
  Cu15     1.0000 0.27974  0.45160  0.96605  Biso   1.000  Cu
  Cu16     1.0000 0.72026  0.45160  0.53395  Biso   1.000  Cu
