data_image0
_cell_length_a       9.8153
_cell_length_b       15.232
_cell_length_c       9.3858
_cell_angle_alpha    90
_cell_angle_beta     90.938
_cell_angle_gamma    90

_symmetry_space_group_name_H-M    "P 1"
_symmetry_int_tables_number       1

loop_
  _symmetry_equiv_pos_as_xyz
  'x, y, z'

loop_
  _atom_site_label
  _atom_site_occupancy
  _atom_site_fract_x
  _atom_site_fract_y
  _atom_site_fract_z
  _atom_site_thermal_displace_type
  _atom_site_B_iso_or_equiv
  _atom_site_type_symbol
  C1       1.0000 0.00690  0.81790  0.81890  Biso   1.000  C
  C2       1.0000 0.99310  0.31790  0.68110  Biso   1.000  C
  C3       1.0000 0.99310  0.18210  0.18110  Biso   1.000  C
  C4       1.0000 0.00690  0.68210  0.31890  Biso   1.000  C
  C5       1.0000 0.95340  0.73590  0.86850  Biso   1.000  C
  C6       1.0000 0.04660  0.23590  0.63150  Biso   1.000  C
  C7       1.0000 0.04660  0.26410  0.13150  Biso   1.000  C
  C8       1.0000 0.95340  0.76410  0.36850  Biso   1.000  C
  C9       1.0000 0.00130  0.65680  0.81410  Biso   1.000  C
  C10      1.0000 0.99870  0.15680  0.68590  Biso   1.000  C
  C11      1.0000 0.99870  0.34320  0.18590  Biso   1.000  C
  C12      1.0000 0.00130  0.84320  0.31410  Biso   1.000  C
  H1       1.0000 0.96610  0.60400  0.84720  Biso   1.000  H
  H2       1.0000 0.03390  0.10400  0.65280  Biso   1.000  H
  H3       1.0000 0.03390  0.39600  0.15280  Biso   1.000  H
  H4       1.0000 0.96610  0.89600  0.34720  Biso   1.000  H
  C13      1.0000 0.10060  0.65590  0.71180  Biso   1.000  C
  C14      1.0000 0.89940  0.15590  0.78820  Biso   1.000  C
  C15      1.0000 0.89940  0.34410  0.28820  Biso   1.000  C
  C16      1.0000 0.10060  0.84410  0.21180  Biso   1.000  C
  H5       1.0000 0.13300  0.60320  0.67560  Biso   1.000  H
  H6       1.0000 0.86700  0.10320  0.82440  Biso   1.000  H
  H7       1.0000 0.86700  0.39680  0.32440  Biso   1.000  H
  H8       1.0000 0.13300  0.89680  0.17560  Biso   1.000  H
  C17      1.0000 0.15080  0.73530  0.66420  Biso   1.000  C
  C18      1.0000 0.84920  0.23530  0.83580  Biso   1.000  C
  C19      1.0000 0.84920  0.26470  0.33580  Biso   1.000  C
  C20      1.0000 0.15080  0.76470  0.16420  Biso   1.000  C
  C21      1.0000 0.10470  0.81630  0.71460  Biso   1.000  C
  C22      1.0000 0.89530  0.31630  0.78540  Biso   1.000  C
  C23      1.0000 0.89530  0.18370  0.28540  Biso   1.000  C
  C24      1.0000 0.10470  0.68370  0.21460  Biso   1.000  C
  H9       1.0000 0.13940  0.86840  0.67840  Biso   1.000  H
  H10      1.0000 0.86060  0.36840  0.82160  Biso   1.000  H
  H11      1.0000 0.86060  0.13160  0.32160  Biso   1.000  H
  H12      1.0000 0.13940  0.63160  0.17840  Biso   1.000  H
  C25      1.0000 0.52190  0.74530  0.28040  Biso   1.000  C
  C26      1.0000 0.47810  0.24530  0.21960  Biso   1.000  C
  C27      1.0000 0.47810  0.25470  0.71960  Biso   1.000  C
  C28      1.0000 0.52190  0.75470  0.78040  Biso   1.000  C
  H13      1.0000 0.55220  0.74650  0.37810  Biso   1.000  H
  H14      1.0000 0.44780  0.24650  0.12190  Biso   1.000  H
  H15      1.0000 0.44780  0.25350  0.62190  Biso   1.000  H
  H16      1.0000 0.55220  0.75350  0.87810  Biso   1.000  H
  H17      1.0000 0.47890  0.69000  0.26020  Biso   1.000  H
  H18      1.0000 0.52110  0.19000  0.23980  Biso   1.000  H
  H19      1.0000 0.52110  0.31000  0.73980  Biso   1.000  H
  H20      1.0000 0.47890  0.81000  0.76020  Biso   1.000  H
  H21      1.0000 0.45780  0.79200  0.26380  Biso   1.000  H
  H22      1.0000 0.54220  0.29200  0.23620  Biso   1.000  H
  H23      1.0000 0.54220  0.20800  0.73620  Biso   1.000  H
  H24      1.0000 0.45780  0.70800  0.76380  Biso   1.000  H
  C29      1.0000 0.64200  0.75710  0.18490  Biso   1.000  C
  C30      1.0000 0.35800  0.25710  0.31510  Biso   1.000  C
  C31      1.0000 0.35800  0.24290  0.81510  Biso   1.000  C
  C32      1.0000 0.64200  0.74290  0.68490  Biso   1.000  C
  C33      1.0000 0.71020  0.67930  0.12950  Biso   1.000  C
  C34      1.0000 0.28980  0.17930  0.37050  Biso   1.000  C
  C35      1.0000 0.28980  0.32070  0.87050  Biso   1.000  C
  C36      1.0000 0.71020  0.82070  0.62950  Biso   1.000  C
  C37      1.0000 0.68220  0.59050  0.18940  Biso   1.000  C
  C38      1.0000 0.31780  0.09050  0.31060  Biso   1.000  C
  C39      1.0000 0.31780  0.40950  0.81060  Biso   1.000  C
  C40      1.0000 0.68220  0.90950  0.68940  Biso   1.000  C
  C41      1.0000 0.71280  0.51180  0.10040  Biso   1.000  C
  C42      1.0000 0.28720  0.01180  0.39960  Biso   1.000  C
  C43      1.0000 0.28720  0.48820  0.89960  Biso   1.000  C
  C44      1.0000 0.71280  0.98820  0.60040  Biso   1.000  C
  H25      1.0000 0.80970  0.50590  0.09120  Biso   1.000  H
  H26      1.0000 0.19030  0.00590  0.40880  Biso   1.000  H
  H27      1.0000 0.19030  0.49410  0.90880  Biso   1.000  H
  H28      1.0000 0.80970  0.99410  0.59120  Biso   1.000  H
  H29      1.0000 0.67150  0.51870  0.00770  Biso   1.000  H
  H30      1.0000 0.32850  0.01870  0.49230  Biso   1.000  H
  H31      1.0000 0.32850  0.48130  0.99230  Biso   1.000  H
  H32      1.0000 0.67150  0.98130  0.50770  Biso   1.000  H
  H33      1.0000 0.67700  0.46020  0.14510  Biso   1.000  H
  H34      1.0000 0.32300  0.96020  0.35490  Biso   1.000  H
  H35      1.0000 0.32300  0.53980  0.85490  Biso   1.000  H
  H36      1.0000 0.67700  0.03980  0.64510  Biso   1.000  H
  C45      1.0000 0.70960  0.99040  0.20210  Biso   1.000  C
  C46      1.0000 0.29040  0.49040  0.29790  Biso   1.000  C
  C47      1.0000 0.29040  0.00960  0.79790  Biso   1.000  C
  C48      1.0000 0.70960  0.50960  0.70210  Biso   1.000  C
  H37      1.0000 0.66080  0.04540  0.21090  Biso   1.000  H
  H38      1.0000 0.33920  0.54540  0.28910  Biso   1.000  H
  H39      1.0000 0.33920  0.95460  0.78910  Biso   1.000  H
  H40      1.0000 0.66080  0.45460  0.71090  Biso   1.000  H
  H41      1.0000 0.76900  0.98380  0.28500  Biso   1.000  H
  H42      1.0000 0.23100  0.48380  0.21500  Biso   1.000  H
  H43      1.0000 0.23100  0.01620  0.71500  Biso   1.000  H
  H44      1.0000 0.76900  0.51620  0.78500  Biso   1.000  H
  C49      1.0000 0.60910  0.91480  0.19500  Biso   1.000  C
  C50      1.0000 0.39090  0.41480  0.30500  Biso   1.000  C
  C51      1.0000 0.39090  0.08520  0.80500  Biso   1.000  C
  C52      1.0000 0.60910  0.58520  0.69500  Biso   1.000  C
  H45      1.0000 0.57060  0.90490  0.28820  Biso   1.000  H
  H46      1.0000 0.42940  0.40490  0.21180  Biso   1.000  H
  H47      1.0000 0.42940  0.09510  0.71180  Biso   1.000  H
  H48      1.0000 0.57060  0.59510  0.78820  Biso   1.000  H
  H49      1.0000 0.53530  0.92860  0.12870  Biso   1.000  H
  H50      1.0000 0.46470  0.42860  0.37130  Biso   1.000  H
  H51      1.0000 0.46470  0.07140  0.87130  Biso   1.000  H
  H52      1.0000 0.53530  0.57140  0.62870  Biso   1.000  H
  N1       1.0000 0.85420  0.74670  0.97130  Biso   1.000  N
  N2       1.0000 0.14580  0.24670  0.52870  Biso   1.000  N
  N3       1.0000 0.14580  0.25330  0.02870  Biso   1.000  N
  N4       1.0000 0.85420  0.75330  0.47130  Biso   1.000  N
  N5       1.0000 0.80210  0.67560  0.02660  Biso   1.000  N
  N6       1.0000 0.19790  0.17560  0.47340  Biso   1.000  N
  N7       1.0000 0.19790  0.32440  0.97340  Biso   1.000  N
  N8       1.0000 0.80210  0.82440  0.52660  Biso   1.000  N
  N9       1.0000 0.25870  0.73630  0.55890  Biso   1.000  N
  N10      1.0000 0.74130  0.23630  0.94110  Biso   1.000  N
  N11      1.0000 0.74130  0.26370  0.44110  Biso   1.000  N
  N12      1.0000 0.25870  0.76370  0.05890  Biso   1.000  N
  N13      1.0000 0.79180  0.99140  0.07120  Biso   1.000  N
  N14      1.0000 0.20820  0.49140  0.42880  Biso   1.000  N
  N15      1.0000 0.20820  0.00860  0.92880  Biso   1.000  N
  N16      1.0000 0.79180  0.50860  0.57120  Biso   1.000  N
  H53      1.0000 0.87170  0.01890  0.08780  Biso   1.000  H
  H54      1.0000 0.12830  0.51890  0.41220  Biso   1.000  H
  H55      1.0000 0.12830  0.98110  0.91220  Biso   1.000  H
  H56      1.0000 0.87170  0.48110  0.58780  Biso   1.000  H
  H57      1.0000 0.74680  0.01990  0.00080  Biso   1.000  H
  H58      1.0000 0.25320  0.51990  0.49920  Biso   1.000  H
  H59      1.0000 0.25320  0.98010  0.99920  Biso   1.000  H
  H60      1.0000 0.74680  0.48010  0.50080  Biso   1.000  H
  N17      1.0000 0.68170  0.83560  0.14750  Biso   1.000  N
  N18      1.0000 0.31830  0.33560  0.35250  Biso   1.000  N
  N19      1.0000 0.31830  0.16440  0.85250  Biso   1.000  N
  N20      1.0000 0.68170  0.66440  0.64750  Biso   1.000  N
  O1       1.0000 0.63910  0.57968  0.30940  Biso   1.000  O
  O2       1.0000 0.36090  0.07968  0.19060  Biso   1.000  O
  O3       1.0000 0.36090  0.42032  0.69060  Biso   1.000  O
  O4       1.0000 0.63910  0.92032  0.80940  Biso   1.000  O
  O5       1.0000 0.30950  0.66550  0.52370  Biso   1.000  O
  O6       1.0000 0.69050  0.16550  0.97630  Biso   1.000  O
  O7       1.0000 0.69050  0.33450  0.47630  Biso   1.000  O
  O8       1.0000 0.30950  0.83450  0.02370  Biso   1.000  O
  O9       1.0000 0.29830  0.80760  0.51300  Biso   1.000  O
  O10      1.0000 0.70170  0.30760  0.98700  Biso   1.000  O
  O11      1.0000 0.70170  0.19240  0.48700  Biso   1.000  O
  O12      1.0000 0.29830  0.69240  0.01300  Biso   1.000  O
  O13      1.0000 0.96240  0.89229  0.87640  Biso   1.000  O
  O14      1.0000 0.03760  0.39229  0.62360  Biso   1.000  O
  O15      1.0000 0.03760  0.10771  0.12360  Biso   1.000  O
  O16      1.0000 0.96240  0.60771  0.37640  Biso   1.000  O
  Cu1      1.0000 0.82396  0.86707  0.01619  Biso   1.000  Cu
  Cu2      1.0000 0.17604  0.36707  0.48381  Biso   1.000  Cu
  Cu3      1.0000 0.17604  0.13293  0.98381  Biso   1.000  Cu
  Cu4      1.0000 0.82396  0.63293  0.51619  Biso   1.000  Cu
