data_image0
_cell_length_a       10.6219
_cell_length_b       10.7426
_cell_length_c       12.0397
_cell_angle_alpha    79.203
_cell_angle_beta     89.039
_cell_angle_gamma    89.814

_symmetry_space_group_name_H-M    "P 1"
_symmetry_int_tables_number       1

loop_
  _symmetry_equiv_pos_as_xyz
  'x, y, z'

loop_
  _atom_site_label
  _atom_site_occupancy
  _atom_site_fract_x
  _atom_site_fract_y
  _atom_site_fract_z
  _atom_site_thermal_displace_type
  _atom_site_B_iso_or_equiv
  _atom_site_type_symbol
  C1       1.0000 0.47580  0.27830  0.20070  Biso   1.000  C
  C2       1.0000 0.52420  0.72170  0.79930  Biso   1.000  C
  H1       1.0000 0.49740  0.19830  0.17900  Biso   1.000  H
  H2       1.0000 0.50260  0.80170  0.82100  Biso   1.000  H
  H3       1.0000 0.44380  0.33400  0.13440  Biso   1.000  H
  H4       1.0000 0.55620  0.66600  0.86560  Biso   1.000  H
  C3       1.0000 0.34760  0.37960  0.33550  Biso   1.000  C
  C4       1.0000 0.65240  0.62040  0.66450  Biso   1.000  C
  H5       1.0000 0.42730  0.40870  0.35930  Biso   1.000  H
  H6       1.0000 0.57270  0.59130  0.64070  Biso   1.000  H
  H7       1.0000 0.31790  0.44330  0.27340  Biso   1.000  H
  H8       1.0000 0.68210  0.55670  0.72660  Biso   1.000  H
  Cu1      1.0000 0.19190  0.34800  0.77387  Biso   1.000  Cu
  Cu2      1.0000 0.80810  0.65200  0.22613  Biso   1.000  Cu
  O1       1.0000 0.37700  0.21900  0.78760  Biso   1.000  O
  O2       1.0000 0.62300  0.78100  0.21240  Biso   1.000  O
  O3       1.0000 0.42210  0.01690  0.78000  Biso   1.000  O
  O4       1.0000 0.57790  0.98310  0.22000  Biso   1.000  O
  O5       1.0000 0.97030  0.36520  0.78400  Biso   1.000  O
  O6       1.0000 0.02970  0.63480  0.21600  Biso   1.000  O
  O7       1.0000 0.80920  0.23960  0.84900  Biso   1.000  O
  O8       1.0000 0.19080  0.76040  0.15100  Biso   1.000  O
  C5       1.0000 0.15400  0.94500  0.51200  Biso   1.000  C
  C6       1.0000 0.84600  0.05500  0.48800  Biso   1.000  C
  H9       1.0000 0.08230  0.92300  0.55690  Biso   1.000  H
  H10      1.0000 0.91770  0.07700  0.44310  Biso   1.000  H
  N1       1.0000 0.31650  0.04920  0.43060  Biso   1.000  N
  N2       1.0000 0.68350  0.95080  0.56940  Biso   1.000  N
  N3       1.0000 0.21930  0.29180  0.12690  Biso   1.000  N
  N4       1.0000 0.78070  0.70820  0.87310  Biso   1.000  N
  N5       1.0000 0.19850  0.34800  0.94180  Biso   1.000  N
  N6       1.0000 0.80150  0.65200  0.05820  Biso   1.000  N
  N7       1.0000 0.25680  0.36940  0.42970  Biso   1.000  N
  N8       1.0000 0.74320  0.63060  0.57030  Biso   1.000  N
  N9       1.0000 0.18580  0.35500  0.60490  Biso   1.000  N
  N10      1.0000 0.81420  0.64500  0.39510  Biso   1.000  N
  N11      1.0000 0.73020  0.48030  0.25290  Biso   1.000  N
  N12      1.0000 0.26980  0.51970  0.74710  Biso   1.000  N
  N13      1.0000 0.59030  0.33420  0.23590  Biso   1.000  N
  N14      1.0000 0.40970  0.66580  0.76410  Biso   1.000  N
  N15      1.0000 0.12880  0.16710  0.80660  Biso   1.000  N
  N16      1.0000 0.87120  0.83290  0.19340  Biso   1.000  N
  C7       1.0000 0.21110  0.07120  0.81390  Biso   1.000  C
  C8       1.0000 0.78890  0.92880  0.18610  Biso   1.000  C
  C9       1.0000 0.15700  0.96000  0.84100  Biso   1.000  C
  C10      1.0000 0.84300  0.04000  0.15900  Biso   1.000  C
  H11      1.0000 0.21400  0.89370  0.84560  Biso   1.000  H
  H12      1.0000 0.78600  0.10630  0.15440  Biso   1.000  H
  C11      1.0000 0.04300  0.92000  0.86400  Biso   1.000  C
  C12      1.0000 0.95700  0.08000  0.13600  Biso   1.000  C
  H13      1.0000 0.02000  0.83540  0.88270  Biso   1.000  H
  H14      1.0000 0.98000  0.16460  0.11730  Biso   1.000  H
  C13      1.0000 0.96100  0.02000  0.85600  Biso   1.000  C
  C14      1.0000 0.03900  0.98000  0.14400  Biso   1.000  C
  H15      1.0000 0.87510  0.00520  0.87070  Biso   1.000  H
  H16      1.0000 0.12490  0.99480  0.12930  Biso   1.000  H
  C15      1.0000 0.00550  0.14290  0.82640  Biso   1.000  C
  C16      1.0000 0.99450  0.85710  0.17360  Biso   1.000  C
  C17      1.0000 0.34780  0.10500  0.79200  Biso   1.000  C
  C18      1.0000 0.65220  0.89500  0.20800  Biso   1.000  C
  C19      1.0000 0.92780  0.24700  0.82100  Biso   1.000  C
  C20      1.0000 0.07220  0.75300  0.17900  Biso   1.000  C
  C21      1.0000 0.24020  0.25950  0.02430  Biso   1.000  C
  C22      1.0000 0.75980  0.74050  0.97570  Biso   1.000  C
  H17      1.0000 0.27900  0.18480  0.01360  Biso   1.000  H
  H18      1.0000 0.72100  0.81520  0.98640  Biso   1.000  H
  C23      1.0000 0.14990  0.44230  0.99290  Biso   1.000  C
  C24      1.0000 0.85010  0.55770  0.00710  Biso   1.000  C
  H19      1.0000 0.11520  0.51790  0.95540  Biso   1.000  H
  H20      1.0000 0.88480  0.48210  0.04460  Biso   1.000  H
  C25      1.0000 0.16070  0.40740  0.10720  Biso   1.000  C
  C26      1.0000 0.83930  0.59260  0.89280  Biso   1.000  C
  H21      1.0000 0.13350  0.45330  0.16130  Biso   1.000  H
  H22      1.0000 0.86650  0.54670  0.83870  Biso   1.000  H
  C27      1.0000 0.25330  0.21040  0.23390  Biso   1.000  C
  C28      1.0000 0.74670  0.78960  0.76610  Biso   1.000  C
  H23      1.0000 0.26910  0.12560  0.22010  Biso   1.000  H
  H24      1.0000 0.73090  0.87440  0.77990  Biso   1.000  H
  H25      1.0000 0.18190  0.20560  0.28580  Biso   1.000  H
  H26      1.0000 0.81810  0.79440  0.71420  Biso   1.000  H
  C29      1.0000 0.37020  0.25470  0.29180  Biso   1.000  C
  C30      1.0000 0.62980  0.74530  0.70820  Biso   1.000  C
  C31      1.0000 0.41050  0.14550  0.38920  Biso   1.000  C
  C32      1.0000 0.58950  0.85450  0.61080  Biso   1.000  C
  H27      1.0000 0.48350  0.10380  0.36320  Biso   1.000  H
  H28      1.0000 0.51650  0.89620  0.63680  Biso   1.000  H
  H29      1.0000 0.43680  0.18300  0.45230  Biso   1.000  H
  H30      1.0000 0.56320  0.81700  0.54770  Biso   1.000  H
  C33      1.0000 0.30600  0.93900  0.39400  Biso   1.000  C
  C34      1.0000 0.69400  0.06100  0.60600  Biso   1.000  C
  H31      1.0000 0.36030  0.91290  0.34180  Biso   1.000  H
  H32      1.0000 0.63970  0.08710  0.65820  Biso   1.000  H
  N17      1.0000 0.20700  0.87100  0.44100  Biso   1.000  N
  N18      1.0000 0.79300  0.12900  0.55900  Biso   1.000  N
  C35      1.0000 0.21900  0.05200  0.50600  Biso   1.000  C
  C36      1.0000 0.78100  0.94800  0.49400  Biso   1.000  C
  H33      1.0000 0.20200  0.11640  0.54610  Biso   1.000  H
  H34      1.0000 0.79800  0.88360  0.45390  Biso   1.000  H
  C37      1.0000 0.62430  0.45510  0.20390  Biso   1.000  C
  C38      1.0000 0.37570  0.54490  0.79610  Biso   1.000  C
  H35      1.0000 0.57950  0.51460  0.15350  Biso   1.000  H
  H36      1.0000 0.42050  0.48540  0.84650  Biso   1.000  H
  C39      1.0000 0.68020  0.27700  0.31120  Biso   1.000  C
  C40      1.0000 0.31980  0.72300  0.68880  Biso   1.000  C
  H37      1.0000 0.68270  0.19230  0.34740  Biso   1.000  H
  H38      1.0000 0.31730  0.80770  0.65260  Biso   1.000  H
  C41      1.0000 0.76200  0.36800  0.32090  Biso   1.000  C
  C42      1.0000 0.23800  0.63200  0.67910  Biso   1.000  C
  H39      1.0000 0.83210  0.35700  0.36760  Biso   1.000  H
  H40      1.0000 0.16790  0.64300  0.63240  Biso   1.000  H
  C43      1.0000 0.08600  0.35800  0.53600  Biso   1.000  C
  C44      1.0000 0.91400  0.64200  0.46400  Biso   1.000  C
  H41      1.0000 0.00200  0.35400  0.55940  Biso   1.000  H
  H42      1.0000 0.99800  0.64600  0.44060  Biso   1.000  H
  C45      1.0000 0.12700  0.36700  0.42820  Biso   1.000  C
  C46      1.0000 0.87300  0.63300  0.57180  Biso   1.000  C
  H43      1.0000 0.07710  0.37190  0.36480  Biso   1.000  H
  H44      1.0000 0.92290  0.62810  0.63520  Biso   1.000  H
  C47      1.0000 0.28700  0.36310  0.53740  Biso   1.000  C
  C48      1.0000 0.71300  0.63690  0.46260  Biso   1.000  C
  H45      1.0000 0.36920  0.36420  0.56260  Biso   1.000  H
  H46      1.0000 0.63080  0.63580  0.43740  Biso   1.000  H
  O9       1.0000 0.58100  0.34100  0.61400  Biso   1.000  O
  O10      1.0000 0.41900  0.65900  0.38600  Biso   1.000  O
  H47      1.0000 0.54920  0.33340  0.68040  Biso   1.000  H
  H48      1.0000 0.45080  0.66660  0.31960  Biso   1.000  H
  H49      1.0000 0.66060  0.34120  0.60510  Biso   1.000  H
  H50      1.0000 0.33940  0.65880  0.39490  Biso   1.000  H
  O11      1.0000 0.35880  0.98280  0.08410  Biso   1.000  O
  O12      1.0000 0.64120  0.01720  0.91590  Biso   1.000  O
  H51      1.0000 0.34240  0.92000  0.05300  Biso   1.000  H
  H52      1.0000 0.65760  0.08000  0.94700  Biso   1.000  H
  H53      1.0000 0.37740  0.95630  0.15290  Biso   1.000  H
  H54      1.0000 0.62260  0.04370  0.84710  Biso   1.000  H
  O13      1.0000 0.57800  0.33700  0.91500  Biso   1.000  O
  O14      1.0000 0.42200  0.66300  0.08500  Biso   1.000  O
  H55      1.0000 0.59380  0.27460  0.88240  Biso   1.000  H
  H56      1.0000 0.40620  0.72540  0.11760  Biso   1.000  H
  H57      1.0000 0.63790  0.38060  0.93340  Biso   1.000  H
  H58      1.0000 0.36210  0.61940  0.06660  Biso   1.000  H
