data_image0
_cell_length_a       9.9344
_cell_length_b       6.9602
_cell_length_c       12.1272
_cell_angle_alpha    90
_cell_angle_beta     92.614
_cell_angle_gamma    90

_symmetry_space_group_name_H-M    "P 1"
_symmetry_int_tables_number       1

loop_
  _symmetry_equiv_pos_as_xyz
  'x, y, z'

loop_
  _atom_site_label
  _atom_site_occupancy
  _atom_site_fract_x
  _atom_site_fract_y
  _atom_site_fract_z
  _atom_site_thermal_displace_type
  _atom_site_B_iso_or_equiv
  _atom_site_type_symbol
  Cu1      1.0000 0.82637  0.40144  0.25900  Biso   1.000  Cu
  Cu2      1.0000 0.17363  0.90144  0.74100  Biso   1.000  Cu
  O1       1.0000 0.90040  0.35310  0.11950  Biso   1.000  O
  O2       1.0000 0.09960  0.85310  0.88050  Biso   1.000  O
  O3       1.0000 0.85050  0.72120  0.23470  Biso   1.000  O
  O4       1.0000 0.14950  0.22120  0.76530  Biso   1.000  O
  N1       1.0000 0.01700  0.41060  0.32950  Biso   1.000  N
  N2       1.0000 0.98300  0.91060  0.67050  Biso   1.000  N
  N3       1.0000 0.78290  0.42780  0.41870  Biso   1.000  N
  N4       1.0000 0.21710  0.92780  0.58130  Biso   1.000  N
  O5       1.0000 0.64040  0.33410  0.20870  Biso   1.000  O
  O6       1.0000 0.35960  0.83410  0.79130  Biso   1.000  O
  P1       1.0000 0.87013  0.27973  0.00421  Biso   1.000  P
  P2       1.0000 0.12987  0.77973  0.99579  Biso   1.000  P
  H1       1.0000 0.77410  0.77110  0.21810  Biso   1.000  H
  H2       1.0000 0.22590  0.27110  0.78190  Biso   1.000  H
  H3       1.0000 0.90380  0.74090  0.18300  Biso   1.000  H
  H4       1.0000 0.09620  0.24090  0.81700  Biso   1.000  H
  C1       1.0000 0.12930  0.41590  0.27550  Biso   1.000  C
  C2       1.0000 0.87070  0.91590  0.72450  Biso   1.000  C
  C3       1.0000 0.02170  0.42450  0.43990  Biso   1.000  C
  C4       1.0000 0.97830  0.92450  0.56010  Biso   1.000  C
  C5       1.0000 0.89150  0.42780  0.49130  Biso   1.000  C
  C6       1.0000 0.10850  0.92780  0.50870  Biso   1.000  C
  C7       1.0000 0.65990  0.43100  0.45720  Biso   1.000  C
  C8       1.0000 0.34010  0.93100  0.54280  Biso   1.000  C
  C9       1.0000 0.71710  0.38650  0.94660  Biso   1.000  C
  C10      1.0000 0.28290  0.88650  0.05340  Biso   1.000  C
  O7       1.0000 0.83510  0.06210  0.00180  Biso   1.000  O
  O8       1.0000 0.16490  0.56210  0.99820  Biso   1.000  O
  O9       1.0000 0.98260  0.32700  0.93040  Biso   1.000  O
  O10      1.0000 0.01740  0.82700  0.06960  Biso   1.000  O
  H5       1.0000 0.12340  0.40710  0.19640  Biso   1.000  H
  H6       1.0000 0.87660  0.90710  0.80360  Biso   1.000  H
  C11      1.0000 0.25470  0.43010  0.32930  Biso   1.000  C
  C12      1.0000 0.74530  0.93010  0.67070  Biso   1.000  C
  C13      1.0000 0.14530  0.44060  0.49910  Biso   1.000  C
  C14      1.0000 0.85470  0.94060  0.50090  Biso   1.000  C
  C15      1.0000 0.87370  0.43420  0.60360  Biso   1.000  C
  C16      1.0000 0.12630  0.93420  0.39640  Biso   1.000  C
  C17      1.0000 0.63700  0.44150  0.56850  Biso   1.000  C
  C18      1.0000 0.36300  0.94150  0.43150  Biso   1.000  C
  H7       1.0000 0.58390  0.42290  0.40560  Biso   1.000  H
  H8       1.0000 0.41610  0.92290  0.59440  Biso   1.000  H
  C19      1.0000 0.61640  0.27460  0.89590  Biso   1.000  C
  C20      1.0000 0.38360  0.77460  0.10410  Biso   1.000  C
  C21      1.0000 0.70310  0.58370  0.94690  Biso   1.000  C
  C22      1.0000 0.29690  0.08370  0.05310  Biso   1.000  C
  H9       1.0000 0.90310  0.99830  0.02610  Biso   1.000  H
  H10      1.0000 0.09690  0.49830  0.97390  Biso   1.000  H
  H11      1.0000 0.33510  0.43180  0.28840  Biso   1.000  H
  H12      1.0000 0.66490  0.93180  0.71160  Biso   1.000  H
  C23      1.0000 0.26030  0.44320  0.44280  Biso   1.000  C
  C24      1.0000 0.73970  0.94320  0.55720  Biso   1.000  C
  H13      1.0000 0.14810  0.44830  0.57820  Biso   1.000  H
  H14      1.0000 0.85190  0.94830  0.42180  Biso   1.000  H
  H15      1.0000 0.95120  0.43390  0.65390  Biso   1.000  H
  H16      1.0000 0.04880  0.93390  0.34610  Biso   1.000  H
  C25      1.0000 0.74770  0.44250  0.64190  Biso   1.000  C
  C26      1.0000 0.25230  0.94250  0.35810  Biso   1.000  C
  H17      1.0000 0.54720  0.45290  0.59380  Biso   1.000  H
  H18      1.0000 0.45280  0.95290  0.40620  Biso   1.000  H
  C27      1.0000 0.50430  0.36020  0.84370  Biso   1.000  C
  C28      1.0000 0.49570  0.86020  0.15630  Biso   1.000  C
  H19      1.0000 0.62420  0.13720  0.89730  Biso   1.000  H
  H20      1.0000 0.37580  0.63720  0.10270  Biso   1.000  H
  C29      1.0000 0.59060  0.67020  0.89600  Biso   1.000  C
  C30      1.0000 0.40940  0.17020  0.10400  Biso   1.000  C
  H21      1.0000 0.77220  0.66190  0.98200  Biso   1.000  H
  H22      1.0000 0.22780  0.16190  0.01800  Biso   1.000  H
  H23      1.0000 0.34610  0.45460  0.48200  Biso   1.000  H
  H24      1.0000 0.65390  0.95460  0.51800  Biso   1.000  H
  H25      1.0000 0.73470  0.44470  0.71980  Biso   1.000  H
  H26      1.0000 0.26530  0.94470  0.28020  Biso   1.000  H
  C31      1.0000 0.49130  0.55960  0.84120  Biso   1.000  C
  C32      1.0000 0.50870  0.05960  0.15880  Biso   1.000  C
  H27      1.0000 0.43740  0.28390  0.81010  Biso   1.000  H
  H28      1.0000 0.56260  0.78390  0.18990  Biso   1.000  H
  H29      1.0000 0.58100  0.80730  0.89860  Biso   1.000  H
  H30      1.0000 0.41900  0.30730  0.10140  Biso   1.000  H
  C33      1.0000 0.37190  0.65190  0.78260  Biso   1.000  C
  C34      1.0000 0.62810  0.15190  0.21740  Biso   1.000  C
  O11      1.0000 0.29230  0.54930  0.72630  Biso   1.000  O
  O12      1.0000 0.70770  0.04930  0.27370  Biso   1.000  O
