data_image0
_cell_length_a       9.5303
_cell_length_b       10.5398
_cell_length_c       10.7556
_cell_angle_alpha    100.273
_cell_angle_beta     105.02
_cell_angle_gamma    112.381

_symmetry_space_group_name_H-M    "P 1"
_symmetry_int_tables_number       1

loop_
  _symmetry_equiv_pos_as_xyz
  'x, y, z'

loop_
  _atom_site_label
  _atom_site_occupancy
  _atom_site_fract_x
  _atom_site_fract_y
  _atom_site_fract_z
  _atom_site_thermal_displace_type
  _atom_site_B_iso_or_equiv
  _atom_site_type_symbol
  Cu1      1.0000 0.07233  0.11010  0.65728  Biso   1.000  Cu
  Cu2      1.0000 0.92767  0.88990  0.34272  Biso   1.000  Cu
  P1       1.0000 0.27192  0.92540  0.51145  Biso   1.000  P
  P2       1.0000 0.72808  0.07460  0.48855  Biso   1.000  P
  O1       1.0000 0.12550  0.95490  0.50180  Biso   1.000  O
  O2       1.0000 0.87450  0.04510  0.49820  Biso   1.000  O
  N1       1.0000 0.26320  0.16120  0.82330  Biso   1.000  N
  N2       1.0000 0.73680  0.83880  0.17670  Biso   1.000  N
  N3       1.0000 0.96560  0.94870  0.72930  Biso   1.000  N
  N4       1.0000 0.03440  0.05130  0.27070  Biso   1.000  N
  C1       1.0000 0.06890  0.95520  0.84680  Biso   1.000  C
  C2       1.0000 0.93110  0.04480  0.15320  Biso   1.000  C
  C3       1.0000 0.22980  0.06970  0.89730  Biso   1.000  C
  C4       1.0000 0.77020  0.93030  0.10270  Biso   1.000  C
  C5       1.0000 0.81610  0.84010  0.67610  Biso   1.000  C
  C6       1.0000 0.18390  0.15990  0.32390  Biso   1.000  C
  H1       1.0000 0.74290  0.83450  0.59260  Biso   1.000  H
  H2       1.0000 0.25710  0.16550  0.40740  Biso   1.000  H
  C7       1.0000 0.02470  0.85420  0.91610  Biso   1.000  C
  C8       1.0000 0.97530  0.14580  0.08390  Biso   1.000  C
  C9       1.0000 0.34500  0.08230  0.01610  Biso   1.000  C
  C10      1.0000 0.65500  0.91770  0.98390  Biso   1.000  C
  C11      1.0000 0.53500  0.29000  0.98430  Biso   1.000  C
  C12      1.0000 0.46500  0.71000  0.01570  Biso   1.000  C
  H3       1.0000 0.64210  0.36820  0.01260  Biso   1.000  H
  H4       1.0000 0.35790  0.63180  0.98740  Biso   1.000  H
  C13      1.0000 0.86580  0.74090  0.85680  Biso   1.000  C
  C14      1.0000 0.13420  0.25910  0.14320  Biso   1.000  C
  H5       1.0000 0.83060  0.66860  0.90000  Biso   1.000  H
  H6       1.0000 0.16940  0.33140  0.10000  Biso   1.000  H
  C15      1.0000 0.14550  0.87270  0.04020  Biso   1.000  C
  C16      1.0000 0.85450  0.12730  0.95980  Biso   1.000  C
  H7       1.0000 0.11680  0.80620  0.09030  Biso   1.000  H
  H8       1.0000 0.88320  0.19380  0.90970  Biso   1.000  H
  C17      1.0000 0.50040  0.19750  0.05840  Biso   1.000  C
  C18      1.0000 0.49960  0.80250  0.94160  Biso   1.000  C
  H9       1.0000 0.58300  0.21130  0.14010  Biso   1.000  H
  H10      1.0000 0.41700  0.78870  0.85990  Biso   1.000  H
  C19      1.0000 0.29520  0.97960  0.08620  Biso   1.000  C
  C20      1.0000 0.70480  0.02040  0.91380  Biso   1.000  C
  H11      1.0000 0.37240  0.98860  0.16910  Biso   1.000  H
  H12      1.0000 0.62760  0.01140  0.83090  Biso   1.000  H
  C21      1.0000 0.76360  0.73390  0.73820  Biso   1.000  C
  C22      1.0000 0.23640  0.26610  0.26180  Biso   1.000  C
  H13      1.0000 0.65510  0.65650  0.69770  Biso   1.000  H
  H14      1.0000 0.34490  0.34350  0.30230  Biso   1.000  H
  C23      1.0000 0.41200  0.26880  0.86580  Biso   1.000  C
  C24      1.0000 0.58800  0.73120  0.13420  Biso   1.000  C
  H15      1.0000 0.43600  0.33400  0.81370  Biso   1.000  H
  H16      1.0000 0.56400  0.66600  0.18630  Biso   1.000  H
  O3       1.0000 0.42100  0.05070  0.62801  Biso   1.000  O
  O4       1.0000 0.57900  0.94930  0.37199  Biso   1.000  O
  H17      1.0000 0.44100  0.12870  0.60810  Biso   1.000  H
  H18      1.0000 0.55900  0.87130  0.39190  Biso   1.000  H
  O5       1.0000 0.30380  0.90360  0.38024  Biso   1.000  O
  O6       1.0000 0.69620  0.09640  0.61976  Biso   1.000  O
  C25      1.0000 0.23850  0.76530  0.56220  Biso   1.000  C
  C26      1.0000 0.76150  0.23470  0.43780  Biso   1.000  C
  C27      1.0000 0.13310  0.72150  0.63060  Biso   1.000  C
  C28      1.0000 0.86690  0.27850  0.36940  Biso   1.000  C
  H19      1.0000 0.07560  0.77590  0.64860  Biso   1.000  H
  H20      1.0000 0.92440  0.22410  0.35140  Biso   1.000  H
  C29      1.0000 0.31930  0.68350  0.53510  Biso   1.000  C
  C30      1.0000 0.68070  0.31650  0.46490  Biso   1.000  C
  H21      1.0000 0.39440  0.71290  0.48910  Biso   1.000  H
  H22      1.0000 0.60560  0.28710  0.51090  Biso   1.000  H
  C31      1.0000 0.18690  0.51830  0.64370  Biso   1.000  C
  C32      1.0000 0.81310  0.48170  0.35630  Biso   1.000  C
  C33      1.0000 0.10860  0.60050  0.67310  Biso   1.000  C
  C34      1.0000 0.89140  0.39950  0.32690  Biso   1.000  C
  H23      1.0000 0.03780  0.57360  0.72320  Biso   1.000  H
  H24      1.0000 0.96220  0.42640  0.27680  Biso   1.000  H
  C35      1.0000 0.29120  0.56010  0.57400  Biso   1.000  C
  C36      1.0000 0.70880  0.43990  0.42600  Biso   1.000  C
  H25      1.0000 0.34480  0.50300  0.55260  Biso   1.000  H
  H26      1.0000 0.65520  0.49700  0.44740  Biso   1.000  H
  C37      1.0000 0.14720  0.38030  0.67980  Biso   1.000  C
  C38      1.0000 0.85280  0.61970  0.32020  Biso   1.000  C
  O7       1.0000 0.18250  0.28820  0.61770  Biso   1.000  O
  O8       1.0000 0.81750  0.71180  0.38230  Biso   1.000  O
  O9       1.0000 0.07970  0.35850  0.76270  Biso   1.000  O
  O10      1.0000 0.92030  0.64150  0.23730  Biso   1.000  O
  O11      1.0000 0.84490  0.41350  0.84260  Biso   1.000  O
  O12      1.0000 0.15510  0.58650  0.15740  Biso   1.000  O
  H27      1.0000 0.88400  0.42610  0.92690  Biso   1.000  H
  H28      1.0000 0.11600  0.57390  0.07310  Biso   1.000  H
  H29      1.0000 0.78220  0.32440  0.80130  Biso   1.000  H
  H30      1.0000 0.21780  0.67560  0.19870  Biso   1.000  H
