data_image0
_cell_length_a       9.956
_cell_length_b       6.963
_cell_length_c       12.16
_cell_angle_alpha    90
_cell_angle_beta     92.652
_cell_angle_gamma    90

_symmetry_space_group_name_H-M    "P 1"
_symmetry_int_tables_number       1

loop_
  _symmetry_equiv_pos_as_xyz
  'x, y, z'

loop_
  _atom_site_label
  _atom_site_occupancy
  _atom_site_fract_x
  _atom_site_fract_y
  _atom_site_fract_z
  _atom_site_thermal_displace_type
  _atom_site_B_iso_or_equiv
  _atom_site_type_symbol
  Cu1      1.0000 0.82659  0.41017  0.25882  Biso   1.000  Cu
  Cu2      1.0000 0.17341  0.91017  0.74118  Biso   1.000  Cu
  P1       1.0000 0.12990  0.78850  0.99605  Biso   1.000  P
  P2       1.0000 0.87010  0.28850  0.00395  Biso   1.000  P
  C1       1.0000 0.65960  0.44120  0.45690  Biso   1.000  C
  C2       1.0000 0.34040  0.94120  0.54310  Biso   1.000  C
  H1       1.0000 0.58640  0.43600  0.40670  Biso   1.000  H
  H2       1.0000 0.41360  0.93600  0.59330  Biso   1.000  H
  C3       1.0000 0.63630  0.45200  0.56860  Biso   1.000  C
  C4       1.0000 0.36370  0.95200  0.43140  Biso   1.000  C
  H3       1.0000 0.54950  0.45930  0.59350  Biso   1.000  H
  H4       1.0000 0.45050  0.95930  0.40650  Biso   1.000  H
  C5       1.0000 0.74680  0.45140  0.64090  Biso   1.000  C
  C6       1.0000 0.25320  0.95140  0.35910  Biso   1.000  C
  H5       1.0000 0.73470  0.45690  0.71620  Biso   1.000  H
  H6       1.0000 0.26530  0.95690  0.28380  Biso   1.000  H
  C7       1.0000 0.87480  0.44290  0.60350  Biso   1.000  C
  C8       1.0000 0.12520  0.94290  0.39650  Biso   1.000  C
  H7       1.0000 0.94920  0.44050  0.65260  Biso   1.000  H
  H8       1.0000 0.05080  0.94050  0.34740  Biso   1.000  H
  C9       1.0000 0.89050  0.43780  0.49030  Biso   1.000  C
  C10      1.0000 0.10950  0.93780  0.50970  Biso   1.000  C
  C11      1.0000 0.02270  0.43300  0.43990  Biso   1.000  C
  C12      1.0000 0.97730  0.93300  0.56010  Biso   1.000  C
  C13      1.0000 0.14330  0.45000  0.49880  Biso   1.000  C
  C14      1.0000 0.85670  0.95000  0.50120  Biso   1.000  C
  H9       1.0000 0.14580  0.45980  0.57510  Biso   1.000  H
  H10      1.0000 0.85420  0.95980  0.42490  Biso   1.000  H
  C15      1.0000 0.26070  0.45230  0.44250  Biso   1.000  C
  C16      1.0000 0.73930  0.95230  0.55750  Biso   1.000  C
  H11      1.0000 0.34360  0.46270  0.48060  Biso   1.000  H
  H12      1.0000 0.65640  0.96270  0.51940  Biso   1.000  H
  C17      1.0000 0.25350  0.43900  0.32970  Biso   1.000  C
  C18      1.0000 0.74650  0.93900  0.67030  Biso   1.000  C
  H13      1.0000 0.33130  0.44060  0.29020  Biso   1.000  H
  H14      1.0000 0.66870  0.94060  0.70980  Biso   1.000  H
  C19      1.0000 0.12910  0.42340  0.27570  Biso   1.000  C
  C20      1.0000 0.87090  0.92340  0.72430  Biso   1.000  C
  H15      1.0000 0.12420  0.41480  0.19930  Biso   1.000  H
  H16      1.0000 0.87580  0.91480  0.80070  Biso   1.000  H
  C21      1.0000 0.62720  0.16090  0.21710  Biso   1.000  C
  C22      1.0000 0.37280  0.66090  0.78290  Biso   1.000  C
  C23      1.0000 0.50830  0.07070  0.15790  Biso   1.000  C
  C24      1.0000 0.49170  0.57070  0.84210  Biso   1.000  C
  C25      1.0000 0.40970  0.18020  0.10380  Biso   1.000  C
  C26      1.0000 0.59030  0.68020  0.89620  Biso   1.000  C
  H17      1.0000 0.41870  0.31300  0.10110  Biso   1.000  H
  H18      1.0000 0.58130  0.81300  0.89890  Biso   1.000  H
  C27      1.0000 0.29780  0.09310  0.05350  Biso   1.000  C
  C28      1.0000 0.70220  0.59310  0.94650  Biso   1.000  C
  H19      1.0000 0.23170  0.16890  0.01880  Biso   1.000  H
  H20      1.0000 0.76830  0.66890  0.98120  Biso   1.000  H
  C29      1.0000 0.28250  0.89460  0.05400  Biso   1.000  C
  C30      1.0000 0.71750  0.39460  0.94600  Biso   1.000  C
  C31      1.0000 0.38410  0.78490  0.10480  Biso   1.000  C
  C32      1.0000 0.61590  0.28490  0.89520  Biso   1.000  C
  H21      1.0000 0.37710  0.65170  0.10350  Biso   1.000  H
  H22      1.0000 0.62290  0.15170  0.89650  Biso   1.000  H
  C33      1.0000 0.49470  0.86860  0.15700  Biso   1.000  C
  C34      1.0000 0.50530  0.36860  0.84300  Biso   1.000  C
  H23      1.0000 0.56060  0.79230  0.19170  Biso   1.000  H
  H24      1.0000 0.43940  0.29230  0.80830  Biso   1.000  H
  N1       1.0000 0.78380  0.43820  0.41910  Biso   1.000  N
  N2       1.0000 0.21620  0.93820  0.58090  Biso   1.000  N
  N3       1.0000 0.01680  0.42020  0.32940  Biso   1.000  N
  N4       1.0000 0.98320  0.92020  0.67060  Biso   1.000  N
  O1       1.0000 0.64060  0.34210  0.20930  Biso   1.000  O
  O2       1.0000 0.35940  0.84210  0.79070  Biso   1.000  O
  O3       1.0000 0.70790  0.05790  0.27400  Biso   1.000  O
  O4       1.0000 0.29210  0.55790  0.72600  Biso   1.000  O
  O5       1.0000 0.01700  0.83770  0.07020  Biso   1.000  O
  O6       1.0000 0.98300  0.33770  0.92980  Biso   1.000  O
  O7       1.0000 0.16450  0.57140  0.99870  Biso   1.000  O
  O8       1.0000 0.83550  0.07140  0.00130  Biso   1.000  O
  H25      1.0000 0.11060  0.51290  0.95810  Biso   1.000  H
  H26      1.0000 0.88940  0.01290  0.04190  Biso   1.000  H
  O9       1.0000 0.09910  0.86280  0.88060  Biso   1.000  O
  O10      1.0000 0.90090  0.36280  0.11940  Biso   1.000  O
  O11      1.0000 0.84980  0.73120  0.23370  Biso   1.000  O
  O12      1.0000 0.15020  0.23120  0.76630  Biso   1.000  O
  H27      1.0000 0.89960  0.75160  0.18000  Biso   1.000  H
  H28      1.0000 0.10040  0.25160  0.82000  Biso   1.000  H
  H29      1.0000 0.79700  0.82670  0.23700  Biso   1.000  H
  H30      1.0000 0.20300  0.32670  0.76300  Biso   1.000  H
