data_image0
_cell_length_a       8.3986
_cell_length_b       9.8134
_cell_length_c       12.0312
_cell_angle_alpha    104.27
_cell_angle_beta     99.452
_cell_angle_gamma    91.452

_symmetry_space_group_name_H-M    "P 1"
_symmetry_int_tables_number       1

loop_
  _symmetry_equiv_pos_as_xyz
  'x, y, z'

loop_
  _atom_site_label
  _atom_site_occupancy
  _atom_site_fract_x
  _atom_site_fract_y
  _atom_site_fract_z
  _atom_site_thermal_displace_type
  _atom_site_B_iso_or_equiv
  _atom_site_type_symbol
  Cu1      1.0000 0.83289  0.99364  0.80619  Biso   1.000  Cu
  Cu2      1.0000 0.16711  0.00636  0.19381  Biso   1.000  Cu
  Cu3      1.0000 0.50000  0.00000  0.00000  Biso   1.000  Cu
  P1       1.0000 0.83524  0.85110  0.02432  Biso   1.000  P
  P2       1.0000 0.16476  0.14890  0.97568  Biso   1.000  P
  C1       1.0000 0.78050  0.66510  0.00620  Biso   1.000  C
  C2       1.0000 0.21950  0.33490  0.99380  Biso   1.000  C
  C3       1.0000 0.71390  0.62250  0.09140  Biso   1.000  C
  C4       1.0000 0.28610  0.37750  0.90860  Biso   1.000  C
  H1       1.0000 0.69530  0.68990  0.15650  Biso   1.000  H
  H2       1.0000 0.30470  0.31010  0.84350  Biso   1.000  H
  C5       1.0000 0.67470  0.48190  0.08150  Biso   1.000  C
  C6       1.0000 0.32530  0.51810  0.91850  Biso   1.000  C
  H3       1.0000 0.63040  0.45600  0.13980  Biso   1.000  H
  H4       1.0000 0.36960  0.54400  0.86020  Biso   1.000  H
  C7       1.0000 0.70100  0.37910  0.98530  Biso   1.000  C
  C8       1.0000 0.29900  0.62090  0.01470  Biso   1.000  C
  C9       1.0000 0.64590  0.22750  0.96910  Biso   1.000  C
  C10      1.0000 0.35410  0.77250  0.03090  Biso   1.000  C
  C11      1.0000 0.77100  0.42030  0.90110  Biso   1.000  C
  C12      1.0000 0.22900  0.57970  0.09890  Biso   1.000  C
  H5       1.0000 0.79220  0.35250  0.83710  Biso   1.000  H
  H6       1.0000 0.20780  0.64750  0.16290  Biso   1.000  H
  C13      1.0000 0.81010  0.56180  0.91130  Biso   1.000  C
  C14      1.0000 0.18990  0.43820  0.08870  Biso   1.000  C
  H7       1.0000 0.85660  0.58770  0.85390  Biso   1.000  H
  H8       1.0000 0.14340  0.41230  0.14610  Biso   1.000  H
  C15      1.0000 0.56850  0.75570  0.71110  Biso   1.000  C
  C16      1.0000 0.43150  0.24430  0.28890  Biso   1.000  C
  H9       1.0000 0.57500  0.74690  0.78690  Biso   1.000  H
  H10      1.0000 0.42500  0.25310  0.21310  Biso   1.000  H
  C17      1.0000 0.45950  0.66480  0.62150  Biso   1.000  C
  C18      1.0000 0.54050  0.33520  0.37850  Biso   1.000  C
  H11      1.0000 0.39370  0.59760  0.63820  Biso   1.000  H
  H12      1.0000 0.60630  0.40240  0.36180  Biso   1.000  H
  C19      1.0000 0.44990  0.67460  0.51020  Biso   1.000  C
  C20      1.0000 0.55010  0.32540  0.48980  Biso   1.000  C
  H13      1.0000 0.37840  0.61320  0.45060  Biso   1.000  H
  H14      1.0000 0.62160  0.38680  0.54940  Biso   1.000  H
  C21      1.0000 0.54630  0.77590  0.48440  Biso   1.000  C
  C22      1.0000 0.45370  0.22410  0.51560  Biso   1.000  C
  C23      1.0000 0.65110  0.86570  0.57980  Biso   1.000  C
  C24      1.0000 0.34890  0.13430  0.42020  Biso   1.000  C
  C25      1.0000 0.74870  0.97840  0.56350  Biso   1.000  C
  C26      1.0000 0.25130  0.02160  0.43650  Biso   1.000  C
  C27      1.0000 0.74370  0.99810  0.45080  Biso   1.000  C
  C28      1.0000 0.25630  0.00190  0.54920  Biso   1.000  C
  C29      1.0000 0.84310  0.10860  0.44140  Biso   1.000  C
  C30      1.0000 0.15690  0.89140  0.55860  Biso   1.000  C
  H15      1.0000 0.84570  0.12510  0.36880  Biso   1.000  H
  H16      1.0000 0.15430  0.87490  0.63120  Biso   1.000  H
  C31      1.0000 0.93700  0.19310  0.53860  Biso   1.000  C
  C32      1.0000 0.06300  0.80690  0.46140  Biso   1.000  C
  H17      1.0000 0.00210  0.26810  0.53250  Biso   1.000  H
  H18      1.0000 0.99790  0.73190  0.46750  Biso   1.000  H
  C33      1.0000 0.93500  0.16600  0.64890  Biso   1.000  C
  C34      1.0000 0.06500  0.83400  0.35110  Biso   1.000  C
  H19      1.0000 0.99940  0.22380  0.71480  Biso   1.000  H
  H20      1.0000 0.00060  0.77620  0.28520  Biso   1.000  H
  C35      1.0000 0.63620  0.90360  0.35600  Biso   1.000  C
  C36      1.0000 0.36380  0.09640  0.64400  Biso   1.000  C
  H21      1.0000 0.63030  0.91570  0.28110  Biso   1.000  H
  H22      1.0000 0.36970  0.08430  0.71890  Biso   1.000  H
  C37      1.0000 0.54420  0.79870  0.37200  Biso   1.000  C
  C38      1.0000 0.45580  0.20130  0.62800  Biso   1.000  C
  H23      1.0000 0.47740  0.73950  0.30810  Biso   1.000  H
  H24      1.0000 0.52260  0.26050  0.69190  Biso   1.000  H
  N1       1.0000 0.66310  0.85430  0.69090  Biso   1.000  N
  N2       1.0000 0.33690  0.14570  0.30910  Biso   1.000  N
  N3       1.0000 0.84340  0.06020  0.65970  Biso   1.000  N
  N4       1.0000 0.15660  0.93980  0.34030  Biso   1.000  N
  O1       1.0000 0.85920  0.86410  0.90450  Biso   1.000  O
  O2       1.0000 0.14080  0.13590  0.09550  Biso   1.000  O
  O3       1.0000 0.99000  0.87670  0.11270  Biso   1.000  O
  O4       1.0000 0.01000  0.12330  0.88730  Biso   1.000  O
  O5       1.0000 0.70200  0.93780  0.06970  Biso   1.000  O
  O6       1.0000 0.29800  0.06220  0.93030  Biso   1.000  O
  O7       1.0000 0.59440  0.19580  0.05460  Biso   1.000  O
  O8       1.0000 0.40560  0.80420  0.94540  Biso   1.000  O
  O9       1.0000 0.64670  0.13950  0.87423  Biso   1.000  O
  O10      1.0000 0.35330  0.86050  0.12577  Biso   1.000  O
  O11      1.0000 0.09840  0.75930  0.77730  Biso   1.000  O
  O12      1.0000 0.90160  0.24070  0.22270  Biso   1.000  O
  H25      1.0000 0.03390  0.78420  0.82500  Biso   1.000  H
  H26      1.0000 0.96610  0.21580  0.17500  Biso   1.000  H
  H27      1.0000 0.17910  0.74010  0.82220  Biso   1.000  H
  H28      1.0000 0.82090  0.25990  0.17780  Biso   1.000  H
  O13      1.0000 0.04400  0.46240  0.39030  Biso   1.000  O
  O14      1.0000 0.95600  0.53760  0.60970  Biso   1.000  O
  H29      1.0000 0.07420  0.41830  0.32800  Biso   1.000  H
  H30      1.0000 0.92580  0.58170  0.67200  Biso   1.000  H
  H31      1.0000 0.01890  0.40370  0.42710  Biso   1.000  H
  H32      1.0000 0.98110  0.59630  0.57290  Biso   1.000  H
