data_image0
_cell_length_a       9.961
_cell_length_b       6.9692
_cell_length_c       12.151
_cell_angle_alpha    90
_cell_angle_beta     92.685
_cell_angle_gamma    90

_symmetry_space_group_name_H-M    "P 1"
_symmetry_int_tables_number       1

loop_
  _symmetry_equiv_pos_as_xyz
  'x, y, z'

loop_
  _atom_site_label
  _atom_site_occupancy
  _atom_site_fract_x
  _atom_site_fract_y
  _atom_site_fract_z
  _atom_site_thermal_displace_type
  _atom_site_B_iso_or_equiv
  _atom_site_type_symbol
  Cu1      1.0000 0.17335  0.58977  0.74129  Biso   1.000  Cu
  Cu2      1.0000 0.82665  0.08977  0.25871  Biso   1.000  Cu
  N1       1.0000 0.21720  0.56340  0.58130  Biso   1.000  N
  N2       1.0000 0.78280  0.06340  0.41870  Biso   1.000  N
  N3       1.0000 0.98340  0.58080  0.67080  Biso   1.000  N
  N4       1.0000 0.01660  0.08080  0.32920  Biso   1.000  N
  O1       1.0000 0.64080  0.15730  0.20860  Biso   1.000  O
  O2       1.0000 0.35920  0.65730  0.79140  Biso   1.000  O
  O3       1.0000 0.15040  0.26880  0.76640  Biso   1.000  O
  O4       1.0000 0.84960  0.76880  0.23360  Biso   1.000  O
  O5       1.0000 0.10010  0.63680  0.88090  Biso   1.000  O
  O6       1.0000 0.89990  0.13680  0.11910  Biso   1.000  O
  C1       1.0000 0.34040  0.55900  0.54270  Biso   1.000  C
  C2       1.0000 0.65960  0.05900  0.45730  Biso   1.000  C
  C3       1.0000 0.10860  0.56230  0.50880  Biso   1.000  C
  C4       1.0000 0.89140  0.06230  0.49120  Biso   1.000  C
  C5       1.0000 0.97830  0.56620  0.55980  Biso   1.000  C
  C6       1.0000 0.02170  0.06620  0.44020  Biso   1.000  C
  C7       1.0000 0.87010  0.57580  0.72390  Biso   1.000  C
  C8       1.0000 0.12990  0.07580  0.27610  Biso   1.000  C
  P1       1.0000 0.12995  0.71192  0.99598  Biso   1.000  P
  P2       1.0000 0.87005  0.21192  0.00402  Biso   1.000  P
  C9       1.0000 0.36150  0.54970  0.43230  Biso   1.000  C
  C10      1.0000 0.63850  0.04970  0.56770  Biso   1.000  C
  C11      1.0000 0.12500  0.55700  0.39670  Biso   1.000  C
  C12      1.0000 0.87500  0.05700  0.60330  Biso   1.000  C
  C13      1.0000 0.85660  0.55080  0.50010  Biso   1.000  C
  C14      1.0000 0.14340  0.05080  0.49990  Biso   1.000  C
  C15      1.0000 0.74610  0.56110  0.67050  Biso   1.000  C
  C16      1.0000 0.25390  0.06110  0.32950  Biso   1.000  C
  C17      1.0000 0.28290  0.60370  0.05380  Biso   1.000  C
  C18      1.0000 0.71710  0.10370  0.94620  Biso   1.000  C
  O7       1.0000 0.01740  0.66330  0.07010  Biso   1.000  O
  O8       1.0000 0.98260  0.16330  0.92990  Biso   1.000  O
  O9       1.0000 0.16490  0.92590  0.99850  Biso   1.000  O
  O10      1.0000 0.83510  0.42590  0.00150  Biso   1.000  O
  C19      1.0000 0.25310  0.54930  0.35760  Biso   1.000  C
  C20      1.0000 0.74690  0.04930  0.64240  Biso   1.000  C
  C21      1.0000 0.74000  0.54870  0.55710  Biso   1.000  C
  C22      1.0000 0.26000  0.04870  0.44290  Biso   1.000  C
  C23      1.0000 0.38490  0.71660  0.10470  Biso   1.000  C
  C24      1.0000 0.61510  0.21660  0.89530  Biso   1.000  C
  C25      1.0000 0.29780  0.40720  0.05370  Biso   1.000  C
  C26      1.0000 0.70220  0.90720  0.94630  Biso   1.000  C
  C27      1.0000 0.49560  0.63040  0.15740  Biso   1.000  C
  C28      1.0000 0.50440  0.13040  0.84260  Biso   1.000  C
  C29      1.0000 0.41010  0.32160  0.10430  Biso   1.000  C
  C30      1.0000 0.58990  0.82160  0.89570  Biso   1.000  C
  C31      1.0000 0.50850  0.43050  0.15850  Biso   1.000  C
  C32      1.0000 0.49150  0.93050  0.84150  Biso   1.000  C
  C33      1.0000 0.62810  0.33830  0.21820  Biso   1.000  C
  C34      1.0000 0.37190  0.83830  0.78180  Biso   1.000  C
  O11      1.0000 0.70850  0.44130  0.27300  Biso   1.000  O
  O12      1.0000 0.29150  0.94130  0.72700  Biso   1.000  O
  H1       1.0000 0.41420  0.56230  0.59240  Biso   1.000  H
  H2       1.0000 0.58580  0.06230  0.40760  Biso   1.000  H
  H3       1.0000 0.44850  0.54370  0.40790  Biso   1.000  H
  H4       1.0000 0.55150  0.04370  0.59210  Biso   1.000  H
  H5       1.0000 0.26580  0.54390  0.28230  Biso   1.000  H
  H6       1.0000 0.73420  0.04390  0.71770  Biso   1.000  H
  H7       1.0000 0.05050  0.55850  0.34770  Biso   1.000  H
  H8       1.0000 0.94950  0.05850  0.65230  Biso   1.000  H
  H9       1.0000 0.85360  0.54200  0.42370  Biso   1.000  H
  H10      1.0000 0.14640  0.04200  0.57630  Biso   1.000  H
  H11      1.0000 0.65710  0.53890  0.51900  Biso   1.000  H
  H12      1.0000 0.34290  0.03890  0.48100  Biso   1.000  H
  H13      1.0000 0.66810  0.55960  0.70970  Biso   1.000  H
  H14      1.0000 0.33190  0.05960  0.29030  Biso   1.000  H
  H15      1.0000 0.87490  0.58260  0.80040  Biso   1.000  H
  H16      1.0000 0.12510  0.08260  0.19960  Biso   1.000  H
  H17      1.0000 0.41940  0.18890  0.10170  Biso   1.000  H
  H18      1.0000 0.58060  0.68890  0.89830  Biso   1.000  H
  H19      1.0000 0.23170  0.33100  0.01930  Biso   1.000  H
  H20      1.0000 0.76830  0.83100  0.98070  Biso   1.000  H
  H21      1.0000 0.37810  0.84970  0.10300  Biso   1.000  H
  H22      1.0000 0.62190  0.34970  0.89700  Biso   1.000  H
  H23      1.0000 0.56170  0.70600  0.19230  Biso   1.000  H
  H24      1.0000 0.43830  0.20600  0.80770  Biso   1.000  H
  H25      1.0000 0.10160  0.98760  0.97130  Biso   1.000  H
  H26      1.0000 0.89840  0.48760  0.02870  Biso   1.000  H
  H27      1.0000 0.10050  0.24840  0.82010  Biso   1.000  H
  H28      1.0000 0.89950  0.74840  0.17990  Biso   1.000  H
  H29      1.0000 0.20320  0.17340  0.76320  Biso   1.000  H
  H30      1.0000 0.79680  0.67340  0.23680  Biso   1.000  H
