data_image0
_cell_length_a       5.477
_cell_length_b       15.655
_cell_length_c       10.439
_cell_angle_alpha    90
_cell_angle_beta     104.55
_cell_angle_gamma    90

_symmetry_space_group_name_H-M    "P 1"
_symmetry_int_tables_number       1

loop_
  _symmetry_equiv_pos_as_xyz
  'x, y, z'

loop_
  _atom_site_label
  _atom_site_occupancy
  _atom_site_fract_x
  _atom_site_fract_y
  _atom_site_fract_z
  _atom_site_thermal_displace_type
  _atom_site_B_iso_or_equiv
  _atom_site_type_symbol
  Cu1      1.0000 0.40420  0.99210  0.70010  Biso   1.000  Cu
  Cu2      1.0000 0.59580  0.49210  0.29990  Biso   1.000  Cu
  Cl1      1.0000 0.61760  0.97590  0.55210  Biso   1.000  Cl
  Cl2      1.0000 0.38240  0.47590  0.44790  Biso   1.000  Cl
  O1       1.0000 0.41900  0.85490  0.74750  Biso   1.000  O
  O2       1.0000 0.58100  0.35490  0.25250  Biso   1.000  O
  O3       1.0000 0.24300  0.76140  0.85920  Biso   1.000  O
  O4       1.0000 0.75700  0.26140  0.14080  Biso   1.000  O
  S1       1.0000 0.78900  0.05090  0.89680  Biso   1.000  S
  S2       1.0000 0.21100  0.55090  0.10320  Biso   1.000  S
  N1       1.0000 0.21900  0.10360  0.65790  Biso   1.000  N
  N2       1.0000 0.78100  0.60360  0.34210  Biso   1.000  N
  N3       1.0000 0.05600  0.11610  0.74060  Biso   1.000  N
  N4       1.0000 0.94400  0.61610  0.25940  Biso   1.000  N
  N5       1.0000 0.16800  0.98380  0.81540  Biso   1.000  N
  N6       1.0000 0.83200  0.48380  0.18460  Biso   1.000  N
  C1       1.0000 0.35000  0.18720  0.48400  Biso   1.000  C
  C2       1.0000 0.65000  0.68720  0.51600  Biso   1.000  C
  C3       1.0000 0.20800  0.17710  0.58910  Biso   1.000  C
  C4       1.0000 0.79200  0.67710  0.41090  Biso   1.000  C
  C5       1.0000 0.06300  0.23630  0.63340  Biso   1.000  C
  C6       1.0000 0.93700  0.73630  0.36660  Biso   1.000  C
  C7       1.0000 0.96200  0.19530  0.72580  Biso   1.000  C
  C8       1.0000 0.03800  0.69530  0.27420  Biso   1.000  C
  C9       1.0000 0.79300  0.24890  0.78220  Biso   1.000  C
  C10      1.0000 0.20700  0.74890  0.21780  Biso   1.000  C
  C11      1.0000 0.80700  0.33440  0.71370  Biso   1.000  C
  C12      1.0000 0.19300  0.83440  0.28630  Biso   1.000  C
  C13      1.0000 0.96500  0.32640  0.61690  Biso   1.000  C
  C14      1.0000 0.03500  0.82640  0.38310  Biso   1.000  C
  C15      1.0000 0.04900  0.38510  0.73430  Biso   1.000  C
  C16      1.0000 0.95100  0.88510  0.26570  Biso   1.000  C
  C17      1.0000 0.01400  0.47980  0.70530  Biso   1.000  C
  C18      1.0000 0.98600  0.97980  0.29470  Biso   1.000  C
  C19      1.0000 0.26700  0.36600  0.85340  Biso   1.000  C
  C20      1.0000 0.73300  0.86600  0.14660  Biso   1.000  C
  C21      1.0000 0.02000  0.04530  0.81420  Biso   1.000  C
  C22      1.0000 0.98000  0.54530  0.18580  Biso   1.000  C
  C23      1.0000 0.13200  0.90310  0.86930  Biso   1.000  C
  C24      1.0000 0.86800  0.40310  0.13070  Biso   1.000  C
  C25      1.0000 0.28100  0.83730  0.81850  Biso   1.000  C
  C26      1.0000 0.71900  0.33730  0.18150  Biso   1.000  C
  C27      1.0000 0.36500  0.68780  0.81000  Biso   1.000  C
  C28      1.0000 0.63500  0.18780  0.19000  Biso   1.000  C
  C29      1.0000 0.61500  0.66840  0.88900  Biso   1.000  C
  C30      1.0000 0.38500  0.16840  0.11100  Biso   1.000  C
