data_image0
_cell_length_a       18.887
_cell_length_b       17.644
_cell_length_c       14.946
_cell_angle_alpha    90
_cell_angle_beta     90
_cell_angle_gamma    90

_symmetry_space_group_name_H-M    "P 1"
_symmetry_int_tables_number       1

loop_
  _symmetry_equiv_pos_as_xyz
  'x, y, z'

loop_
  _atom_site_label
  _atom_site_occupancy
  _atom_site_fract_x
  _atom_site_fract_y
  _atom_site_fract_z
  _atom_site_thermal_displace_type
  _atom_site_B_iso_or_equiv
  _atom_site_type_symbol
  Cu1      1.0000 0.22302  0.78194  0.14707  Biso   1.000  Cu
  Cu2      1.0000 0.77698  0.71806  0.64707  Biso   1.000  Cu
  Cu3      1.0000 0.77698  0.28194  0.35293  Biso   1.000  Cu
  Cu4      1.0000 0.22302  0.21806  0.85293  Biso   1.000  Cu
  Cu5      1.0000 0.72302  0.28194  0.14707  Biso   1.000  Cu
  Cu6      1.0000 0.27698  0.21806  0.64707  Biso   1.000  Cu
  Cu7      1.0000 0.27698  0.78194  0.35293  Biso   1.000  Cu
  Cu8      1.0000 0.72302  0.71806  0.85293  Biso   1.000  Cu
  Cu9      1.0000 0.77698  0.21806  0.85293  Biso   1.000  Cu
  Cu10     1.0000 0.22302  0.28194  0.35293  Biso   1.000  Cu
  Cu11     1.0000 0.22302  0.71806  0.64707  Biso   1.000  Cu
  Cu12     1.0000 0.77698  0.78194  0.14707  Biso   1.000  Cu
  Cu13     1.0000 0.27698  0.71806  0.85293  Biso   1.000  Cu
  Cu14     1.0000 0.72302  0.78194  0.35293  Biso   1.000  Cu
  Cu15     1.0000 0.72302  0.21806  0.64707  Biso   1.000  Cu
  Cu16     1.0000 0.27698  0.28194  0.14707  Biso   1.000  Cu
  Cu17     1.0000 0.57140  0.50000  0.50000  Biso   1.000  Cu
  Cu18     1.0000 0.42860  0.00000  0.00000  Biso   1.000  Cu
  Cu19     1.0000 0.07140  0.00000  0.50000  Biso   1.000  Cu
  Cu20     1.0000 0.92860  0.50000  0.00000  Biso   1.000  Cu
  Cu21     1.0000 0.42860  0.50000  0.50000  Biso   1.000  Cu
  Cu22     1.0000 0.57140  0.00000  0.00000  Biso   1.000  Cu
  Cu23     1.0000 0.92860  0.00000  0.50000  Biso   1.000  Cu
  Cu24     1.0000 0.07140  0.50000  0.00000  Biso   1.000  Cu
  C1       1.0000 0.00000  0.99890  0.80240  Biso   1.000  C
  C2       1.0000 0.00000  0.50110  0.30240  Biso   1.000  C
  C3       1.0000 0.00000  0.49890  0.69760  Biso   1.000  C
  C4       1.0000 0.00000  0.00110  0.19760  Biso   1.000  C
  C5       1.0000 0.50000  0.49890  0.80240  Biso   1.000  C
  C6       1.0000 0.50000  0.00110  0.30240  Biso   1.000  C
  C7       1.0000 0.50000  0.99890  0.69760  Biso   1.000  C
  C8       1.0000 0.50000  0.50110  0.19760  Biso   1.000  C
  C9       1.0000 0.23450  0.95260  0.18020  Biso   1.000  C
  C10      1.0000 0.76550  0.54740  0.68020  Biso   1.000  C
  C11      1.0000 0.76550  0.45260  0.31980  Biso   1.000  C
  C12      1.0000 0.23450  0.04740  0.81980  Biso   1.000  C
  C13      1.0000 0.73450  0.45260  0.18020  Biso   1.000  C
  C14      1.0000 0.26550  0.04740  0.68020  Biso   1.000  C
  C15      1.0000 0.26550  0.95260  0.31980  Biso   1.000  C
  C16      1.0000 0.73450  0.54740  0.81980  Biso   1.000  C
  C17      1.0000 0.76550  0.04740  0.81980  Biso   1.000  C
  C18      1.0000 0.23450  0.45260  0.31980  Biso   1.000  C
  C19      1.0000 0.23450  0.54740  0.68020  Biso   1.000  C
  C20      1.0000 0.76550  0.95260  0.18020  Biso   1.000  C
  C21      1.0000 0.26550  0.54740  0.81980  Biso   1.000  C
  C22      1.0000 0.73450  0.95260  0.31980  Biso   1.000  C
  C23      1.0000 0.73450  0.04740  0.68020  Biso   1.000  C
  C24      1.0000 0.26550  0.45260  0.18020  Biso   1.000  C
  H1       1.0000 0.22180  0.96870  0.12310  Biso   1.000  H
  H2       1.0000 0.77820  0.53130  0.62310  Biso   1.000  H
  H3       1.0000 0.77820  0.46870  0.37690  Biso   1.000  H
  H4       1.0000 0.22180  0.03130  0.87690  Biso   1.000  H
  H5       1.0000 0.72180  0.46870  0.12310  Biso   1.000  H
  H6       1.0000 0.27820  0.03130  0.62310  Biso   1.000  H
  H7       1.0000 0.27820  0.96870  0.37690  Biso   1.000  H
  H8       1.0000 0.72180  0.53130  0.87690  Biso   1.000  H
  H9       1.0000 0.77820  0.03130  0.87690  Biso   1.000  H
  H10      1.0000 0.22180  0.46870  0.37690  Biso   1.000  H
  H11      1.0000 0.22180  0.53130  0.62310  Biso   1.000  H
  H12      1.0000 0.77820  0.96870  0.12310  Biso   1.000  H
  H13      1.0000 0.27820  0.53130  0.87690  Biso   1.000  H
  H14      1.0000 0.72180  0.96870  0.37690  Biso   1.000  H
  H15      1.0000 0.72180  0.03130  0.62310  Biso   1.000  H
  H16      1.0000 0.27820  0.46870  0.12310  Biso   1.000  H
  C25      1.0000 0.00000  0.95130  0.88410  Biso   1.000  C
  C26      1.0000 0.00000  0.54870  0.38410  Biso   1.000  C
  C27      1.0000 0.00000  0.45130  0.61590  Biso   1.000  C
  C28      1.0000 0.00000  0.04870  0.11590  Biso   1.000  C
  C29      1.0000 0.50000  0.45130  0.88410  Biso   1.000  C
  C30      1.0000 0.50000  0.04870  0.38410  Biso   1.000  C
  C31      1.0000 0.50000  0.95130  0.61590  Biso   1.000  C
  C32      1.0000 0.50000  0.54870  0.11590  Biso   1.000  C
  C33      1.0000 0.50000  0.66470  0.31570  Biso   1.000  C
  C34      1.0000 0.50000  0.83530  0.81570  Biso   1.000  C
  C35      1.0000 0.50000  0.16470  0.18430  Biso   1.000  C
  C36      1.0000 0.50000  0.33530  0.68430  Biso   1.000  C
  C37      1.0000 0.00000  0.16470  0.31570  Biso   1.000  C
  C38      1.0000 0.00000  0.33530  0.81570  Biso   1.000  C
  C39      1.0000 0.00000  0.66470  0.18430  Biso   1.000  C
  C40      1.0000 0.00000  0.83530  0.68430  Biso   1.000  C
  C41      1.0000 0.06350  0.92800  0.92230  Biso   1.000  C
  C42      1.0000 0.93650  0.57200  0.42230  Biso   1.000  C
  C43      1.0000 0.93650  0.42800  0.57770  Biso   1.000  C
  C44      1.0000 0.06350  0.07200  0.07770  Biso   1.000  C
  C45      1.0000 0.56350  0.42800  0.92230  Biso   1.000  C
  C46      1.0000 0.43650  0.07200  0.42230  Biso   1.000  C
  C47      1.0000 0.43650  0.92800  0.57770  Biso   1.000  C
  C48      1.0000 0.56350  0.57200  0.07770  Biso   1.000  C
  C49      1.0000 0.93650  0.07200  0.07770  Biso   1.000  C
  C50      1.0000 0.06350  0.42800  0.57770  Biso   1.000  C
  C51      1.0000 0.06350  0.57200  0.42230  Biso   1.000  C
  C52      1.0000 0.93650  0.92800  0.92230  Biso   1.000  C
  C53      1.0000 0.43650  0.57200  0.07770  Biso   1.000  C
  C54      1.0000 0.56350  0.92800  0.57770  Biso   1.000  C
  C55      1.0000 0.56350  0.07200  0.42230  Biso   1.000  C
  C56      1.0000 0.43650  0.42800  0.92230  Biso   1.000  C
  H17      1.0000 0.10620  0.94320  0.89700  Biso   1.000  H
  H18      1.0000 0.89380  0.55680  0.39700  Biso   1.000  H
  H19      1.0000 0.89380  0.44320  0.60300  Biso   1.000  H
  H20      1.0000 0.10620  0.05680  0.10300  Biso   1.000  H
  H21      1.0000 0.60620  0.44320  0.89700  Biso   1.000  H
  H22      1.0000 0.39380  0.05680  0.39700  Biso   1.000  H
  H23      1.0000 0.39380  0.94320  0.60300  Biso   1.000  H
  H24      1.0000 0.60620  0.55680  0.10300  Biso   1.000  H
  H25      1.0000 0.89380  0.05680  0.10300  Biso   1.000  H
  H26      1.0000 0.10620  0.44320  0.60300  Biso   1.000  H
  H27      1.0000 0.10620  0.55680  0.39700  Biso   1.000  H
  H28      1.0000 0.89380  0.94320  0.89700  Biso   1.000  H
  H29      1.0000 0.39380  0.55680  0.10300  Biso   1.000  H
  H30      1.0000 0.60620  0.94320  0.60300  Biso   1.000  H
  H31      1.0000 0.60620  0.05680  0.39700  Biso   1.000  H
  H32      1.0000 0.39380  0.44320  0.89700  Biso   1.000  H
  C57      1.0000 0.06360  0.88260  0.99760  Biso   1.000  C
  C58      1.0000 0.93640  0.61740  0.49760  Biso   1.000  C
  C59      1.0000 0.93640  0.38260  0.50240  Biso   1.000  C
  C60      1.0000 0.06360  0.11740  0.00240  Biso   1.000  C
  C61      1.0000 0.56360  0.38260  0.99760  Biso   1.000  C
  C62      1.0000 0.43640  0.11740  0.49760  Biso   1.000  C
  C63      1.0000 0.43640  0.88260  0.50240  Biso   1.000  C
  C64      1.0000 0.56360  0.61740  0.00240  Biso   1.000  C
  C65      1.0000 0.93640  0.11740  0.00240  Biso   1.000  C
  C66      1.0000 0.06360  0.38260  0.50240  Biso   1.000  C
  C67      1.0000 0.06360  0.61740  0.49760  Biso   1.000  C
  C68      1.0000 0.93640  0.88260  0.99760  Biso   1.000  C
  C69      1.0000 0.43640  0.61740  0.00240  Biso   1.000  C
  C70      1.0000 0.56360  0.88260  0.50240  Biso   1.000  C
  C71      1.0000 0.56360  0.11740  0.49760  Biso   1.000  C
  C72      1.0000 0.43640  0.38260  0.99760  Biso   1.000  C
  C73      1.0000 0.36784  0.75810  0.15930  Biso   1.000  C
  C74      1.0000 0.63216  0.74190  0.65930  Biso   1.000  C
  C75      1.0000 0.63216  0.25810  0.34070  Biso   1.000  C
  C76      1.0000 0.36784  0.24190  0.84070  Biso   1.000  C
  C77      1.0000 0.86784  0.25810  0.15930  Biso   1.000  C
  C78      1.0000 0.13216  0.24190  0.65930  Biso   1.000  C
  C79      1.0000 0.13216  0.75810  0.34070  Biso   1.000  C
  C80      1.0000 0.86784  0.74190  0.84070  Biso   1.000  C
  C81      1.0000 0.63216  0.24190  0.84070  Biso   1.000  C
  C82      1.0000 0.36784  0.25810  0.34070  Biso   1.000  C
  C83      1.0000 0.36784  0.74190  0.65930  Biso   1.000  C
  C84      1.0000 0.63216  0.75810  0.15930  Biso   1.000  C
  C85      1.0000 0.13216  0.74190  0.84070  Biso   1.000  C
  C86      1.0000 0.86784  0.75810  0.34070  Biso   1.000  C
  C87      1.0000 0.86784  0.24190  0.65930  Biso   1.000  C
  C88      1.0000 0.13216  0.25810  0.15930  Biso   1.000  C
  C89      1.0000 0.13322  0.85850  0.03600  Biso   1.000  C
  C90      1.0000 0.86678  0.64150  0.53600  Biso   1.000  C
  C91      1.0000 0.86678  0.35850  0.46400  Biso   1.000  C
  C92      1.0000 0.13322  0.14150  0.96400  Biso   1.000  C
  C93      1.0000 0.63322  0.35850  0.03600  Biso   1.000  C
  C94      1.0000 0.36678  0.14150  0.53600  Biso   1.000  C
  C95      1.0000 0.36678  0.85850  0.46400  Biso   1.000  C
  C96      1.0000 0.63322  0.64150  0.96400  Biso   1.000  C
  C97      1.0000 0.86678  0.14150  0.96400  Biso   1.000  C
  C98      1.0000 0.13322  0.35850  0.46400  Biso   1.000  C
  C99      1.0000 0.13322  0.64150  0.53600  Biso   1.000  C
  C100     1.0000 0.86678  0.85850  0.03600  Biso   1.000  C
  C101     1.0000 0.36678  0.64150  0.96400  Biso   1.000  C
  C102     1.0000 0.63322  0.85850  0.46400  Biso   1.000  C
  C103     1.0000 0.63322  0.14150  0.53600  Biso   1.000  C
  C104     1.0000 0.36678  0.35850  0.03600  Biso   1.000  C
  C105     1.0000 0.43642  0.68820  0.27780  Biso   1.000  C
  C106     1.0000 0.56358  0.81180  0.77780  Biso   1.000  C
  C107     1.0000 0.56358  0.18820  0.22220  Biso   1.000  C
  C108     1.0000 0.43642  0.31180  0.72220  Biso   1.000  C
  C109     1.0000 0.93642  0.18820  0.27780  Biso   1.000  C
  C110     1.0000 0.06358  0.31180  0.77780  Biso   1.000  C
  C111     1.0000 0.06358  0.68820  0.22220  Biso   1.000  C
  C112     1.0000 0.93642  0.81180  0.72220  Biso   1.000  C
  C113     1.0000 0.56358  0.31180  0.72220  Biso   1.000  C
  C114     1.0000 0.43642  0.18820  0.22220  Biso   1.000  C
  C115     1.0000 0.43642  0.81180  0.77780  Biso   1.000  C
  C116     1.0000 0.56358  0.68820  0.27780  Biso   1.000  C
  C117     1.0000 0.06358  0.81180  0.72220  Biso   1.000  C
  C118     1.0000 0.93642  0.68820  0.22220  Biso   1.000  C
  C119     1.0000 0.93642  0.31180  0.77780  Biso   1.000  C
  C120     1.0000 0.06358  0.18820  0.27780  Biso   1.000  C
  H33      1.0000 0.39380  0.67350  0.30360  Biso   1.000  H
  H34      1.0000 0.60620  0.82650  0.80360  Biso   1.000  H
  H35      1.0000 0.60620  0.17350  0.19640  Biso   1.000  H
  H36      1.0000 0.39380  0.32650  0.69640  Biso   1.000  H
  H37      1.0000 0.89380  0.17350  0.30360  Biso   1.000  H
  H38      1.0000 0.10620  0.32650  0.80360  Biso   1.000  H
  H39      1.0000 0.10620  0.67350  0.19640  Biso   1.000  H
  H40      1.0000 0.89380  0.82650  0.69640  Biso   1.000  H
  H41      1.0000 0.60620  0.32650  0.69640  Biso   1.000  H
  H42      1.0000 0.39380  0.17350  0.19640  Biso   1.000  H
  H43      1.0000 0.39380  0.82650  0.80360  Biso   1.000  H
  H44      1.0000 0.60620  0.67350  0.30360  Biso   1.000  H
  H45      1.0000 0.10620  0.82650  0.69640  Biso   1.000  H
  H46      1.0000 0.89380  0.67350  0.19640  Biso   1.000  H
  H47      1.0000 0.89380  0.32650  0.80360  Biso   1.000  H
  H48      1.0000 0.10620  0.17350  0.30360  Biso   1.000  H
  C121     1.0000 0.43616  0.73330  0.20180  Biso   1.000  C
  C122     1.0000 0.56384  0.76670  0.70180  Biso   1.000  C
  C123     1.0000 0.56384  0.23330  0.29820  Biso   1.000  C
  C124     1.0000 0.43616  0.26670  0.79820  Biso   1.000  C
  C125     1.0000 0.93616  0.23330  0.20180  Biso   1.000  C
  C126     1.0000 0.06384  0.26670  0.70180  Biso   1.000  C
  C127     1.0000 0.06384  0.73330  0.29820  Biso   1.000  C
  C128     1.0000 0.93616  0.76670  0.79820  Biso   1.000  C
  C129     1.0000 0.56384  0.26670  0.79820  Biso   1.000  C
  C130     1.0000 0.43616  0.23330  0.29820  Biso   1.000  C
  C131     1.0000 0.43616  0.76670  0.70180  Biso   1.000  C
  C132     1.0000 0.56384  0.73330  0.20180  Biso   1.000  C
  C133     1.0000 0.06384  0.76670  0.79820  Biso   1.000  C
  C134     1.0000 0.93616  0.73330  0.29820  Biso   1.000  C
  C135     1.0000 0.93616  0.26670  0.70180  Biso   1.000  C
  C136     1.0000 0.06384  0.23330  0.20180  Biso   1.000  C
  C137     1.0000 0.00000  0.85860  0.03520  Biso   1.000  C
  C138     1.0000 0.00000  0.64140  0.53520  Biso   1.000  C
  C139     1.0000 0.00000  0.35860  0.46480  Biso   1.000  C
  C140     1.0000 0.00000  0.14140  0.96480  Biso   1.000  C
  C141     1.0000 0.50000  0.35860  0.03520  Biso   1.000  C
  C142     1.0000 0.50000  0.14140  0.53520  Biso   1.000  C
  C143     1.0000 0.50000  0.85860  0.46480  Biso   1.000  C
  C144     1.0000 0.50000  0.64140  0.96480  Biso   1.000  C
  H49      1.0000 0.00000  0.82690  0.08490  Biso   1.000  H
  H50      1.0000 0.00000  0.67310  0.58490  Biso   1.000  H
  H51      1.0000 0.00000  0.32690  0.41510  Biso   1.000  H
  H52      1.0000 0.00000  0.17310  0.91510  Biso   1.000  H
  H53      1.0000 0.50000  0.32690  0.08490  Biso   1.000  H
  H54      1.0000 0.50000  0.17310  0.58490  Biso   1.000  H
  H55      1.0000 0.50000  0.82690  0.41510  Biso   1.000  H
  H56      1.0000 0.50000  0.67310  0.91510  Biso   1.000  H
  C145     1.0000 0.50000  0.75520  0.16380  Biso   1.000  C
  C146     1.0000 0.50000  0.74480  0.66380  Biso   1.000  C
  C147     1.0000 0.50000  0.25520  0.33620  Biso   1.000  C
  C148     1.0000 0.50000  0.24480  0.83620  Biso   1.000  C
  C149     1.0000 0.00000  0.25520  0.16380  Biso   1.000  C
  C150     1.0000 0.00000  0.24480  0.66380  Biso   1.000  C
  C151     1.0000 0.00000  0.75520  0.33620  Biso   1.000  C
  C152     1.0000 0.00000  0.74480  0.83620  Biso   1.000  C
  H57      1.0000 0.50000  0.78480  0.11240  Biso   1.000  H
  H58      1.0000 0.50000  0.71520  0.61240  Biso   1.000  H
  H59      1.0000 0.50000  0.28480  0.38760  Biso   1.000  H
  H60      1.0000 0.50000  0.21520  0.88760  Biso   1.000  H
  H61      1.0000 0.00000  0.28480  0.11240  Biso   1.000  H
  H62      1.0000 0.00000  0.21520  0.61240  Biso   1.000  H
  H63      1.0000 0.00000  0.78480  0.38760  Biso   1.000  H
  H64      1.0000 0.00000  0.71520  0.88760  Biso   1.000  H
  C153     1.0000 0.50000  0.61060  0.39450  Biso   1.000  C
  C154     1.0000 0.50000  0.88940  0.89450  Biso   1.000  C
  C155     1.0000 0.50000  0.11060  0.10550  Biso   1.000  C
  C156     1.0000 0.50000  0.38940  0.60550  Biso   1.000  C
  C157     1.0000 0.00000  0.11060  0.39450  Biso   1.000  C
  C158     1.0000 0.00000  0.38940  0.89450  Biso   1.000  C
  C159     1.0000 0.00000  0.61060  0.10550  Biso   1.000  C
  C160     1.0000 0.00000  0.88940  0.60550  Biso   1.000  C
  N1       1.0000 0.25000  0.99850  0.25000  Biso   1.000  N
  N2       1.0000 0.75000  0.50150  0.75000  Biso   1.000  N
  N3       1.0000 0.75000  0.49850  0.25000  Biso   1.000  N
  N4       1.0000 0.25000  0.00150  0.75000  Biso   1.000  N
  N5       1.0000 0.75000  0.00150  0.75000  Biso   1.000  N
  N6       1.0000 0.25000  0.49850  0.25000  Biso   1.000  N
  N7       1.0000 0.25000  0.50150  0.75000  Biso   1.000  N
  N8       1.0000 0.75000  0.99850  0.25000  Biso   1.000  N
  N9       1.0000 0.24001  0.88228  0.20560  Biso   1.000  N
  N10      1.0000 0.75999  0.61772  0.70560  Biso   1.000  N
  N11      1.0000 0.75999  0.38228  0.29440  Biso   1.000  N
  N12      1.0000 0.24001  0.11772  0.79440  Biso   1.000  N
  N13      1.0000 0.74001  0.38228  0.20560  Biso   1.000  N
  N14      1.0000 0.25999  0.11772  0.70560  Biso   1.000  N
  N15      1.0000 0.25999  0.88228  0.29440  Biso   1.000  N
  N16      1.0000 0.74001  0.61772  0.79440  Biso   1.000  N
  N17      1.0000 0.75999  0.11772  0.79440  Biso   1.000  N
  N18      1.0000 0.24001  0.38228  0.29440  Biso   1.000  N
  N19      1.0000 0.24001  0.61772  0.70560  Biso   1.000  N
  N20      1.0000 0.75999  0.88228  0.20560  Biso   1.000  N
  N21      1.0000 0.25999  0.61772  0.79440  Biso   1.000  N
  N22      1.0000 0.74001  0.88228  0.29440  Biso   1.000  N
  N23      1.0000 0.74001  0.11772  0.70560  Biso   1.000  N
  N24      1.0000 0.25999  0.38228  0.20560  Biso   1.000  N
  N25      1.0000 0.25000  0.07920  0.25000  Biso   1.000  N
  N26      1.0000 0.75000  0.42080  0.75000  Biso   1.000  N
  N27      1.0000 0.75000  0.57920  0.25000  Biso   1.000  N
  N28      1.0000 0.25000  0.92080  0.75000  Biso   1.000  N
  N29      1.0000 0.75000  0.92080  0.75000  Biso   1.000  N
  N30      1.0000 0.25000  0.57920  0.25000  Biso   1.000  N
  N31      1.0000 0.25000  0.42080  0.75000  Biso   1.000  N
  N32      1.0000 0.75000  0.07920  0.25000  Biso   1.000  N
  O1       1.0000 0.94010  0.01620  0.77000  Biso   1.000  O
  O2       1.0000 0.05990  0.48380  0.27000  Biso   1.000  O
  O3       1.0000 0.05990  0.51620  0.73000  Biso   1.000  O
  O4       1.0000 0.94010  0.98380  0.23000  Biso   1.000  O
  O5       1.0000 0.44010  0.51620  0.77000  Biso   1.000  O
  O6       1.0000 0.55990  0.98380  0.27000  Biso   1.000  O
  O7       1.0000 0.55990  0.01620  0.73000  Biso   1.000  O
  O8       1.0000 0.44010  0.48380  0.23000  Biso   1.000  O
  O9       1.0000 0.05990  0.98380  0.23000  Biso   1.000  O
  O10      1.0000 0.94010  0.51620  0.73000  Biso   1.000  O
  O11      1.0000 0.94010  0.48380  0.27000  Biso   1.000  O
  O12      1.0000 0.05990  0.01620  0.77000  Biso   1.000  O
  O13      1.0000 0.55990  0.48380  0.23000  Biso   1.000  O
  O14      1.0000 0.44010  0.01620  0.73000  Biso   1.000  O
  O15      1.0000 0.44010  0.98380  0.27000  Biso   1.000  O
  O16      1.0000 0.55990  0.51620  0.77000  Biso   1.000  O
  O17      1.0000 0.20776  0.68781  0.08040  Biso   1.000  O
  O18      1.0000 0.79224  0.81219  0.58040  Biso   1.000  O
  O19      1.0000 0.79224  0.18781  0.41960  Biso   1.000  O
  O20      1.0000 0.20776  0.31219  0.91960  Biso   1.000  O
  O21      1.0000 0.70776  0.18781  0.08040  Biso   1.000  O
  O22      1.0000 0.29224  0.31219  0.58040  Biso   1.000  O
  O23      1.0000 0.29224  0.68781  0.41960  Biso   1.000  O
  O24      1.0000 0.70776  0.81219  0.91960  Biso   1.000  O
  O25      1.0000 0.79224  0.31219  0.91960  Biso   1.000  O
  O26      1.0000 0.20776  0.18781  0.41960  Biso   1.000  O
  O27      1.0000 0.20776  0.81219  0.58040  Biso   1.000  O
  O28      1.0000 0.79224  0.68781  0.08040  Biso   1.000  O
  O29      1.0000 0.29224  0.81219  0.91960  Biso   1.000  O
  O30      1.0000 0.70776  0.68781  0.41960  Biso   1.000  O
  O31      1.0000 0.70776  0.31219  0.58040  Biso   1.000  O
  O32      1.0000 0.29224  0.18781  0.08040  Biso   1.000  O
  H65      1.0000 0.24540  0.67300  0.05930  Biso   1.000  H
  H66      1.0000 0.75460  0.82700  0.55930  Biso   1.000  H
  H67      1.0000 0.75460  0.17300  0.44070  Biso   1.000  H
  H68      1.0000 0.24540  0.32700  0.94070  Biso   1.000  H
  H69      1.0000 0.74540  0.17300  0.05930  Biso   1.000  H
  H70      1.0000 0.25460  0.32700  0.55930  Biso   1.000  H
  H71      1.0000 0.25460  0.67300  0.44070  Biso   1.000  H
  H72      1.0000 0.74540  0.82700  0.94070  Biso   1.000  H
  H73      1.0000 0.75460  0.32700  0.94070  Biso   1.000  H
  H74      1.0000 0.24540  0.17300  0.44070  Biso   1.000  H
  H75      1.0000 0.24540  0.82700  0.55930  Biso   1.000  H
  H76      1.0000 0.75460  0.67300  0.05930  Biso   1.000  H
  H77      1.0000 0.25460  0.82700  0.94070  Biso   1.000  H
  H78      1.0000 0.74540  0.67300  0.44070  Biso   1.000  H
  H79      1.0000 0.74540  0.32700  0.55930  Biso   1.000  H
  H80      1.0000 0.25460  0.17300  0.05930  Biso   1.000  H
  H81      1.0000 0.18850  0.69580  0.02990  Biso   1.000  H
  H82      1.0000 0.81150  0.80420  0.52990  Biso   1.000  H
  H83      1.0000 0.81150  0.19580  0.47010  Biso   1.000  H
  H84      1.0000 0.18850  0.30420  0.97010  Biso   1.000  H
  H85      1.0000 0.68850  0.19580  0.02990  Biso   1.000  H
  H86      1.0000 0.31150  0.30420  0.52990  Biso   1.000  H
  H87      1.0000 0.31150  0.69580  0.47010  Biso   1.000  H
  H88      1.0000 0.68850  0.80420  0.97010  Biso   1.000  H
  H89      1.0000 0.81150  0.30420  0.97010  Biso   1.000  H
  H90      1.0000 0.18850  0.19580  0.47010  Biso   1.000  H
  H91      1.0000 0.18850  0.80420  0.52990  Biso   1.000  H
  H92      1.0000 0.81150  0.69580  0.02990  Biso   1.000  H
  H93      1.0000 0.31150  0.80420  0.97010  Biso   1.000  H
  H94      1.0000 0.68850  0.69580  0.47010  Biso   1.000  H
  H95      1.0000 0.68850  0.30420  0.52990  Biso   1.000  H
  H96      1.0000 0.31150  0.19580  0.02990  Biso   1.000  H
  O33      1.0000 0.18946  0.88330  0.00140  Biso   1.000  O
  O34      1.0000 0.81054  0.61670  0.50140  Biso   1.000  O
  O35      1.0000 0.81054  0.38330  0.49860  Biso   1.000  O
  O36      1.0000 0.18946  0.11670  0.99860  Biso   1.000  O
  O37      1.0000 0.68946  0.38330  0.00140  Biso   1.000  O
  O38      1.0000 0.31054  0.11670  0.50140  Biso   1.000  O
  O39      1.0000 0.31054  0.88330  0.49860  Biso   1.000  O
  O40      1.0000 0.68946  0.61670  0.99860  Biso   1.000  O
  O41      1.0000 0.81054  0.11670  0.99860  Biso   1.000  O
  O42      1.0000 0.18946  0.38330  0.49860  Biso   1.000  O
  O43      1.0000 0.18946  0.61670  0.50140  Biso   1.000  O
  O44      1.0000 0.81054  0.88330  0.00140  Biso   1.000  O
  O45      1.0000 0.31054  0.61670  0.99860  Biso   1.000  O
  O46      1.0000 0.68946  0.88330  0.49860  Biso   1.000  O
  O47      1.0000 0.68946  0.11670  0.50140  Biso   1.000  O
  O48      1.0000 0.31054  0.38330  0.00140  Biso   1.000  O
  O49      1.0000 0.59340  0.44100  0.39400  Biso   1.000  O
  O50      1.0000 0.40660  0.05900  0.89400  Biso   1.000  O
  O51      1.0000 0.40660  0.94100  0.10600  Biso   1.000  O
  O52      1.0000 0.59340  0.55900  0.60600  Biso   1.000  O
  O53      1.0000 0.09340  0.94100  0.39400  Biso   1.000  O
  O54      1.0000 0.90660  0.55900  0.89400  Biso   1.000  O
  O55      1.0000 0.90660  0.44100  0.10600  Biso   1.000  O
  O56      1.0000 0.09340  0.05900  0.60600  Biso   1.000  O
  O57      1.0000 0.40660  0.55900  0.60600  Biso   1.000  O
  O58      1.0000 0.59340  0.94100  0.10600  Biso   1.000  O
  O59      1.0000 0.59340  0.05900  0.89400  Biso   1.000  O
  O60      1.0000 0.40660  0.44100  0.39400  Biso   1.000  O
  O61      1.0000 0.90660  0.05900  0.60600  Biso   1.000  O
  O62      1.0000 0.09340  0.44100  0.10600  Biso   1.000  O
  O63      1.0000 0.09340  0.55900  0.89400  Biso   1.000  O
  O64      1.0000 0.90660  0.94100  0.39400  Biso   1.000  O
  H97      1.0000 0.57860  0.46320  0.34960  Biso   1.000  H
  H98      1.0000 0.42140  0.03680  0.84960  Biso   1.000  H
  H99      1.0000 0.42140  0.96320  0.15040  Biso   1.000  H
  H100     1.0000 0.57860  0.53680  0.65040  Biso   1.000  H
  H101     1.0000 0.07860  0.96320  0.34960  Biso   1.000  H
  H102     1.0000 0.92140  0.53680  0.84960  Biso   1.000  H
  H103     1.0000 0.92140  0.46320  0.15040  Biso   1.000  H
  H104     1.0000 0.07860  0.03680  0.65040  Biso   1.000  H
  H105     1.0000 0.42140  0.53680  0.65040  Biso   1.000  H
  H106     1.0000 0.57860  0.96320  0.15040  Biso   1.000  H
  H107     1.0000 0.57860  0.03680  0.84960  Biso   1.000  H
  H108     1.0000 0.42140  0.46320  0.34960  Biso   1.000  H
  H109     1.0000 0.92140  0.03680  0.65040  Biso   1.000  H
  H110     1.0000 0.07860  0.46320  0.15040  Biso   1.000  H
  H111     1.0000 0.07860  0.53680  0.84960  Biso   1.000  H
  H112     1.0000 0.92140  0.96320  0.34960  Biso   1.000  H
  H113     1.0000 0.59910  0.39320  0.39620  Biso   1.000  H
  H114     1.0000 0.40090  0.10680  0.89620  Biso   1.000  H
  H115     1.0000 0.40090  0.89320  0.10380  Biso   1.000  H
  H116     1.0000 0.59910  0.60680  0.60380  Biso   1.000  H
  H117     1.0000 0.09910  0.89320  0.39620  Biso   1.000  H
  H118     1.0000 0.90090  0.60680  0.89620  Biso   1.000  H
  H119     1.0000 0.90090  0.39320  0.10380  Biso   1.000  H
  H120     1.0000 0.09910  0.10680  0.60380  Biso   1.000  H
  H121     1.0000 0.40090  0.60680  0.60380  Biso   1.000  H
  H122     1.0000 0.59910  0.89320  0.10380  Biso   1.000  H
  H123     1.0000 0.59910  0.10680  0.89620  Biso   1.000  H
  H124     1.0000 0.40090  0.39320  0.39620  Biso   1.000  H
  H125     1.0000 0.90090  0.10680  0.60380  Biso   1.000  H
  H126     1.0000 0.09910  0.39320  0.10380  Biso   1.000  H
  H127     1.0000 0.09910  0.60680  0.89620  Biso   1.000  H
  H128     1.0000 0.90090  0.89320  0.39620  Biso   1.000  H
  O65      1.0000 0.13166  0.81430  0.10310  Biso   1.000  O
  O66      1.0000 0.86834  0.68570  0.60310  Biso   1.000  O
  O67      1.0000 0.86834  0.31430  0.39690  Biso   1.000  O
  O68      1.0000 0.13166  0.18570  0.89690  Biso   1.000  O
  O69      1.0000 0.63166  0.31430  0.10310  Biso   1.000  O
  O70      1.0000 0.36834  0.18570  0.60310  Biso   1.000  O
  O71      1.0000 0.36834  0.81430  0.39690  Biso   1.000  O
  O72      1.0000 0.63166  0.68570  0.89690  Biso   1.000  O
  O73      1.0000 0.86834  0.18570  0.89690  Biso   1.000  O
  O74      1.0000 0.13166  0.31430  0.39690  Biso   1.000  O
  O75      1.0000 0.13166  0.68570  0.60310  Biso   1.000  O
  O76      1.0000 0.86834  0.81430  0.10310  Biso   1.000  O
  O77      1.0000 0.36834  0.68570  0.89690  Biso   1.000  O
  O78      1.0000 0.63166  0.81430  0.39690  Biso   1.000  O
  O79      1.0000 0.63166  0.18570  0.60310  Biso   1.000  O
  O80      1.0000 0.36834  0.31430  0.10310  Biso   1.000  O
  O81      1.0000 0.20430  0.50000  0.00000  Biso   1.000  O
  O82      1.0000 0.79570  0.00000  0.50000  Biso   1.000  O
  O83      1.0000 0.70430  0.00000  0.00000  Biso   1.000  O
  O84      1.0000 0.29570  0.50000  0.50000  Biso   1.000  O
  O85      1.0000 0.79570  0.50000  0.00000  Biso   1.000  O
  O86      1.0000 0.20430  0.00000  0.50000  Biso   1.000  O
  O87      1.0000 0.29570  0.00000  0.00000  Biso   1.000  O
  O88      1.0000 0.70430  0.50000  0.50000  Biso   1.000  O
  O89      1.0000 0.31022  0.74227  0.20170  Biso   1.000  O
  O90      1.0000 0.68978  0.75773  0.70170  Biso   1.000  O
  O91      1.0000 0.68978  0.24227  0.29830  Biso   1.000  O
  O92      1.0000 0.31022  0.25773  0.79830  Biso   1.000  O
  O93      1.0000 0.81022  0.24227  0.20170  Biso   1.000  O
  O94      1.0000 0.18978  0.25773  0.70170  Biso   1.000  O
  O95      1.0000 0.18978  0.74227  0.29830  Biso   1.000  O
  O96      1.0000 0.81022  0.75773  0.79830  Biso   1.000  O
  O97      1.0000 0.68978  0.25773  0.79830  Biso   1.000  O
  O98      1.0000 0.31022  0.24227  0.29830  Biso   1.000  O
  O99      1.0000 0.31022  0.75773  0.70170  Biso   1.000  O
  O100     1.0000 0.68978  0.74227  0.20170  Biso   1.000  O
  O101     1.0000 0.18978  0.75773  0.79830  Biso   1.000  O
  O102     1.0000 0.81022  0.74227  0.29830  Biso   1.000  O
  O103     1.0000 0.81022  0.25773  0.70170  Biso   1.000  O
  O104     1.0000 0.18978  0.24227  0.20170  Biso   1.000  O
  O105     1.0000 0.36816  0.79204  0.08660  Biso   1.000  O
  O106     1.0000 0.63184  0.70796  0.58660  Biso   1.000  O
  O107     1.0000 0.63184  0.29204  0.41340  Biso   1.000  O
  O108     1.0000 0.36816  0.20796  0.91340  Biso   1.000  O
  O109     1.0000 0.86816  0.29204  0.08660  Biso   1.000  O
  O110     1.0000 0.13184  0.20796  0.58660  Biso   1.000  O
  O111     1.0000 0.13184  0.79204  0.41340  Biso   1.000  O
  O112     1.0000 0.86816  0.70796  0.91340  Biso   1.000  O
  O113     1.0000 0.63184  0.20796  0.91340  Biso   1.000  O
  O114     1.0000 0.36816  0.29204  0.41340  Biso   1.000  O
  O115     1.0000 0.36816  0.70796  0.58660  Biso   1.000  O
  O116     1.0000 0.63184  0.79204  0.08660  Biso   1.000  O
  O117     1.0000 0.13184  0.70796  0.91340  Biso   1.000  O
  O118     1.0000 0.86816  0.79204  0.41340  Biso   1.000  O
  O119     1.0000 0.86816  0.20796  0.58660  Biso   1.000  O
  O120     1.0000 0.13184  0.29204  0.08660  Biso   1.000  O
  O121     1.0000 0.55960  0.58810  0.42390  Biso   1.000  O
  O122     1.0000 0.44040  0.91190  0.92390  Biso   1.000  O
  O123     1.0000 0.44040  0.08810  0.07610  Biso   1.000  O
  O124     1.0000 0.55960  0.41190  0.57610  Biso   1.000  O
  O125     1.0000 0.05960  0.08810  0.42390  Biso   1.000  O
  O126     1.0000 0.94040  0.41190  0.92390  Biso   1.000  O
  O127     1.0000 0.94040  0.58810  0.07610  Biso   1.000  O
  O128     1.0000 0.05960  0.91190  0.57610  Biso   1.000  O
  O129     1.0000 0.44040  0.41190  0.57610  Biso   1.000  O
  O130     1.0000 0.55960  0.08810  0.07610  Biso   1.000  O
  O131     1.0000 0.55960  0.91190  0.92390  Biso   1.000  O
  O132     1.0000 0.44040  0.58810  0.42390  Biso   1.000  O
  O133     1.0000 0.94040  0.91190  0.57610  Biso   1.000  O
  O134     1.0000 0.05960  0.58810  0.07610  Biso   1.000  O
  O135     1.0000 0.05960  0.41190  0.92390  Biso   1.000  O
  O136     1.0000 0.94040  0.08810  0.42390  Biso   1.000  O
