data_image0
_cell_length_a       7.3442
_cell_length_b       36.483
_cell_length_c       9.1457
_cell_angle_alpha    90
_cell_angle_beta     92.962
_cell_angle_gamma    90

_symmetry_space_group_name_H-M    "P 1"
_symmetry_int_tables_number       1

loop_
  _symmetry_equiv_pos_as_xyz
  'x, y, z'

loop_
  _atom_site_label
  _atom_site_occupancy
  _atom_site_fract_x
  _atom_site_fract_y
  _atom_site_fract_z
  _atom_site_thermal_displace_type
  _atom_site_B_iso_or_equiv
  _atom_site_type_symbol
  C1       1.0000 0.54950  0.63826  0.44660  Biso   1.000  C
  C2       1.0000 0.45050  0.13826  0.05340  Biso   1.000  C
  C3       1.0000 0.45050  0.36174  0.55340  Biso   1.000  C
  C4       1.0000 0.54950  0.86174  0.94660  Biso   1.000  C
  C5       1.0000 0.48490  0.66406  0.54230  Biso   1.000  C
  C6       1.0000 0.51510  0.16406  0.95770  Biso   1.000  C
  C7       1.0000 0.51510  0.33594  0.45770  Biso   1.000  C
  C8       1.0000 0.48490  0.83594  0.04230  Biso   1.000  C
  C9       1.0000 0.43270  0.61781  0.70880  Biso   1.000  C
  C10      1.0000 0.56730  0.11781  0.79120  Biso   1.000  C
  C11      1.0000 0.56730  0.38219  0.29120  Biso   1.000  C
  C12      1.0000 0.43270  0.88219  0.20880  Biso   1.000  C
  C13      1.0000 0.53500  0.59313  0.62710  Biso   1.000  C
  C14      1.0000 0.46500  0.09313  0.87290  Biso   1.000  C
  C15      1.0000 0.46500  0.40687  0.37290  Biso   1.000  C
  C16      1.0000 0.53500  0.90687  0.12710  Biso   1.000  C
  C17      1.0000 0.58640  0.64197  0.28530  Biso   1.000  C
  C18      1.0000 0.41360  0.14197  0.21470  Biso   1.000  C
  C19      1.0000 0.41360  0.35803  0.71470  Biso   1.000  C
  C20      1.0000 0.58640  0.85803  0.78530  Biso   1.000  C
  C21      1.0000 0.48830  0.70514  0.51290  Biso   1.000  C
  C22      1.0000 0.51170  0.20514  0.98710  Biso   1.000  C
  C23      1.0000 0.51170  0.29486  0.48710  Biso   1.000  C
  C24      1.0000 0.48830  0.79486  0.01290  Biso   1.000  C
  C25      1.0000 0.60590  0.55600  0.66180  Biso   1.000  C
  C26      1.0000 0.39410  0.05600  0.83820  Biso   1.000  C
  C27      1.0000 0.39410  0.44400  0.33820  Biso   1.000  C
  C28      1.0000 0.60590  0.94400  0.16180  Biso   1.000  C
  C29      1.0000 0.61450  0.53980  0.80000  Biso   1.000  C
  C30      1.0000 0.38550  0.03980  0.70000  Biso   1.000  C
  C31      1.0000 0.38550  0.46020  0.20000  Biso   1.000  C
  C32      1.0000 0.61450  0.96020  0.30000  Biso   1.000  C
  H1       1.0000 0.57310  0.55260  0.88120  Biso   1.000  H
  H2       1.0000 0.42690  0.05260  0.61880  Biso   1.000  H
  H3       1.0000 0.42690  0.44740  0.11880  Biso   1.000  H
  H4       1.0000 0.57310  0.94740  0.38120  Biso   1.000  H
  C33      1.0000 0.68390  0.50505  0.81650  Biso   1.000  C
  C34      1.0000 0.31610  0.00505  0.68350  Biso   1.000  C
  C35      1.0000 0.31610  0.49495  0.18350  Biso   1.000  C
  C36      1.0000 0.68390  0.99495  0.31650  Biso   1.000  C
  H5       1.0000 0.68740  0.49360  0.90860  Biso   1.000  H
  H6       1.0000 0.31260  0.99360  0.59140  Biso   1.000  H
  H7       1.0000 0.31260  0.50640  0.09140  Biso   1.000  H
  H8       1.0000 0.68740  0.00640  0.40860  Biso   1.000  H
  C37      1.0000 0.74830  0.48709  0.69760  Biso   1.000  C
  C38      1.0000 0.25170  0.98709  0.80240  Biso   1.000  C
  C39      1.0000 0.25170  0.51291  0.30240  Biso   1.000  C
  C40      1.0000 0.74830  0.01291  0.19760  Biso   1.000  C
  H9       1.0000 0.79430  0.46310  0.70670  Biso   1.000  H
  H10      1.0000 0.20570  0.96310  0.79330  Biso   1.000  H
  H11      1.0000 0.20570  0.53690  0.29330  Biso   1.000  H
  H12      1.0000 0.79430  0.03690  0.20670  Biso   1.000  H
  C41      1.0000 0.74400  0.50516  0.56360  Biso   1.000  C
  C42      1.0000 0.25600  0.00516  0.93640  Biso   1.000  C
  C43      1.0000 0.25600  0.49484  0.43640  Biso   1.000  C
  C44      1.0000 0.74400  0.99484  0.06360  Biso   1.000  C
  H13      1.0000 0.79100  0.49310  0.48280  Biso   1.000  H
  H14      1.0000 0.20900  0.99310  0.01720  Biso   1.000  H
  H15      1.0000 0.20900  0.50690  0.51720  Biso   1.000  H
  H16      1.0000 0.79100  0.00690  0.98280  Biso   1.000  H
  C45      1.0000 0.32260  0.60716  0.83470  Biso   1.000  C
  C46      1.0000 0.67740  0.10716  0.66530  Biso   1.000  C
  C47      1.0000 0.67740  0.39284  0.16530  Biso   1.000  C
  C48      1.0000 0.32260  0.89284  0.33470  Biso   1.000  C
  C49      1.0000 0.21800  0.57569  0.83120  Biso   1.000  C
  C50      1.0000 0.78200  0.07569  0.66880  Biso   1.000  C
  C51      1.0000 0.78200  0.42431  0.16880  Biso   1.000  C
  C52      1.0000 0.21800  0.92431  0.33120  Biso   1.000  C
  H17      1.0000 0.22380  0.55900  0.75320  Biso   1.000  H
  H18      1.0000 0.77620  0.05900  0.74680  Biso   1.000  H
  H19      1.0000 0.77620  0.44100  0.24680  Biso   1.000  H
  H20      1.0000 0.22380  0.94100  0.25320  Biso   1.000  H
  C53      1.0000 0.10490  0.56915  0.94430  Biso   1.000  C
  C54      1.0000 0.89510  0.06915  0.55570  Biso   1.000  C
  C55      1.0000 0.89510  0.43085  0.05570  Biso   1.000  C
  C56      1.0000 0.10490  0.93085  0.44430  Biso   1.000  C
  H21      1.0000 0.03300  0.54780  0.94440  Biso   1.000  H
  H22      1.0000 0.96700  0.04780  0.55560  Biso   1.000  H
  H23      1.0000 0.96700  0.45220  0.05560  Biso   1.000  H
  H24      1.0000 0.03300  0.95220  0.44440  Biso   1.000  H
  C57      1.0000 0.09810  0.59386  0.05600  Biso   1.000  C
  C58      1.0000 0.90190  0.09386  0.44400  Biso   1.000  C
  C59      1.0000 0.90190  0.40614  0.94400  Biso   1.000  C
  C60      1.0000 0.09810  0.90614  0.55600  Biso   1.000  C
  H25      1.0000 0.02110  0.58990  0.13340  Biso   1.000  H
  H26      1.0000 0.97890  0.08990  0.36660  Biso   1.000  H
  H27      1.0000 0.97890  0.41010  0.86660  Biso   1.000  H
  H28      1.0000 0.02110  0.91010  0.63340  Biso   1.000  H
  C61      1.0000 0.20700  0.62486  0.05300  Biso   1.000  C
  C62      1.0000 0.79300  0.12486  0.44700  Biso   1.000  C
  C63      1.0000 0.79300  0.37514  0.94700  Biso   1.000  C
  C64      1.0000 0.20700  0.87514  0.55300  Biso   1.000  C
  H29      1.0000 0.20240  0.64190  0.12990  Biso   1.000  H
  H30      1.0000 0.79760  0.14190  0.37010  Biso   1.000  H
  H31      1.0000 0.79760  0.35810  0.87010  Biso   1.000  H
  H32      1.0000 0.20240  0.85810  0.62990  Biso   1.000  H
  N1       1.0000 0.58080  0.60445  0.49530  Biso   1.000  N
  N2       1.0000 0.41920  0.10445  0.00470  Biso   1.000  N
  N3       1.0000 0.41920  0.39555  0.50470  Biso   1.000  N
  N4       1.0000 0.58080  0.89555  0.99530  Biso   1.000  N
  N5       1.0000 0.42160  0.65299  0.67040  Biso   1.000  N
  N6       1.0000 0.57840  0.15299  0.82960  Biso   1.000  N
  N7       1.0000 0.57840  0.34701  0.32960  Biso   1.000  N
  N8       1.0000 0.42160  0.84701  0.17040  Biso   1.000  N
  N9       1.0000 0.67670  0.53854  0.54510  Biso   1.000  N
  N10      1.0000 0.32330  0.03854  0.95490  Biso   1.000  N
  N11      1.0000 0.32330  0.46146  0.45490  Biso   1.000  N
  N12      1.0000 0.67670  0.96146  0.04510  Biso   1.000  N
  N13      1.0000 0.31750  0.63146  0.94570  Biso   1.000  N
  N14      1.0000 0.68250  0.13146  0.55430  Biso   1.000  N
  N15      1.0000 0.68250  0.36854  0.05430  Biso   1.000  N
  N16      1.0000 0.31750  0.86854  0.44570  Biso   1.000  N
  O1       1.0000 0.67030  0.61435  0.23260  Biso   1.000  O
  O2       1.0000 0.32970  0.11435  0.26740  Biso   1.000  O
  O3       1.0000 0.32970  0.38565  0.76740  Biso   1.000  O
  O4       1.0000 0.67030  0.88565  0.73260  Biso   1.000  O
  O5       1.0000 0.68140  0.71077  0.95200  Biso   1.000  O
  O6       1.0000 0.31860  0.21077  0.54800  Biso   1.000  O
  O7       1.0000 0.31860  0.28923  0.04800  Biso   1.000  O
  O8       1.0000 0.68140  0.78923  0.45200  Biso   1.000  O
  H33      1.0000 0.65220  0.73490  0.94910  Biso   1.000  H
  H34      1.0000 0.34780  0.23490  0.55090  Biso   1.000  H
  H35      1.0000 0.34780  0.26510  0.05090  Biso   1.000  H
  H36      1.0000 0.65220  0.76510  0.44910  Biso   1.000  H
  H37      1.0000 0.77930  0.70890  0.03980  Biso   1.000  H
  H38      1.0000 0.22070  0.20890  0.46020  Biso   1.000  H
  H39      1.0000 0.22070  0.29110  0.96020  Biso   1.000  H
  H40      1.0000 0.77930  0.79110  0.53980  Biso   1.000  H
  O9       1.0000 0.52590  0.66868  0.21620  Biso   1.000  O
  O10      1.0000 0.47410  0.16868  0.28380  Biso   1.000  O
  O11      1.0000 0.47410  0.33132  0.78380  Biso   1.000  O
  O12      1.0000 0.52590  0.83132  0.71620  Biso   1.000  O
  O13      1.0000 0.68610  0.63464  0.94760  Biso   1.000  O
  O14      1.0000 0.31390  0.13464  0.55240  Biso   1.000  O
  O15      1.0000 0.31390  0.36536  0.05240  Biso   1.000  O
  O16      1.0000 0.68610  0.86536  0.44760  Biso   1.000  O
  H41      1.0000 0.77140  0.63770  0.89650  Biso   1.000  H
  H42      1.0000 0.22860  0.13770  0.60350  Biso   1.000  H
  H43      1.0000 0.22860  0.36230  0.10350  Biso   1.000  H
  H44      1.0000 0.77140  0.86230  0.39650  Biso   1.000  H
  H45      1.0000 0.71960  0.62540  0.02620  Biso   1.000  H
  H46      1.0000 0.28040  0.12540  0.47380  Biso   1.000  H
  H47      1.0000 0.28040  0.37460  0.97380  Biso   1.000  H
  H48      1.0000 0.71960  0.87460  0.52620  Biso   1.000  H
  O17      1.0000 0.29710  0.70838  0.96750  Biso   1.000  O
  O18      1.0000 0.70290  0.20838  0.53250  Biso   1.000  O
  O19      1.0000 0.70290  0.29162  0.03250  Biso   1.000  O
  O20      1.0000 0.29710  0.79162  0.46750  Biso   1.000  O
  H49      1.0000 0.21830  0.70960  0.89420  Biso   1.000  H
  H50      1.0000 0.78170  0.20960  0.60580  Biso   1.000  H
  H51      1.0000 0.78170  0.29040  0.10580  Biso   1.000  H
  H52      1.0000 0.21830  0.79040  0.39420  Biso   1.000  H
  H53      1.0000 0.32680  0.72980  0.98890  Biso   1.000  H
  H54      1.0000 0.67320  0.22980  0.51110  Biso   1.000  H
  H55      1.0000 0.67320  0.27020  0.01110  Biso   1.000  H
  H56      1.0000 0.32680  0.77020  0.48890  Biso   1.000  H
  O21      1.0000 0.62970  0.71769  0.47020  Biso   1.000  O
  O22      1.0000 0.37030  0.21769  0.02980  Biso   1.000  O
  O23      1.0000 0.37030  0.28231  0.52980  Biso   1.000  O
  O24      1.0000 0.62970  0.78231  0.97020  Biso   1.000  O
  O25      1.0000 0.34630  0.72233  0.53540  Biso   1.000  O
  O26      1.0000 0.65370  0.22233  0.96460  Biso   1.000  O
  O27      1.0000 0.65370  0.27767  0.46460  Biso   1.000  O
  O28      1.0000 0.34630  0.77767  0.03540  Biso   1.000  O
  Cu1      1.0000 0.71237  0.57161  0.37002  Biso   1.000  Cu
  Cu2      1.0000 0.28763  0.07161  0.12998  Biso   1.000  Cu
  Cu3      1.0000 0.28763  0.42839  0.62998  Biso   1.000  Cu
  Cu4      1.0000 0.71237  0.92839  0.87002  Biso   1.000  Cu
  Cu5      1.0000 0.49668  0.67286  0.96352  Biso   1.000  Cu
  Cu6      1.0000 0.50332  0.17286  0.53648  Biso   1.000  Cu
  Cu7      1.0000 0.50332  0.32714  0.03648  Biso   1.000  Cu
  Cu8      1.0000 0.49668  0.82714  0.46352  Biso   1.000  Cu
  Br1      1.0000 0.04655  0.59357  0.47062  Biso   1.000  Br
  Br2      1.0000 0.95345  0.09357  0.02938  Biso   1.000  Br
  Br3      1.0000 0.95345  0.40643  0.52938  Biso   1.000  Br
  Br4      1.0000 0.04655  0.90643  0.97062  Biso   1.000  Br
  Br5      1.0000 0.76971  0.52768  0.19255  Biso   1.000  Br
  Br6      1.0000 0.23029  0.02768  0.30745  Biso   1.000  Br
  Br7      1.0000 0.23029  0.47232  0.80745  Biso   1.000  Br
  Br8      1.0000 0.76971  0.97232  0.69255  Biso   1.000  Br
  C65      1.0000 0.85800  0.72140  0.22350  Biso   1.000  C
  C66      1.0000 0.14200  0.22140  0.27650  Biso   1.000  C
  C67      1.0000 0.14200  0.27860  0.77650  Biso   1.000  C
  C68      1.0000 0.85800  0.77860  0.72350  Biso   1.000  C
  H57      1.0000 0.91970  0.73260  0.30840  Biso   1.000  H
  H58      1.0000 0.08030  0.23260  0.19160  Biso   1.000  H
  H59      1.0000 0.08030  0.26740  0.69160  Biso   1.000  H
  H60      1.0000 0.91970  0.76740  0.80840  Biso   1.000  H
  H61      1.0000 0.79680  0.69920  0.25310  Biso   1.000  H
  H62      1.0000 0.20320  0.19920  0.24690  Biso   1.000  H
  H63      1.0000 0.20320  0.30080  0.74690  Biso   1.000  H
  H64      1.0000 0.79680  0.80080  0.75310  Biso   1.000  H
  H65      1.0000 0.76900  0.73830  0.18020  Biso   1.000  H
  H66      1.0000 0.23100  0.23830  0.31980  Biso   1.000  H
  H67      1.0000 0.23100  0.26170  0.81980  Biso   1.000  H
  H68      1.0000 0.76900  0.76170  0.68020  Biso   1.000  H
  O29      1.0000 0.97500  0.71330  0.12940  Biso   1.000  O
  O30      1.0000 0.02500  0.21330  0.37060  Biso   1.000  O
  O31      1.0000 0.02500  0.28670  0.87060  Biso   1.000  O
  O32      1.0000 0.97500  0.78670  0.62940  Biso   1.000  O
  H69      1.0000 0.98580  0.69070  0.12450  Biso   1.000  H
  H70      1.0000 0.01420  0.19070  0.37550  Biso   1.000  H
  H71      1.0000 0.01420  0.30930  0.87550  Biso   1.000  H
  H72      1.0000 0.98580  0.80930  0.62450  Biso   1.000  H
  O33      1.0000 0.90020  0.64637  0.73780  Biso   1.000  O
  O34      1.0000 0.09980  0.14637  0.76220  Biso   1.000  O
  O35      1.0000 0.09980  0.35363  0.26220  Biso   1.000  O
  O36      1.0000 0.90020  0.85363  0.23780  Biso   1.000  O
  H73      1.0000 0.94720  0.62920  0.67540  Biso   1.000  H
  H74      1.0000 0.05280  0.12920  0.82460  Biso   1.000  H
  H75      1.0000 0.05280  0.37080  0.32460  Biso   1.000  H
  H76      1.0000 0.94720  0.87080  0.17540  Biso   1.000  H
  H77      1.0000 0.95350  0.66710  0.73570  Biso   1.000  H
  H78      1.0000 0.04650  0.16710  0.76430  Biso   1.000  H
  H79      1.0000 0.04650  0.33290  0.26430  Biso   1.000  H
  H80      1.0000 0.95350  0.83290  0.23570  Biso   1.000  H
  O37      1.0000 0.07510  0.71315  0.72680  Biso   1.000  O
  O38      1.0000 0.92490  0.21315  0.77320  Biso   1.000  O
  O39      1.0000 0.92490  0.28685  0.27320  Biso   1.000  O
  O40      1.0000 0.07510  0.78685  0.22680  Biso   1.000  O
  H81      1.0000 0.00540  0.72850  0.70670  Biso   1.000  H
  H82      1.0000 0.99460  0.22850  0.79330  Biso   1.000  H
  H83      1.0000 0.99460  0.27150  0.29330  Biso   1.000  H
  H84      1.0000 0.00540  0.77150  0.20670  Biso   1.000  H
  H85      1.0000 0.15950  0.71250  0.66850  Biso   1.000  H
  H86      1.0000 0.84050  0.21250  0.83150  Biso   1.000  H
  H87      1.0000 0.84050  0.28750  0.33150  Biso   1.000  H
  H88      1.0000 0.15950  0.78750  0.16850  Biso   1.000  H
  O41      1.0000 0.95780  0.68330  0.39200  Biso   1.000  O
  O42      1.0000 0.04220  0.18330  0.10800  Biso   1.000  O
  O43      1.0000 0.04220  0.31670  0.60800  Biso   1.000  O
  O44      1.0000 0.95780  0.81670  0.89200  Biso   1.000  O
  H89      1.0000 0.97830  0.65930  0.42140  Biso   1.000  H
  H90      1.0000 0.02170  0.15930  0.07860  Biso   1.000  H
  H91      1.0000 0.02170  0.34070  0.57860  Biso   1.000  H
  H92      1.0000 0.97830  0.84070  0.92140  Biso   1.000  H
  H93      1.0000 0.84300  0.69220  0.43310  Biso   1.000  H
  H94      1.0000 0.15700  0.19220  0.06690  Biso   1.000  H
  H95      1.0000 0.15700  0.30780  0.56690  Biso   1.000  H
  H96      1.0000 0.84300  0.80780  0.93310  Biso   1.000  H
  O45      1.0000 0.09760  0.67400  0.34060  Biso   1.000  O
  O46      1.0000 0.90240  0.17400  0.15940  Biso   1.000  O
  O47      1.0000 0.90240  0.32600  0.65940  Biso   1.000  O
  O48      1.0000 0.09760  0.82600  0.84060  Biso   1.000  O
