data_image0
_cell_length_a       11.5095
_cell_length_b       11.5095
_cell_length_c       15.4286
_cell_angle_alpha    90
_cell_angle_beta     90
_cell_angle_gamma    90

_symmetry_space_group_name_H-M    "P 1"
_symmetry_int_tables_number       1

loop_
  _symmetry_equiv_pos_as_xyz
  'x, y, z'

loop_
  _atom_site_label
  _atom_site_occupancy
  _atom_site_fract_x
  _atom_site_fract_y
  _atom_site_fract_z
  _atom_site_thermal_displace_type
  _atom_site_B_iso_or_equiv
  _atom_site_type_symbol
  C1       1.0000 0.71120  0.40120  0.40240  Biso   1.000  C
  C2       1.0000 0.78880  0.09880  0.40240  Biso   1.000  C
  C3       1.0000 0.09880  0.71120  0.40240  Biso   1.000  C
  C4       1.0000 0.40120  0.78880  0.40240  Biso   1.000  C
  C5       1.0000 0.28880  0.90120  0.09760  Biso   1.000  C
  C6       1.0000 0.21120  0.59880  0.09760  Biso   1.000  C
  C7       1.0000 0.90120  0.21120  0.09760  Biso   1.000  C
  C8       1.0000 0.59880  0.28880  0.09760  Biso   1.000  C
  C9       1.0000 0.28880  0.59880  0.59760  Biso   1.000  C
  C10      1.0000 0.21120  0.90120  0.59760  Biso   1.000  C
  C11      1.0000 0.90120  0.28880  0.59760  Biso   1.000  C
  C12      1.0000 0.59880  0.21120  0.59760  Biso   1.000  C
  C13      1.0000 0.71120  0.09880  0.90240  Biso   1.000  C
  C14      1.0000 0.78880  0.40120  0.90240  Biso   1.000  C
  C15      1.0000 0.09880  0.78880  0.90240  Biso   1.000  C
  C16      1.0000 0.40120  0.71120  0.90240  Biso   1.000  C
  H1       1.0000 0.79280  0.40170  0.40330  Biso   1.000  H
  H2       1.0000 0.70720  0.09830  0.40330  Biso   1.000  H
  H3       1.0000 0.09830  0.79280  0.40330  Biso   1.000  H
  H4       1.0000 0.40170  0.70720  0.40330  Biso   1.000  H
  H5       1.0000 0.20720  0.90170  0.09670  Biso   1.000  H
  H6       1.0000 0.29280  0.59830  0.09670  Biso   1.000  H
  H7       1.0000 0.90170  0.29280  0.09670  Biso   1.000  H
  H8       1.0000 0.59830  0.20720  0.09670  Biso   1.000  H
  H9       1.0000 0.20720  0.59830  0.59670  Biso   1.000  H
  H10      1.0000 0.29280  0.90170  0.59670  Biso   1.000  H
  H11      1.0000 0.90170  0.20720  0.59670  Biso   1.000  H
  H12      1.0000 0.59830  0.29280  0.59670  Biso   1.000  H
  H13      1.0000 0.79280  0.09830  0.90330  Biso   1.000  H
  H14      1.0000 0.70720  0.40170  0.90330  Biso   1.000  H
  H15      1.0000 0.09830  0.70720  0.90330  Biso   1.000  H
  H16      1.0000 0.40170  0.79280  0.90330  Biso   1.000  H
  C17      1.0000 0.65270  0.46690  0.46440  Biso   1.000  C
  C18      1.0000 0.84730  0.03310  0.46440  Biso   1.000  C
  C19      1.0000 0.03310  0.65270  0.46440  Biso   1.000  C
  C20      1.0000 0.46690  0.84730  0.46440  Biso   1.000  C
  C21      1.0000 0.34730  0.96690  0.03560  Biso   1.000  C
  C22      1.0000 0.15270  0.53310  0.03560  Biso   1.000  C
  C23      1.0000 0.96690  0.15270  0.03560  Biso   1.000  C
  C24      1.0000 0.53310  0.34730  0.03560  Biso   1.000  C
  C25      1.0000 0.34730  0.53310  0.53560  Biso   1.000  C
  C26      1.0000 0.15270  0.96690  0.53560  Biso   1.000  C
  C27      1.0000 0.96690  0.34730  0.53560  Biso   1.000  C
  C28      1.0000 0.53310  0.15270  0.53560  Biso   1.000  C
  C29      1.0000 0.65270  0.03310  0.96440  Biso   1.000  C
  C30      1.0000 0.84730  0.46690  0.96440  Biso   1.000  C
  C31      1.0000 0.03310  0.84730  0.96440  Biso   1.000  C
  C32      1.0000 0.46690  0.65270  0.96440  Biso   1.000  C
  H17      1.0000 0.69480  0.51180  0.50440  Biso   1.000  H
  H18      1.0000 0.80520  0.98820  0.50440  Biso   1.000  H
  H19      1.0000 0.98820  0.69480  0.50440  Biso   1.000  H
  H20      1.0000 0.51180  0.80520  0.50440  Biso   1.000  H
  H21      1.0000 0.30520  0.01180  0.99560  Biso   1.000  H
  H22      1.0000 0.19480  0.48820  0.99560  Biso   1.000  H
  H23      1.0000 0.01180  0.19480  0.99560  Biso   1.000  H
  H24      1.0000 0.48820  0.30520  0.99560  Biso   1.000  H
  H25      1.0000 0.30520  0.48820  0.49560  Biso   1.000  H
  H26      1.0000 0.19480  0.01180  0.49560  Biso   1.000  H
  H27      1.0000 0.01180  0.30520  0.49560  Biso   1.000  H
  H28      1.0000 0.48820  0.19480  0.49560  Biso   1.000  H
  H29      1.0000 0.69480  0.98820  0.00440  Biso   1.000  H
  H30      1.0000 0.80520  0.51180  0.00440  Biso   1.000  H
  H31      1.0000 0.98820  0.80520  0.00440  Biso   1.000  H
  H32      1.0000 0.51180  0.69480  0.00440  Biso   1.000  H
  C33      1.0000 0.53290  0.46610  0.46690  Biso   1.000  C
  C34      1.0000 0.96710  0.03390  0.46690  Biso   1.000  C
  C35      1.0000 0.03390  0.53290  0.46690  Biso   1.000  C
  C36      1.0000 0.46610  0.96710  0.46690  Biso   1.000  C
  C37      1.0000 0.46710  0.96610  0.03310  Biso   1.000  C
  C38      1.0000 0.03290  0.53390  0.03310  Biso   1.000  C
  C39      1.0000 0.96610  0.03290  0.03310  Biso   1.000  C
  C40      1.0000 0.53390  0.46710  0.03310  Biso   1.000  C
  C41      1.0000 0.46710  0.53390  0.53310  Biso   1.000  C
  C42      1.0000 0.03290  0.96610  0.53310  Biso   1.000  C
  C43      1.0000 0.96610  0.46710  0.53310  Biso   1.000  C
  C44      1.0000 0.53390  0.03290  0.53310  Biso   1.000  C
  C45      1.0000 0.53290  0.03390  0.96690  Biso   1.000  C
  C46      1.0000 0.96710  0.46610  0.96690  Biso   1.000  C
  C47      1.0000 0.03390  0.96710  0.96690  Biso   1.000  C
  C48      1.0000 0.46610  0.53290  0.96690  Biso   1.000  C
  C49      1.0000 0.47570  0.39930  0.40340  Biso   1.000  C
  C50      1.0000 0.02430  0.10070  0.40340  Biso   1.000  C
  C51      1.0000 0.10070  0.47570  0.40340  Biso   1.000  C
  C52      1.0000 0.39930  0.02430  0.40340  Biso   1.000  C
  C53      1.0000 0.52430  0.89930  0.09660  Biso   1.000  C
  C54      1.0000 0.97570  0.60070  0.09660  Biso   1.000  C
  C55      1.0000 0.89930  0.97570  0.09660  Biso   1.000  C
  C56      1.0000 0.60070  0.52430  0.09660  Biso   1.000  C
  C57      1.0000 0.52430  0.60070  0.59660  Biso   1.000  C
  C58      1.0000 0.97570  0.89930  0.59660  Biso   1.000  C
  C59      1.0000 0.89930  0.52430  0.59660  Biso   1.000  C
  C60      1.0000 0.60070  0.97570  0.59660  Biso   1.000  C
  C61      1.0000 0.47570  0.10070  0.90340  Biso   1.000  C
  C62      1.0000 0.02430  0.39930  0.90340  Biso   1.000  C
  C63      1.0000 0.10070  0.02430  0.90340  Biso   1.000  C
  C64      1.0000 0.39930  0.47570  0.90340  Biso   1.000  C
  H33      1.0000 0.39420  0.39500  0.40220  Biso   1.000  H
  H34      1.0000 0.10580  0.10500  0.40220  Biso   1.000  H
  H35      1.0000 0.10500  0.39420  0.40220  Biso   1.000  H
  H36      1.0000 0.39500  0.10580  0.40220  Biso   1.000  H
  H37      1.0000 0.60580  0.89500  0.09780  Biso   1.000  H
  H38      1.0000 0.89420  0.60500  0.09780  Biso   1.000  H
  H39      1.0000 0.89500  0.89420  0.09780  Biso   1.000  H
  H40      1.0000 0.60500  0.60580  0.09780  Biso   1.000  H
  H41      1.0000 0.60580  0.60500  0.59780  Biso   1.000  H
  H42      1.0000 0.89420  0.89500  0.59780  Biso   1.000  H
  H43      1.0000 0.89500  0.60580  0.59780  Biso   1.000  H
  H44      1.0000 0.60500  0.89420  0.59780  Biso   1.000  H
  H45      1.0000 0.39420  0.10500  0.90220  Biso   1.000  H
  H46      1.0000 0.10580  0.39500  0.90220  Biso   1.000  H
  H47      1.0000 0.10500  0.10580  0.90220  Biso   1.000  H
  H48      1.0000 0.39500  0.39420  0.90220  Biso   1.000  H
  C65      1.0000 0.54120  0.34090  0.34370  Biso   1.000  C
  C66      1.0000 0.95880  0.15910  0.34370  Biso   1.000  C
  C67      1.0000 0.15910  0.54120  0.34370  Biso   1.000  C
  C68      1.0000 0.34090  0.95880  0.34370  Biso   1.000  C
  C69      1.0000 0.45880  0.84090  0.15630  Biso   1.000  C
  C70      1.0000 0.04120  0.65910  0.15630  Biso   1.000  C
  C71      1.0000 0.84090  0.04120  0.15630  Biso   1.000  C
  C72      1.0000 0.65910  0.45880  0.15630  Biso   1.000  C
  C73      1.0000 0.45880  0.65910  0.65630  Biso   1.000  C
  C74      1.0000 0.04120  0.84090  0.65630  Biso   1.000  C
  C75      1.0000 0.84090  0.45880  0.65630  Biso   1.000  C
  C76      1.0000 0.65910  0.04120  0.65630  Biso   1.000  C
  C77      1.0000 0.54120  0.15910  0.84370  Biso   1.000  C
  C78      1.0000 0.95880  0.34090  0.84370  Biso   1.000  C
  C79      1.0000 0.15910  0.95880  0.84370  Biso   1.000  C
  C80      1.0000 0.34090  0.54120  0.84370  Biso   1.000  C
  H49      1.0000 0.50190  0.29960  0.30010  Biso   1.000  H
  H50      1.0000 0.99810  0.20040  0.30010  Biso   1.000  H
  H51      1.0000 0.20040  0.50190  0.30010  Biso   1.000  H
  H52      1.0000 0.29960  0.99810  0.30010  Biso   1.000  H
  H53      1.0000 0.49810  0.79960  0.19990  Biso   1.000  H
  H54      1.0000 0.00190  0.70040  0.19990  Biso   1.000  H
  H55      1.0000 0.79960  0.00190  0.19990  Biso   1.000  H
  H56      1.0000 0.70040  0.49810  0.19990  Biso   1.000  H
  H57      1.0000 0.49810  0.70040  0.69990  Biso   1.000  H
  H58      1.0000 0.00190  0.79960  0.69990  Biso   1.000  H
  H59      1.0000 0.79960  0.49810  0.69990  Biso   1.000  H
  H60      1.0000 0.70040  0.00190  0.69990  Biso   1.000  H
  H61      1.0000 0.50190  0.20040  0.80010  Biso   1.000  H
  H62      1.0000 0.99810  0.29960  0.80010  Biso   1.000  H
  H63      1.0000 0.20040  0.99810  0.80010  Biso   1.000  H
  H64      1.0000 0.29960  0.50190  0.80010  Biso   1.000  H
  N1       1.0000 0.65910  0.33850  0.34300  Biso   1.000  N
  N2       1.0000 0.84090  0.16150  0.34300  Biso   1.000  N
  N3       1.0000 0.16150  0.65910  0.34300  Biso   1.000  N
  N4       1.0000 0.33850  0.84090  0.34300  Biso   1.000  N
  N5       1.0000 0.34090  0.83850  0.15700  Biso   1.000  N
  N6       1.0000 0.15910  0.66150  0.15700  Biso   1.000  N
  N7       1.0000 0.83850  0.15910  0.15700  Biso   1.000  N
  N8       1.0000 0.66150  0.34090  0.15700  Biso   1.000  N
  N9       1.0000 0.34090  0.66150  0.65700  Biso   1.000  N
  N10      1.0000 0.15910  0.83850  0.65700  Biso   1.000  N
  N11      1.0000 0.83850  0.34090  0.65700  Biso   1.000  N
  N12      1.0000 0.66150  0.15910  0.65700  Biso   1.000  N
  N13      1.0000 0.65910  0.16150  0.84300  Biso   1.000  N
  N14      1.0000 0.84090  0.33850  0.84300  Biso   1.000  N
  N15      1.0000 0.16150  0.84090  0.84300  Biso   1.000  N
  N16      1.0000 0.33850  0.65910  0.84300  Biso   1.000  N
  O1       1.0000 0.60390  0.10390  0.25000  Biso   1.000  O
  O2       1.0000 0.89610  0.39610  0.25000  Biso   1.000  O
  O3       1.0000 0.39610  0.60390  0.25000  Biso   1.000  O
  O4       1.0000 0.10390  0.89610  0.25000  Biso   1.000  O
  O5       1.0000 0.39610  0.89610  0.75000  Biso   1.000  O
  O6       1.0000 0.10390  0.60390  0.75000  Biso   1.000  O
  O7       1.0000 0.60390  0.39610  0.75000  Biso   1.000  O
  O8       1.0000 0.89610  0.10390  0.75000  Biso   1.000  O
  Cu1      1.0000 0.75000  0.25000  0.25000  Biso   1.000  Cu
  Cu2      1.0000 0.25000  0.75000  0.25000  Biso   1.000  Cu
  Cu3      1.0000 0.25000  0.75000  0.75000  Biso   1.000  Cu
  Cu4      1.0000 0.75000  0.25000  0.75000  Biso   1.000  Cu
  H65      1.0000 0.52920  0.10800  0.24200  Biso   1.000  H
  H66      1.0000 0.97080  0.39200  0.24200  Biso   1.000  H
  H67      1.0000 0.39200  0.52920  0.24200  Biso   1.000  H
  H68      1.0000 0.10800  0.97080  0.24200  Biso   1.000  H
  H69      1.0000 0.47080  0.60800  0.25800  Biso   1.000  H
  H70      1.0000 0.02920  0.89200  0.25800  Biso   1.000  H
  H71      1.0000 0.60800  0.02920  0.25800  Biso   1.000  H
  H72      1.0000 0.89200  0.47080  0.25800  Biso   1.000  H
  H73      1.0000 0.47080  0.89200  0.75800  Biso   1.000  H
  H74      1.0000 0.02920  0.60800  0.75800  Biso   1.000  H
  H75      1.0000 0.60800  0.47080  0.75800  Biso   1.000  H
  H76      1.0000 0.89200  0.02920  0.75800  Biso   1.000  H
  H77      1.0000 0.52920  0.39200  0.74200  Biso   1.000  H
  H78      1.0000 0.97080  0.10800  0.74200  Biso   1.000  H
  H79      1.0000 0.39200  0.97080  0.74200  Biso   1.000  H
  H80      1.0000 0.10800  0.52920  0.74200  Biso   1.000  H
  S1       1.0000 0.30950  0.25870  0.22340  Biso   1.000  S
  S2       1.0000 0.19050  0.24130  0.22340  Biso   1.000  S
  S3       1.0000 0.24130  0.30950  0.22340  Biso   1.000  S
  S4       1.0000 0.25870  0.19050  0.22340  Biso   1.000  S
  S5       1.0000 0.69050  0.75870  0.27660  Biso   1.000  S
  S6       1.0000 0.80950  0.74130  0.27660  Biso   1.000  S
  S7       1.0000 0.75870  0.80950  0.27660  Biso   1.000  S
  S8       1.0000 0.74130  0.69050  0.27660  Biso   1.000  S
  S9       1.0000 0.69050  0.74130  0.77660  Biso   1.000  S
  S10      1.0000 0.80950  0.75870  0.77660  Biso   1.000  S
  S11      1.0000 0.75870  0.69050  0.77660  Biso   1.000  S
  S12      1.0000 0.74130  0.80950  0.77660  Biso   1.000  S
  S13      1.0000 0.30950  0.24130  0.72340  Biso   1.000  S
  S14      1.0000 0.19050  0.25870  0.72340  Biso   1.000  S
  S15      1.0000 0.24130  0.19050  0.72340  Biso   1.000  S
  S16      1.0000 0.25870  0.30950  0.72340  Biso   1.000  S
  O9       1.0000 0.27600  0.26100  0.31110  Biso   1.000  O
  O10      1.0000 0.22400  0.23900  0.31110  Biso   1.000  O
  O11      1.0000 0.23900  0.27600  0.31110  Biso   1.000  O
  O12      1.0000 0.26100  0.22400  0.31110  Biso   1.000  O
  O13      1.0000 0.72400  0.76100  0.18890  Biso   1.000  O
  O14      1.0000 0.77600  0.73900  0.18890  Biso   1.000  O
  O15      1.0000 0.76100  0.77600  0.18890  Biso   1.000  O
  O16      1.0000 0.73900  0.72400  0.18890  Biso   1.000  O
  O17      1.0000 0.72400  0.73900  0.68890  Biso   1.000  O
  O18      1.0000 0.77600  0.76100  0.68890  Biso   1.000  O
  O19      1.0000 0.76100  0.72400  0.68890  Biso   1.000  O
  O20      1.0000 0.73900  0.77600  0.68890  Biso   1.000  O
  O21      1.0000 0.27600  0.23900  0.81110  Biso   1.000  O
  O22      1.0000 0.22400  0.26100  0.81110  Biso   1.000  O
  O23      1.0000 0.23900  0.22400  0.81110  Biso   1.000  O
  O24      1.0000 0.26100  0.27600  0.81110  Biso   1.000  O
  O25      1.0000 0.39940  0.15100  0.16660  Biso   1.000  O
  O26      1.0000 0.10060  0.34900  0.16660  Biso   1.000  O
  O27      1.0000 0.34900  0.39940  0.16660  Biso   1.000  O
  O28      1.0000 0.15100  0.10060  0.16660  Biso   1.000  O
  O29      1.0000 0.60060  0.65100  0.33340  Biso   1.000  O
  O30      1.0000 0.89940  0.84900  0.33340  Biso   1.000  O
  O31      1.0000 0.65100  0.89940  0.33340  Biso   1.000  O
  O32      1.0000 0.84900  0.60060  0.33340  Biso   1.000  O
  O33      1.0000 0.60060  0.84900  0.83340  Biso   1.000  O
  O34      1.0000 0.89940  0.65100  0.83340  Biso   1.000  O
  O35      1.0000 0.65100  0.60060  0.83340  Biso   1.000  O
  O36      1.0000 0.84900  0.89940  0.83340  Biso   1.000  O
  O37      1.0000 0.39940  0.34900  0.66660  Biso   1.000  O
  O38      1.0000 0.10060  0.15100  0.66660  Biso   1.000  O
  O39      1.0000 0.34900  0.10060  0.66660  Biso   1.000  O
  O40      1.0000 0.15100  0.39940  0.66660  Biso   1.000  O
  O41      1.0000 0.23700  0.21500  0.05530  Biso   1.000  O
  O42      1.0000 0.26300  0.28500  0.05530  Biso   1.000  O
  O43      1.0000 0.28500  0.23700  0.05530  Biso   1.000  O
  O44      1.0000 0.21500  0.26300  0.05530  Biso   1.000  O
  O45      1.0000 0.76300  0.71500  0.44470  Biso   1.000  O
  O46      1.0000 0.73700  0.78500  0.44470  Biso   1.000  O
  O47      1.0000 0.71500  0.73700  0.44470  Biso   1.000  O
  O48      1.0000 0.78500  0.76300  0.44470  Biso   1.000  O
  O49      1.0000 0.76300  0.78500  0.94470  Biso   1.000  O
  O50      1.0000 0.73700  0.71500  0.94470  Biso   1.000  O
  O51      1.0000 0.71500  0.76300  0.94470  Biso   1.000  O
  O52      1.0000 0.78500  0.73700  0.94470  Biso   1.000  O
  O53      1.0000 0.23700  0.28500  0.55530  Biso   1.000  O
  O54      1.0000 0.26300  0.21500  0.55530  Biso   1.000  O
  O55      1.0000 0.28500  0.26300  0.55530  Biso   1.000  O
  O56      1.0000 0.21500  0.23700  0.55530  Biso   1.000  O
  O57      1.0000 0.38150  0.16030  0.20170  Biso   1.000  O
  O58      1.0000 0.11850  0.33970  0.20170  Biso   1.000  O
  O59      1.0000 0.33970  0.38150  0.20170  Biso   1.000  O
  O60      1.0000 0.16030  0.11850  0.20170  Biso   1.000  O
  O61      1.0000 0.61850  0.66030  0.29830  Biso   1.000  O
  O62      1.0000 0.88150  0.83970  0.29830  Biso   1.000  O
  O63      1.0000 0.66030  0.88150  0.29830  Biso   1.000  O
  O64      1.0000 0.83970  0.61850  0.29830  Biso   1.000  O
  O65      1.0000 0.61850  0.83970  0.79830  Biso   1.000  O
  O66      1.0000 0.88150  0.66030  0.79830  Biso   1.000  O
  O67      1.0000 0.66030  0.61850  0.79830  Biso   1.000  O
  O68      1.0000 0.83970  0.88150  0.79830  Biso   1.000  O
  O69      1.0000 0.38150  0.33970  0.70170  Biso   1.000  O
  O70      1.0000 0.11850  0.16030  0.70170  Biso   1.000  O
  O71      1.0000 0.33970  0.11850  0.70170  Biso   1.000  O
  O72      1.0000 0.16030  0.38150  0.70170  Biso   1.000  O
  S17      1.0000 0.33470  0.27180  0.14240  Biso   1.000  S
  S18      1.0000 0.16530  0.22820  0.14240  Biso   1.000  S
  S19      1.0000 0.22820  0.33470  0.14240  Biso   1.000  S
  S20      1.0000 0.27180  0.16530  0.14240  Biso   1.000  S
  S21      1.0000 0.66530  0.77180  0.35760  Biso   1.000  S
  S22      1.0000 0.83470  0.72820  0.35760  Biso   1.000  S
  S23      1.0000 0.77180  0.83470  0.35760  Biso   1.000  S
  S24      1.0000 0.72820  0.66530  0.35760  Biso   1.000  S
  S25      1.0000 0.66530  0.72820  0.85760  Biso   1.000  S
  S26      1.0000 0.83470  0.77180  0.85760  Biso   1.000  S
  S27      1.0000 0.77180  0.66530  0.85760  Biso   1.000  S
  S28      1.0000 0.72820  0.83470  0.85760  Biso   1.000  S
  S29      1.0000 0.33470  0.22820  0.64240  Biso   1.000  S
  S30      1.0000 0.16530  0.27180  0.64240  Biso   1.000  S
  S31      1.0000 0.22820  0.16530  0.64240  Biso   1.000  S
  S32      1.0000 0.27180  0.33470  0.64240  Biso   1.000  S
