data_image0
_cell_length_a       7.25462
_cell_length_b       30.2752
_cell_length_c       9.28295
_cell_angle_alpha    90
_cell_angle_beta     92.4523
_cell_angle_gamma    90

_symmetry_space_group_name_H-M    "P 1"
_symmetry_int_tables_number       1

loop_
  _symmetry_equiv_pos_as_xyz
  'x, y, z'

loop_
  _atom_site_label
  _atom_site_occupancy
  _atom_site_fract_x
  _atom_site_fract_y
  _atom_site_fract_z
  _atom_site_thermal_displace_type
  _atom_site_B_iso_or_equiv
  _atom_site_type_symbol
  Cu1      1.0000 0.20960  0.09101  0.36880  Biso   1.000  Cu
  Cu2      1.0000 0.29040  0.59101  0.13120  Biso   1.000  Cu
  Cu3      1.0000 0.79040  0.90899  0.63120  Biso   1.000  Cu
  Cu4      1.0000 0.70960  0.40899  0.86880  Biso   1.000  Cu
  Cu5      1.0000 0.00360  0.20739  0.95920  Biso   1.000  Cu
  Cu6      1.0000 0.49640  0.70739  0.54080  Biso   1.000  Cu
  Cu7      1.0000 0.99640  0.79261  0.04080  Biso   1.000  Cu
  Cu8      1.0000 0.50360  0.29261  0.45920  Biso   1.000  Cu
  Br1      1.0000 0.54870  0.11353  0.45150  Biso   1.000  Br
  Br2      1.0000 0.95130  0.61353  0.04850  Biso   1.000  Br
  Br3      1.0000 0.45130  0.88647  0.54850  Biso   1.000  Br
  Br4      1.0000 0.04870  0.38647  0.95150  Biso   1.000  Br
  Br5      1.0000 0.24820  0.03580  0.18960  Biso   1.000  Br
  Br6      1.0000 0.25180  0.53580  0.31040  Biso   1.000  Br
  Br7      1.0000 0.75180  0.96420  0.81040  Biso   1.000  Br
  Br8      1.0000 0.74820  0.46420  0.68960  Biso   1.000  Br
  O1       1.0000 0.14680  0.14210  0.22740  Biso   1.000  O
  O2       1.0000 0.35320  0.64210  0.27260  Biso   1.000  O
  O3       1.0000 0.85320  0.85790  0.77260  Biso   1.000  O
  O4       1.0000 0.64680  0.35790  0.72740  Biso   1.000  O
  O5       1.0000 0.01660  0.20840  0.21620  Biso   1.000  O
  O6       1.0000 0.48340  0.70840  0.28380  Biso   1.000  O
  O7       1.0000 0.98340  0.79160  0.78380  Biso   1.000  O
  O8       1.0000 0.51660  0.29160  0.71620  Biso   1.000  O
  O9       1.0000 0.95950  0.27110  0.46700  Biso   1.000  O
  O10      1.0000 0.54050  0.77110  0.03300  Biso   1.000  O
  O11      1.0000 0.04050  0.72890  0.53300  Biso   1.000  O
  O12      1.0000 0.45950  0.22890  0.96700  Biso   1.000  O
  O13      1.0000 0.67160  0.24400  0.45990  Biso   1.000  O
  O14      1.0000 0.82840  0.74400  0.04010  Biso   1.000  O
  O15      1.0000 0.32840  0.75600  0.54010  Biso   1.000  O
  O16      1.0000 0.17160  0.25600  0.95990  Biso   1.000  O
  N1       1.0000 0.07820  0.13060  0.49410  Biso   1.000  N
  N2       1.0000 0.42180  0.63060  0.00590  Biso   1.000  N
  N3       1.0000 0.92180  0.86940  0.50590  Biso   1.000  N
  N4       1.0000 0.57820  0.36940  0.99410  Biso   1.000  N
  N5       1.0000 0.86290  0.18390  0.64720  Biso   1.000  N
  N6       1.0000 0.63710  0.68390  0.85280  Biso   1.000  N
  N7       1.0000 0.13710  0.81610  0.35280  Biso   1.000  N
  N8       1.0000 0.36290  0.31610  0.14720  Biso   1.000  N
  N9       1.0000 0.16800  0.04900  0.54420  Biso   1.000  N
  N10      1.0000 0.33200  0.54900  0.95580  Biso   1.000  N
  N11      1.0000 0.83200  0.95100  0.45580  Biso   1.000  N
  N12      1.0000 0.66800  0.45100  0.04420  Biso   1.000  N
  N13      1.0000 0.82450  0.15670  0.94980  Biso   1.000  N
  N14      1.0000 0.67550  0.65670  0.55020  Biso   1.000  N
  N15      1.0000 0.17550  0.84330  0.05020  Biso   1.000  N
  N16      1.0000 0.32450  0.34330  0.44980  Biso   1.000  N
  C1       1.0000 0.01360  0.16870  0.43980  Biso   1.000  C
  C2       1.0000 0.48640  0.66870  0.06020  Biso   1.000  C
  C3       1.0000 0.98640  0.83130  0.56020  Biso   1.000  C
  C4       1.0000 0.51360  0.33130  0.93980  Biso   1.000  C
  C5       1.0000 0.90870  0.19630  0.52410  Biso   1.000  C
  C6       1.0000 0.59130  0.69630  0.97590  Biso   1.000  C
  C7       1.0000 0.09130  0.80370  0.47590  Biso   1.000  C
  C8       1.0000 0.40870  0.30370  0.02410  Biso   1.000  C
  C9       1.0000 0.91550  0.14530  0.69910  Biso   1.000  C
  C10      1.0000 0.58450  0.64530  0.80090  Biso   1.000  C
  C11      1.0000 0.08450  0.85470  0.30090  Biso   1.000  C
  C12      1.0000 0.41550  0.35470  0.19910  Biso   1.000  C
  C13      1.0000 0.03540  0.11860  0.62150  Biso   1.000  C
  C14      1.0000 0.46460  0.61860  0.87850  Biso   1.000  C
  C15      1.0000 0.96460  0.88140  0.37850  Biso   1.000  C
  C16      1.0000 0.53540  0.38140  0.12150  Biso   1.000  C
  C17      1.0000 0.06380  0.17510  0.28270  Biso   1.000  C
  C18      1.0000 0.43620  0.67510  0.21730  Biso   1.000  C
  C19      1.0000 0.93620  0.82490  0.71730  Biso   1.000  C
  C20      1.0000 0.56380  0.32490  0.78270  Biso   1.000  C
  C21      1.0000 0.84080  0.23930  0.46710  Biso   1.000  C
  C22      1.0000 0.65920  0.73930  0.03290  Biso   1.000  C
  C23      1.0000 0.15920  0.76070  0.53290  Biso   1.000  C
  C24      1.0000 0.34080  0.26070  0.96710  Biso   1.000  C
  C25      1.0000 0.10730  0.07130  0.65850  Biso   1.000  C
  C26      1.0000 0.39270  0.57130  0.84150  Biso   1.000  C
  C27      1.0000 0.89270  0.92870  0.34150  Biso   1.000  C
  C28      1.0000 0.60730  0.42870  0.15850  Biso   1.000  C
  C29      1.0000 0.12650  0.05410  0.78720  Biso   1.000  C
  C30      1.0000 0.37350  0.55410  0.71280  Biso   1.000  C
  C31      1.0000 0.87350  0.94590  0.21280  Biso   1.000  C
  C32      1.0000 0.62650  0.44590  0.28720  Biso   1.000  C
  C33      1.0000 0.21130  0.01210  0.80600  Biso   1.000  C
  C34      1.0000 0.28870  0.51210  0.69400  Biso   1.000  C
  C35      1.0000 0.78870  0.98790  0.19400  Biso   1.000  C
  C36      1.0000 0.71130  0.48790  0.30600  Biso   1.000  C
  C37      1.0000 0.26760  0.98970  0.69080  Biso   1.000  C
  C38      1.0000 0.23240  0.48970  0.80920  Biso   1.000  C
  C39      1.0000 0.73240  0.01030  0.30920  Biso   1.000  C
  C40      1.0000 0.76760  0.51030  0.19080  Biso   1.000  C
  C41      1.0000 0.24760  0.00710  0.56190  Biso   1.000  C
  C42      1.0000 0.25240  0.50710  0.93810  Biso   1.000  C
  C43      1.0000 0.75240  0.99290  0.43810  Biso   1.000  C
  C44      1.0000 0.74760  0.49290  0.06190  Biso   1.000  C
  C45      1.0000 0.83250  0.12870  0.83340  Biso   1.000  C
  C46      1.0000 0.66750  0.62870  0.66660  Biso   1.000  C
  C47      1.0000 0.16750  0.87130  0.16660  Biso   1.000  C
  C48      1.0000 0.33250  0.37130  0.33340  Biso   1.000  C
  C49      1.0000 0.71630  0.09290  0.82450  Biso   1.000  C
  C50      1.0000 0.78370  0.59290  0.67550  Biso   1.000  C
  C51      1.0000 0.28370  0.90710  0.17550  Biso   1.000  C
  C52      1.0000 0.21630  0.40710  0.32450  Biso   1.000  C
  C53      1.0000 0.61030  0.08290  0.93650  Biso   1.000  C
  C54      1.0000 0.88970  0.58290  0.56350  Biso   1.000  C
  C55      1.0000 0.38970  0.91710  0.06350  Biso   1.000  C
  C56      1.0000 0.11030  0.41710  0.43650  Biso   1.000  C
  C57      1.0000 0.60820  0.11000  0.05250  Biso   1.000  C
  C58      1.0000 0.89180  0.61000  0.44750  Biso   1.000  C
  C59      1.0000 0.39180  0.89000  0.94750  Biso   1.000  C
  C60      1.0000 0.10820  0.39000  0.55250  Biso   1.000  C
  C61      1.0000 0.70980  0.14840  0.05480  Biso   1.000  C
  C62      1.0000 0.79020  0.64840  0.44520  Biso   1.000  C
  C63      1.0000 0.29020  0.85160  0.94520  Biso   1.000  C
  C64      1.0000 0.20980  0.35160  0.55480  Biso   1.000  C
  O17      1.0000 0.19560  0.16090  0.96160  Biso   1.000  O
  O18      1.0000 0.30440  0.66090  0.53840  Biso   1.000  O
  O19      1.0000 0.80440  0.83910  0.03840  Biso   1.000  O
  O20      1.0000 0.69560  0.33910  0.46160  Biso   1.000  O
  O21      1.0000 0.80990  0.25440  0.95660  Biso   1.000  O
  O22      1.0000 0.69010  0.75440  0.54340  Biso   1.000  O
  O23      1.0000 0.19010  0.74560  0.04340  Biso   1.000  O
  O24      1.0000 0.30990  0.24560  0.45660  Biso   1.000  O
  H1       1.0000 0.08300  0.07230  0.87970  Biso   1.000  H
  H2       1.0000 0.41700  0.57230  0.62030  Biso   1.000  H
  H3       1.0000 0.91700  0.92770  0.12030  Biso   1.000  H
  H4       1.0000 0.58300  0.42770  0.37970  Biso   1.000  H
  H5       1.0000 0.22300  0.99740  0.91200  Biso   1.000  H
  H6       1.0000 0.27700  0.49740  0.58800  Biso   1.000  H
  H7       1.0000 0.77700  0.00260  0.08800  Biso   1.000  H
  H8       1.0000 0.72300  0.50260  0.41200  Biso   1.000  H
  H9       1.0000 0.32000  0.95640  0.70360  Biso   1.000  H
  H10      1.0000 0.18000  0.45640  0.79640  Biso   1.000  H
  H11      1.0000 0.68000  0.04360  0.29640  Biso   1.000  H
  H12      1.0000 0.82000  0.54360  0.20360  Biso   1.000  H
  H13      1.0000 0.29300  0.98910  0.46920  Biso   1.000  H
  H14      1.0000 0.20700  0.48910  0.03080  Biso   1.000  H
  H15      1.0000 0.70700  0.01090  0.53080  Biso   1.000  H
  H16      1.0000 0.79300  0.51090  0.96920  Biso   1.000  H
  H17      1.0000 0.71500  0.07170  0.73090  Biso   1.000  H
  H18      1.0000 0.78500  0.57170  0.76910  Biso   1.000  H
  H19      1.0000 0.28500  0.92830  0.26910  Biso   1.000  H
  H20      1.0000 0.21500  0.42830  0.23090  Biso   1.000  H
  H21      1.0000 0.53000  0.05290  0.93400  Biso   1.000  H
  H22      1.0000 0.97000  0.55290  0.56600  Biso   1.000  H
  H23      1.0000 0.47000  0.94710  0.06600  Biso   1.000  H
  H24      1.0000 0.03000  0.44710  0.43400  Biso   1.000  H
  H25      1.0000 0.52700  0.10150  0.14320  Biso   1.000  H
  H26      1.0000 0.97300  0.60150  0.35680  Biso   1.000  H
  H27      1.0000 0.47300  0.89850  0.85680  Biso   1.000  H
  H28      1.0000 0.02700  0.39850  0.64320  Biso   1.000  H
  H29      1.0000 0.70400  0.17070  0.14530  Biso   1.000  H
  H30      1.0000 0.79600  0.67070  0.35470  Biso   1.000  H
  H31      1.0000 0.29600  0.82930  0.85470  Biso   1.000  H
  H32      1.0000 0.20400  0.32930  0.64530  Biso   1.000  H
  H33      1.0000 0.23700  0.15500  0.83300  Biso   1.000  H
  H34      1.0000 0.26300  0.65500  0.66700  Biso   1.000  H
  H35      1.0000 0.76300  0.84500  0.16700  Biso   1.000  H
  H36      1.0000 0.73700  0.34500  0.33300  Biso   1.000  H
  H37      1.0000 0.33100  0.17600  0.03500  Biso   1.000  H
  H38      1.0000 0.16900  0.67600  0.46500  Biso   1.000  H
  H39      1.0000 0.66900  0.82400  0.96500  Biso   1.000  H
  H40      1.0000 0.83100  0.32400  0.53500  Biso   1.000  H
  H41      1.0000 0.80500  0.27000  0.84200  Biso   1.000  H
  H42      1.0000 0.69500  0.77000  0.65800  Biso   1.000  H
  H43      1.0000 0.19500  0.73000  0.15800  Biso   1.000  H
  H44      1.0000 0.30500  0.23000  0.34200  Biso   1.000  H
  H45      1.0000 0.85400  0.28000  0.04400  Biso   1.000  H
  H46      1.0000 0.64600  0.78000  0.45600  Biso   1.000  H
  H47      1.0000 0.14600  0.72000  0.95600  Biso   1.000  H
  H48      1.0000 0.35400  0.22000  0.54400  Biso   1.000  H
  O25      1.0000 0.89560  0.31200  0.16770  Biso   1.000  O
  O26      1.0000 0.60440  0.81200  0.33230  Biso   1.000  O
  O27      1.0000 0.10440  0.68800  0.83230  Biso   1.000  O
  O28      1.0000 0.39560  0.18800  0.66770  Biso   1.000  O
