data_image0
_cell_length_a       11.0837
_cell_length_b       11.1496
_cell_length_c       16.937
_cell_angle_alpha    90
_cell_angle_beta     97.534
_cell_angle_gamma    90

_symmetry_space_group_name_H-M    "P 1"
_symmetry_int_tables_number       1

loop_
  _symmetry_equiv_pos_as_xyz
  'x, y, z'

loop_
  _atom_site_label
  _atom_site_occupancy
  _atom_site_fract_x
  _atom_site_fract_y
  _atom_site_fract_z
  _atom_site_thermal_displace_type
  _atom_site_B_iso_or_equiv
  _atom_site_type_symbol
  C1       1.0000 0.75950  0.51080  0.80380  Biso   1.000  C
  C2       1.0000 0.24050  0.51080  0.69620  Biso   1.000  C
  C3       1.0000 0.24050  0.48920  0.19620  Biso   1.000  C
  C4       1.0000 0.75950  0.48920  0.30380  Biso   1.000  C
  H1       1.0000 0.72290  0.54900  0.84490  Biso   1.000  H
  H2       1.0000 0.27710  0.54900  0.65510  Biso   1.000  H
  H3       1.0000 0.27710  0.45100  0.15510  Biso   1.000  H
  H4       1.0000 0.72290  0.45100  0.34490  Biso   1.000  H
  C5       1.0000 0.88250  0.52110  0.80610  Biso   1.000  C
  C6       1.0000 0.11750  0.52110  0.69390  Biso   1.000  C
  C7       1.0000 0.11750  0.47890  0.19390  Biso   1.000  C
  C8       1.0000 0.88250  0.47890  0.30610  Biso   1.000  C
  H5       1.0000 0.93340  0.56580  0.84490  Biso   1.000  H
  H6       1.0000 0.06660  0.56580  0.65510  Biso   1.000  H
  H7       1.0000 0.06660  0.43420  0.15510  Biso   1.000  H
  H8       1.0000 0.93340  0.43420  0.34490  Biso   1.000  H
  C9       1.0000 0.92200  0.46050  0.74700  Biso   1.000  C
  C10      1.0000 0.07800  0.46050  0.75300  Biso   1.000  C
  C11      1.0000 0.07800  0.53950  0.25300  Biso   1.000  C
  C12      1.0000 0.92200  0.53950  0.24700  Biso   1.000  C
  C13      1.0000 0.85040  0.40780  0.68290  Biso   1.000  C
  C14      1.0000 0.14960  0.40780  0.81710  Biso   1.000  C
  C15      1.0000 0.14960  0.59220  0.31710  Biso   1.000  C
  C16      1.0000 0.85040  0.59220  0.18290  Biso   1.000  C
  H9       1.0000 0.88510  0.37770  0.63850  Biso   1.000  H
  H10      1.0000 0.11490  0.37770  0.86150  Biso   1.000  H
  H11      1.0000 0.11490  0.62230  0.36150  Biso   1.000  H
  H12      1.0000 0.88510  0.62230  0.13850  Biso   1.000  H
  C17      1.0000 0.72690  0.40070  0.68620  Biso   1.000  C
  C18      1.0000 0.27310  0.40070  0.81380  Biso   1.000  C
  C19      1.0000 0.27310  0.59930  0.31380  Biso   1.000  C
  C20      1.0000 0.72690  0.59930  0.18620  Biso   1.000  C
  H13      1.0000 0.67310  0.36160  0.64600  Biso   1.000  H
  H14      1.0000 0.32690  0.36160  0.85400  Biso   1.000  H
  H15      1.0000 0.32690  0.63840  0.35400  Biso   1.000  H
  H16      1.0000 0.67310  0.63840  0.14600  Biso   1.000  H
  C21      1.0000 0.58160  0.21230  0.79810  Biso   1.000  C
  C22      1.0000 0.41840  0.21230  0.70190  Biso   1.000  C
  C23      1.0000 0.41840  0.78770  0.20190  Biso   1.000  C
  C24      1.0000 0.58160  0.78770  0.29810  Biso   1.000  C
  H17      1.0000 0.63920  0.25850  0.83180  Biso   1.000  H
  H18      1.0000 0.36080  0.25850  0.66820  Biso   1.000  H
  H19      1.0000 0.36080  0.74150  0.16820  Biso   1.000  H
  H20      1.0000 0.63920  0.74150  0.33180  Biso   1.000  H
  C25      1.0000 0.43810  0.21050  0.80160  Biso   1.000  C
  C26      1.0000 0.56190  0.21050  0.69840  Biso   1.000  C
  C27      1.0000 0.56190  0.78950  0.19840  Biso   1.000  C
  C28      1.0000 0.43810  0.78950  0.30160  Biso   1.000  C
  H21      1.0000 0.39650  0.25630  0.83680  Biso   1.000  H
  H22      1.0000 0.60350  0.25630  0.66320  Biso   1.000  H
  H23      1.0000 0.60350  0.74370  0.16320  Biso   1.000  H
  H24      1.0000 0.39650  0.74370  0.33680  Biso   1.000  H
  C29      1.0000 0.58550  0.09190  0.80060  Biso   1.000  C
  C30      1.0000 0.41450  0.09190  0.69940  Biso   1.000  C
  C31      1.0000 0.41450  0.90810  0.19940  Biso   1.000  C
  C32      1.0000 0.58550  0.90810  0.30060  Biso   1.000  C
  H25      1.0000 0.64500  0.05070  0.83600  Biso   1.000  H
  H26      1.0000 0.35500  0.05070  0.66400  Biso   1.000  H
  H27      1.0000 0.35500  0.94930  0.16400  Biso   1.000  H
  H28      1.0000 0.64500  0.94930  0.33600  Biso   1.000  H
  C33      1.0000 0.43510  0.08740  0.80310  Biso   1.000  C
  C34      1.0000 0.56490  0.08740  0.69690  Biso   1.000  C
  C35      1.0000 0.56490  0.91260  0.19690  Biso   1.000  C
  C36      1.0000 0.43510  0.91260  0.30310  Biso   1.000  C
  H29      1.0000 0.39130  0.04420  0.83840  Biso   1.000  H
  H30      1.0000 0.60870  0.04420  0.66160  Biso   1.000  H
  H31      1.0000 0.60870  0.95580  0.16160  Biso   1.000  H
  H32      1.0000 0.39130  0.95580  0.33840  Biso   1.000  H
  C37      1.0000 0.50000  0.03090  0.75000  Biso   1.000  C
  C38      1.0000 0.50000  0.96910  0.25000  Biso   1.000  C
  C39      1.0000 0.50000  0.89670  0.75000  Biso   1.000  C
  C40      1.0000 0.50000  0.10330  0.25000  Biso   1.000  C
  C41      1.0000 0.45490  0.82370  0.80800  Biso   1.000  C
  C42      1.0000 0.54510  0.82370  0.69200  Biso   1.000  C
  C43      1.0000 0.54510  0.17630  0.19200  Biso   1.000  C
  C44      1.0000 0.45490  0.17630  0.30800  Biso   1.000  C
  H33      1.0000 0.42360  0.86300  0.85070  Biso   1.000  H
  H34      1.0000 0.57640  0.86300  0.64930  Biso   1.000  H
  H35      1.0000 0.57640  0.13700  0.14930  Biso   1.000  H
  H36      1.0000 0.42360  0.13700  0.35070  Biso   1.000  H
  C45      1.0000 0.45300  0.70440  0.80740  Biso   1.000  C
  C46      1.0000 0.54700  0.70440  0.69260  Biso   1.000  C
  C47      1.0000 0.54700  0.29560  0.19260  Biso   1.000  C
  C48      1.0000 0.45300  0.29560  0.30740  Biso   1.000  C
  H37      1.0000 0.41880  0.66030  0.84700  Biso   1.000  H
  H38      1.0000 0.58120  0.66030  0.65300  Biso   1.000  H
  H39      1.0000 0.58120  0.33970  0.15300  Biso   1.000  H
  H40      1.0000 0.41880  0.33970  0.34700  Biso   1.000  H
  N1       1.0000 0.68750  0.45200  0.74910  Biso   1.000  N
  N2       1.0000 0.31250  0.45200  0.75090  Biso   1.000  N
  N3       1.0000 0.31250  0.54800  0.25090  Biso   1.000  N
  N4       1.0000 0.68750  0.54800  0.24910  Biso   1.000  N
  N5       1.0000 0.50000  0.26370  0.75000  Biso   1.000  N
  N6       1.0000 0.50000  0.73630  0.25000  Biso   1.000  N
  N7       1.0000 0.50000  0.65000  0.75000  Biso   1.000  N
  N8       1.0000 0.50000  0.35000  0.25000  Biso   1.000  N
  O1       1.0000 0.53210  0.45340  0.89160  Biso   1.000  O
  O2       1.0000 0.46790  0.45340  0.60840  Biso   1.000  O
  O3       1.0000 0.46790  0.54660  0.10840  Biso   1.000  O
  O4       1.0000 0.53210  0.54660  0.39160  Biso   1.000  O
  O5       1.0000 0.66500  0.41780  0.01530  Biso   1.000  O
  O6       1.0000 0.33500  0.41780  0.48470  Biso   1.000  O
  O7       1.0000 0.33500  0.58220  0.98470  Biso   1.000  O
  O8       1.0000 0.66500  0.58220  0.51530  Biso   1.000  O
  O9       1.0000 0.48990  0.33010  0.98970  Biso   1.000  O
  O10      1.0000 0.51010  0.33010  0.51030  Biso   1.000  O
  O11      1.0000 0.51010  0.66990  0.01030  Biso   1.000  O
  O12      1.0000 0.48990  0.66990  0.48970  Biso   1.000  O
  S1       1.0000 0.54490  0.44770  0.96980  Biso   1.000  S
  S2       1.0000 0.45510  0.44770  0.53020  Biso   1.000  S
  S3       1.0000 0.45510  0.55230  0.03020  Biso   1.000  S
  S4       1.0000 0.54490  0.55230  0.46980  Biso   1.000  S
  Cu1      1.0000 0.50000  0.45791  0.75000  Biso   1.000  Cu
  Cu2      1.0000 0.50000  0.54209  0.25000  Biso   1.000  Cu
  C49      1.0000 0.75480  0.40660  0.81390  Biso   1.000  C
  C50      1.0000 0.24520  0.40660  0.68610  Biso   1.000  C
  C51      1.0000 0.24520  0.59340  0.18610  Biso   1.000  C
  C52      1.0000 0.75480  0.59340  0.31390  Biso   1.000  C
  H41      1.0000 0.71780  0.36970  0.85520  Biso   1.000  H
  H42      1.0000 0.28220  0.36970  0.64480  Biso   1.000  H
  H43      1.0000 0.28220  0.63030  0.14480  Biso   1.000  H
  H44      1.0000 0.71780  0.63030  0.35520  Biso   1.000  H
  C53      1.0000 0.87590  0.41530  0.81800  Biso   1.000  C
  C54      1.0000 0.12410  0.41530  0.68200  Biso   1.000  C
  C55      1.0000 0.12410  0.58470  0.18200  Biso   1.000  C
  C56      1.0000 0.87590  0.58470  0.31800  Biso   1.000  C
  H45      1.0000 0.92870  0.39330  0.86450  Biso   1.000  H
  H46      1.0000 0.07130  0.39330  0.63550  Biso   1.000  H
  H47      1.0000 0.07130  0.60670  0.13550  Biso   1.000  H
  H48      1.0000 0.92870  0.60670  0.36450  Biso   1.000  H
  C57      1.0000 0.85800  0.52880  0.70140  Biso   1.000  C
  C58      1.0000 0.14200  0.52880  0.79860  Biso   1.000  C
  C59      1.0000 0.14200  0.47120  0.29860  Biso   1.000  C
  C60      1.0000 0.85800  0.47120  0.20140  Biso   1.000  C
  H49      1.0000 0.89090  0.59360  0.67470  Biso   1.000  H
  H50      1.0000 0.10910  0.59360  0.82530  Biso   1.000  H
  H51      1.0000 0.10910  0.40640  0.32530  Biso   1.000  H
  H52      1.0000 0.89090  0.40640  0.17470  Biso   1.000  H
  C61      1.0000 0.73390  0.50280  0.69240  Biso   1.000  C
  C62      1.0000 0.26610  0.50280  0.80760  Biso   1.000  C
  C63      1.0000 0.26610  0.49720  0.30760  Biso   1.000  C
  C64      1.0000 0.73390  0.49720  0.19240  Biso   1.000  C
  H53      1.0000 0.68380  0.52290  0.64430  Biso   1.000  H
  H54      1.0000 0.31620  0.52290  0.85570  Biso   1.000  H
  H55      1.0000 0.31620  0.47710  0.35570  Biso   1.000  H
  H56      1.0000 0.68380  0.47710  0.14430  Biso   1.000  H
  C65      1.0000 0.53400  0.83450  0.81990  Biso   1.000  C
  C66      1.0000 0.46600  0.83450  0.68010  Biso   1.000  C
  C67      1.0000 0.46600  0.16550  0.18010  Biso   1.000  C
  C68      1.0000 0.53400  0.16550  0.31990  Biso   1.000  C
  H57      1.0000 0.55870  0.87580  0.86850  Biso   1.000  H
  H58      1.0000 0.44130  0.87580  0.63150  Biso   1.000  H
  H59      1.0000 0.44130  0.12420  0.13150  Biso   1.000  H
  H60      1.0000 0.55870  0.12420  0.36850  Biso   1.000  H
  C69      1.0000 0.53300  0.71140  0.81720  Biso   1.000  C
  C70      1.0000 0.46700  0.71140  0.68280  Biso   1.000  C
  C71      1.0000 0.46700  0.28860  0.18280  Biso   1.000  C
  C72      1.0000 0.53300  0.28860  0.31720  Biso   1.000  C
  H61      1.0000 0.55530  0.66800  0.86510  Biso   1.000  H
  H62      1.0000 0.44470  0.66800  0.63490  Biso   1.000  H
  H63      1.0000 0.44470  0.33200  0.13490  Biso   1.000  H
  H64      1.0000 0.55530  0.33200  0.36510  Biso   1.000  H
  O13      1.0000 0.65600  0.36030  0.02130  Biso   1.000  O
  O14      1.0000 0.34400  0.36030  0.47870  Biso   1.000  O
  O15      1.0000 0.34400  0.63970  0.97870  Biso   1.000  O
  O16      1.0000 0.65600  0.63970  0.52130  Biso   1.000  O
  O17      1.0000 0.42770  0.32990  0.98370  Biso   1.000  O
  O18      1.0000 0.57230  0.32990  0.51630  Biso   1.000  O
  O19      1.0000 0.57230  0.67010  0.01630  Biso   1.000  O
  O20      1.0000 0.42770  0.67010  0.48370  Biso   1.000  O
  S5       1.0000 0.53620  0.41660  0.98000  Biso   1.000  S
  S6       1.0000 0.46380  0.41660  0.52000  Biso   1.000  S
  S7       1.0000 0.46380  0.58340  0.02000  Biso   1.000  S
  S8       1.0000 0.53620  0.58340  0.48000  Biso   1.000  S
