data_image0
_cell_length_a       11.4395
_cell_length_b       11.4395
_cell_length_c       15.471
_cell_angle_alpha    90
_cell_angle_beta     90
_cell_angle_gamma    90

_symmetry_space_group_name_H-M    "P 1"
_symmetry_int_tables_number       1

loop_
  _symmetry_equiv_pos_as_xyz
  'x, y, z'

loop_
  _atom_site_label
  _atom_site_occupancy
  _atom_site_fract_x
  _atom_site_fract_y
  _atom_site_fract_z
  _atom_site_thermal_displace_type
  _atom_site_B_iso_or_equiv
  _atom_site_type_symbol
  S1       1.0000 0.72530  0.83640  0.36380  Biso   1.000  S
  S2       1.0000 0.33640  0.22530  0.13620  Biso   1.000  S
  S3       1.0000 0.83640  0.77470  0.36380  Biso   1.000  S
  S4       1.0000 0.66360  0.72530  0.36380  Biso   1.000  S
  S5       1.0000 0.22530  0.16360  0.13620  Biso   1.000  S
  S6       1.0000 0.77470  0.66360  0.36380  Biso   1.000  S
  S7       1.0000 0.27470  0.33640  0.13620  Biso   1.000  S
  S8       1.0000 0.16360  0.27470  0.13620  Biso   1.000  S
  S9       1.0000 0.27470  0.16360  0.63620  Biso   1.000  S
  S10      1.0000 0.66360  0.77470  0.86380  Biso   1.000  S
  S11      1.0000 0.16360  0.22530  0.63620  Biso   1.000  S
  S12      1.0000 0.33640  0.27470  0.63620  Biso   1.000  S
  S13      1.0000 0.77470  0.83640  0.86380  Biso   1.000  S
  S14      1.0000 0.22530  0.33640  0.63620  Biso   1.000  S
  S15      1.0000 0.72530  0.66360  0.86380  Biso   1.000  S
  S16      1.0000 0.83640  0.72530  0.86380  Biso   1.000  S
  O1       1.0000 0.61720  0.84660  0.31010  Biso   1.000  O
  O2       1.0000 0.34660  0.11720  0.18990  Biso   1.000  O
  O3       1.0000 0.84660  0.88280  0.31010  Biso   1.000  O
  O4       1.0000 0.65340  0.61720  0.31010  Biso   1.000  O
  O5       1.0000 0.11720  0.15340  0.18990  Biso   1.000  O
  O6       1.0000 0.88280  0.65340  0.31010  Biso   1.000  O
  O7       1.0000 0.38280  0.34660  0.18990  Biso   1.000  O
  O8       1.0000 0.15340  0.38280  0.18990  Biso   1.000  O
  O9       1.0000 0.38280  0.15340  0.68990  Biso   1.000  O
  O10      1.0000 0.65340  0.88280  0.81010  Biso   1.000  O
  O11      1.0000 0.15340  0.11720  0.68990  Biso   1.000  O
  O12      1.0000 0.34660  0.38280  0.68990  Biso   1.000  O
  O13      1.0000 0.88280  0.84660  0.81010  Biso   1.000  O
  O14      1.0000 0.11720  0.34660  0.68990  Biso   1.000  O
  O15      1.0000 0.61720  0.65340  0.81010  Biso   1.000  O
  O16      1.0000 0.84660  0.61720  0.81010  Biso   1.000  O
  O17      1.0000 0.75000  0.75000  0.19560  Biso   1.000  O
  O18      1.0000 0.25000  0.25000  0.30440  Biso   1.000  O
  O19      1.0000 0.25000  0.25000  0.80440  Biso   1.000  O
  O20      1.0000 0.75000  0.75000  0.69560  Biso   1.000  O
  Cu1      1.0000 0.75000  0.25000  0.25000  Biso   1.000  Cu
  Cu2      1.0000 0.25000  0.75000  0.25000  Biso   1.000  Cu
  Cu3      1.0000 0.25000  0.75000  0.75000  Biso   1.000  Cu
  Cu4      1.0000 0.75000  0.25000  0.75000  Biso   1.000  Cu
  O21      1.0000 0.89670  0.10330  0.25000  Biso   1.000  O
  O22      1.0000 0.60330  0.39670  0.25000  Biso   1.000  O
  O23      1.0000 0.10330  0.60330  0.25000  Biso   1.000  O
  O24      1.0000 0.39670  0.89670  0.25000  Biso   1.000  O
  O25      1.0000 0.10330  0.89670  0.75000  Biso   1.000  O
  O26      1.0000 0.39670  0.60330  0.75000  Biso   1.000  O
  O27      1.0000 0.89670  0.39670  0.75000  Biso   1.000  O
  O28      1.0000 0.60330  0.10330  0.75000  Biso   1.000  O
  H1       1.0000 0.97100  0.11000  0.23400  Biso   1.000  H
  H2       1.0000 0.61000  0.47100  0.26600  Biso   1.000  H
  H3       1.0000 0.11000  0.52900  0.23400  Biso   1.000  H
  H4       1.0000 0.39000  0.97100  0.23400  Biso   1.000  H
  H5       1.0000 0.47100  0.89000  0.26600  Biso   1.000  H
  H6       1.0000 0.52900  0.39000  0.23400  Biso   1.000  H
  H7       1.0000 0.02900  0.61000  0.26600  Biso   1.000  H
  H8       1.0000 0.89000  0.02900  0.26600  Biso   1.000  H
  H9       1.0000 0.02900  0.89000  0.76600  Biso   1.000  H
  H10      1.0000 0.39000  0.52900  0.73400  Biso   1.000  H
  H11      1.0000 0.89000  0.47100  0.76600  Biso   1.000  H
  H12      1.0000 0.61000  0.02900  0.76600  Biso   1.000  H
  H13      1.0000 0.52900  0.11000  0.73400  Biso   1.000  H
  H14      1.0000 0.47100  0.61000  0.76600  Biso   1.000  H
  H15      1.0000 0.97100  0.39000  0.73400  Biso   1.000  H
  H16      1.0000 0.11000  0.97100  0.73400  Biso   1.000  H
  N1       1.0000 0.66130  0.15900  0.15780  Biso   1.000  N
  N2       1.0000 0.65900  0.16130  0.34220  Biso   1.000  N
  N3       1.0000 0.15900  0.83870  0.15780  Biso   1.000  N
  N4       1.0000 0.34100  0.66130  0.15780  Biso   1.000  N
  N5       1.0000 0.16130  0.84100  0.34220  Biso   1.000  N
  N6       1.0000 0.83870  0.34100  0.15780  Biso   1.000  N
  N7       1.0000 0.33870  0.65900  0.34220  Biso   1.000  N
  N8       1.0000 0.84100  0.33870  0.34220  Biso   1.000  N
  N9       1.0000 0.33870  0.84100  0.84220  Biso   1.000  N
  N10      1.0000 0.34100  0.83870  0.65780  Biso   1.000  N
  N11      1.0000 0.84100  0.16130  0.84220  Biso   1.000  N
  N12      1.0000 0.65900  0.33870  0.84220  Biso   1.000  N
  N13      1.0000 0.83870  0.15900  0.65780  Biso   1.000  N
  N14      1.0000 0.16130  0.65900  0.84220  Biso   1.000  N
  N15      1.0000 0.66130  0.34100  0.65780  Biso   1.000  N
  N16      1.0000 0.15900  0.66130  0.65780  Biso   1.000  N
  C1       1.0000 0.60150  0.97340  0.09750  Biso   1.000  C
  C2       1.0000 0.47340  0.10150  0.40250  Biso   1.000  C
  C3       1.0000 0.97340  0.89850  0.09750  Biso   1.000  C
  C4       1.0000 0.52660  0.60150  0.09750  Biso   1.000  C
  C5       1.0000 0.10150  0.02660  0.40250  Biso   1.000  C
  C6       1.0000 0.89850  0.52660  0.09750  Biso   1.000  C
  C7       1.0000 0.39850  0.47340  0.40250  Biso   1.000  C
  C8       1.0000 0.02660  0.39850  0.40250  Biso   1.000  C
  C9       1.0000 0.39850  0.02660  0.90250  Biso   1.000  C
  C10      1.0000 0.52660  0.89850  0.59750  Biso   1.000  C
  C11      1.0000 0.02660  0.10150  0.90250  Biso   1.000  C
  C12      1.0000 0.47340  0.39850  0.90250  Biso   1.000  C
  C13      1.0000 0.89850  0.97340  0.59750  Biso   1.000  C
  C14      1.0000 0.10150  0.47340  0.90250  Biso   1.000  C
  C15      1.0000 0.60150  0.52660  0.59750  Biso   1.000  C
  C16      1.0000 0.97340  0.60150  0.59750  Biso   1.000  C
  H17      1.0000 0.60590  0.89050  0.09900  Biso   1.000  H
  H18      1.0000 0.39050  0.10590  0.40100  Biso   1.000  H
  H19      1.0000 0.89050  0.89410  0.09900  Biso   1.000  H
  H20      1.0000 0.60950  0.60590  0.09900  Biso   1.000  H
  H21      1.0000 0.10590  0.10950  0.40100  Biso   1.000  H
  H22      1.0000 0.89410  0.60950  0.09900  Biso   1.000  H
  H23      1.0000 0.39410  0.39050  0.40100  Biso   1.000  H
  H24      1.0000 0.10950  0.39410  0.40100  Biso   1.000  H
  H25      1.0000 0.39410  0.10950  0.90100  Biso   1.000  H
  H26      1.0000 0.60950  0.89410  0.59900  Biso   1.000  H
  H27      1.0000 0.10950  0.10590  0.90100  Biso   1.000  H
  H28      1.0000 0.39050  0.39410  0.90100  Biso   1.000  H
  H29      1.0000 0.89410  0.89050  0.59900  Biso   1.000  H
  H30      1.0000 0.10590  0.39050  0.90100  Biso   1.000  H
  H31      1.0000 0.60590  0.60950  0.59900  Biso   1.000  H
  H32      1.0000 0.89050  0.60590  0.59900  Biso   1.000  H
  C17      1.0000 0.53430  0.03150  0.03350  Biso   1.000  C
  C18      1.0000 0.53150  0.03430  0.46650  Biso   1.000  C
  C19      1.0000 0.03150  0.96570  0.03350  Biso   1.000  C
  C20      1.0000 0.46850  0.53430  0.03350  Biso   1.000  C
  C21      1.0000 0.03430  0.96850  0.46650  Biso   1.000  C
  C22      1.0000 0.96570  0.46850  0.03350  Biso   1.000  C
  C23      1.0000 0.46570  0.53150  0.46650  Biso   1.000  C
  C24      1.0000 0.96850  0.46570  0.46650  Biso   1.000  C
  C25      1.0000 0.46570  0.96850  0.96650  Biso   1.000  C
  C26      1.0000 0.46850  0.96570  0.53350  Biso   1.000  C
  C27      1.0000 0.96850  0.03430  0.96650  Biso   1.000  C
  C28      1.0000 0.53150  0.46570  0.96650  Biso   1.000  C
  C29      1.0000 0.96570  0.03150  0.53350  Biso   1.000  C
  C30      1.0000 0.03430  0.53150  0.96650  Biso   1.000  C
  C31      1.0000 0.53430  0.46850  0.53350  Biso   1.000  C
  C32      1.0000 0.03150  0.53430  0.53350  Biso   1.000  C
  C33      1.0000 0.65940  0.03970  0.15660  Biso   1.000  C
  C34      1.0000 0.53970  0.15940  0.34340  Biso   1.000  C
  C35      1.0000 0.03970  0.84060  0.15660  Biso   1.000  C
  C36      1.0000 0.46030  0.65940  0.15660  Biso   1.000  C
  C37      1.0000 0.15940  0.96030  0.34340  Biso   1.000  C
  C38      1.0000 0.84060  0.46030  0.15660  Biso   1.000  C
  C39      1.0000 0.34060  0.53970  0.34340  Biso   1.000  C
  C40      1.0000 0.96030  0.34060  0.34340  Biso   1.000  C
  C41      1.0000 0.34060  0.96030  0.84340  Biso   1.000  C
  C42      1.0000 0.46030  0.84060  0.65660  Biso   1.000  C
  C43      1.0000 0.96030  0.15940  0.84340  Biso   1.000  C
  C44      1.0000 0.53970  0.34060  0.84340  Biso   1.000  C
  C45      1.0000 0.84060  0.03970  0.65660  Biso   1.000  C
  C46      1.0000 0.15940  0.53970  0.84340  Biso   1.000  C
  C47      1.0000 0.65940  0.46030  0.65660  Biso   1.000  C
  C48      1.0000 0.03970  0.65940  0.65660  Biso   1.000  C
  H33      1.0000 0.70170  0.99990  0.20050  Biso   1.000  H
  H34      1.0000 0.49990  0.20170  0.29950  Biso   1.000  H
  H35      1.0000 0.99990  0.79830  0.20050  Biso   1.000  H
  H36      1.0000 0.50010  0.70170  0.20050  Biso   1.000  H
  H37      1.0000 0.20170  0.00010  0.29950  Biso   1.000  H
  H38      1.0000 0.79830  0.50010  0.20050  Biso   1.000  H
  H39      1.0000 0.29830  0.49990  0.29950  Biso   1.000  H
  H40      1.0000 0.00010  0.29830  0.29950  Biso   1.000  H
  H41      1.0000 0.29830  0.00010  0.79950  Biso   1.000  H
  H42      1.0000 0.50010  0.79830  0.70050  Biso   1.000  H
  H43      1.0000 0.00010  0.20170  0.79950  Biso   1.000  H
  H44      1.0000 0.49990  0.29830  0.79950  Biso   1.000  H
  H45      1.0000 0.79830  0.99990  0.70050  Biso   1.000  H
  H46      1.0000 0.20170  0.49990  0.79950  Biso   1.000  H
  H47      1.0000 0.70170  0.50010  0.70050  Biso   1.000  H
  H48      1.0000 0.99990  0.70170  0.70050  Biso   1.000  H
  C49      1.0000 0.53330  0.15480  0.03560  Biso   1.000  C
  C50      1.0000 0.65480  0.03330  0.46440  Biso   1.000  C
  C51      1.0000 0.15480  0.96670  0.03560  Biso   1.000  C
  C52      1.0000 0.34520  0.53330  0.03560  Biso   1.000  C
  C53      1.0000 0.03330  0.84520  0.46440  Biso   1.000  C
  C54      1.0000 0.96670  0.34520  0.03560  Biso   1.000  C
  C55      1.0000 0.46670  0.65480  0.46440  Biso   1.000  C
  C56      1.0000 0.84520  0.46670  0.46440  Biso   1.000  C
  C57      1.0000 0.46670  0.84520  0.96440  Biso   1.000  C
  C58      1.0000 0.34520  0.96670  0.53560  Biso   1.000  C
  C59      1.0000 0.84520  0.03330  0.96440  Biso   1.000  C
  C60      1.0000 0.65480  0.46670  0.96440  Biso   1.000  C
  C61      1.0000 0.96670  0.15480  0.53560  Biso   1.000  C
  C62      1.0000 0.03330  0.65480  0.96440  Biso   1.000  C
  C63      1.0000 0.53330  0.34520  0.53560  Biso   1.000  C
  C64      1.0000 0.15480  0.53330  0.53560  Biso   1.000  C
  H49      1.0000 0.48840  0.19820  0.99510  Biso   1.000  H
  H50      1.0000 0.69820  0.98840  0.50490  Biso   1.000  H
  H51      1.0000 0.19820  0.01160  0.99510  Biso   1.000  H
  H52      1.0000 0.30180  0.48840  0.99510  Biso   1.000  H
  H53      1.0000 0.98840  0.80180  0.50490  Biso   1.000  H
  H54      1.0000 0.01160  0.30180  0.99510  Biso   1.000  H
  H55      1.0000 0.51160  0.69820  0.50490  Biso   1.000  H
  H56      1.0000 0.80180  0.51160  0.50490  Biso   1.000  H
  H57      1.0000 0.51160  0.80180  0.00490  Biso   1.000  H
  H58      1.0000 0.30180  0.01160  0.49510  Biso   1.000  H
  H59      1.0000 0.80180  0.98840  0.00490  Biso   1.000  H
  H60      1.0000 0.69820  0.51160  0.00490  Biso   1.000  H
  H61      1.0000 0.01160  0.19820  0.49510  Biso   1.000  H
  H62      1.0000 0.98840  0.69820  0.00490  Biso   1.000  H
  H63      1.0000 0.48840  0.30180  0.49510  Biso   1.000  H
  H64      1.0000 0.19820  0.48840  0.49510  Biso   1.000  H
  C65      1.0000 0.59930  0.21130  0.09810  Biso   1.000  C
  C66      1.0000 0.71130  0.09930  0.40190  Biso   1.000  C
  C67      1.0000 0.21130  0.90070  0.09810  Biso   1.000  C
  C68      1.0000 0.28870  0.59930  0.09810  Biso   1.000  C
  C69      1.0000 0.09930  0.78870  0.40190  Biso   1.000  C
  C70      1.0000 0.90070  0.28870  0.09810  Biso   1.000  C
  C71      1.0000 0.40070  0.71130  0.40190  Biso   1.000  C
  C72      1.0000 0.78870  0.40070  0.40190  Biso   1.000  C
  C73      1.0000 0.40070  0.78870  0.90190  Biso   1.000  C
  C74      1.0000 0.28870  0.90070  0.59810  Biso   1.000  C
  C75      1.0000 0.78870  0.09930  0.90190  Biso   1.000  C
  C76      1.0000 0.71130  0.40070  0.90190  Biso   1.000  C
  C77      1.0000 0.90070  0.21130  0.59810  Biso   1.000  C
  C78      1.0000 0.09930  0.71130  0.90190  Biso   1.000  C
  C79      1.0000 0.59930  0.28870  0.59810  Biso   1.000  C
  C80      1.0000 0.21130  0.59930  0.59810  Biso   1.000  C
  H65      1.0000 0.59950  0.29430  0.09760  Biso   1.000  H
  H66      1.0000 0.79430  0.09950  0.40240  Biso   1.000  H
  H67      1.0000 0.29430  0.90050  0.09760  Biso   1.000  H
  H68      1.0000 0.20570  0.59950  0.09760  Biso   1.000  H
  H69      1.0000 0.09950  0.70570  0.40240  Biso   1.000  H
  H70      1.0000 0.90050  0.20570  0.09760  Biso   1.000  H
  H71      1.0000 0.40050  0.79430  0.40240  Biso   1.000  H
  H72      1.0000 0.70570  0.40050  0.40240  Biso   1.000  H
  H73      1.0000 0.40050  0.70570  0.90240  Biso   1.000  H
  H74      1.0000 0.20570  0.90050  0.59760  Biso   1.000  H
  H75      1.0000 0.70570  0.09950  0.90240  Biso   1.000  H
  H76      1.0000 0.79430  0.40050  0.90240  Biso   1.000  H
  H77      1.0000 0.90050  0.29430  0.59760  Biso   1.000  H
  H78      1.0000 0.09950  0.79430  0.90240  Biso   1.000  H
  H79      1.0000 0.59950  0.20570  0.59760  Biso   1.000  H
  H80      1.0000 0.29430  0.59950  0.59760  Biso   1.000  H
  S17      1.0000 0.74390  0.80290  0.28290  Biso   1.000  S
  S18      1.0000 0.30290  0.24390  0.21710  Biso   1.000  S
  S19      1.0000 0.80290  0.75610  0.28290  Biso   1.000  S
  S20      1.0000 0.69710  0.74390  0.28290  Biso   1.000  S
  S21      1.0000 0.24390  0.19710  0.21710  Biso   1.000  S
  S22      1.0000 0.75610  0.69710  0.28290  Biso   1.000  S
  S23      1.0000 0.25610  0.30290  0.21710  Biso   1.000  S
  S24      1.0000 0.19710  0.25610  0.21710  Biso   1.000  S
  S25      1.0000 0.25610  0.19710  0.71710  Biso   1.000  S
  S26      1.0000 0.69710  0.75610  0.78290  Biso   1.000  S
  S27      1.0000 0.19710  0.24390  0.71710  Biso   1.000  S
  S28      1.0000 0.30290  0.25610  0.71710  Biso   1.000  S
  S29      1.0000 0.75610  0.80290  0.78290  Biso   1.000  S
  S30      1.0000 0.24390  0.30290  0.71710  Biso   1.000  S
  S31      1.0000 0.74390  0.69710  0.78290  Biso   1.000  S
  S32      1.0000 0.80290  0.74390  0.78290  Biso   1.000  S
  O29      1.0000 0.57600  0.82400  0.35300  Biso   1.000  O
  O30      1.0000 0.32400  0.07600  0.14700  Biso   1.000  O
  O31      1.0000 0.82400  0.92400  0.35300  Biso   1.000  O
  O32      1.0000 0.67600  0.57600  0.35300  Biso   1.000  O
  O33      1.0000 0.07600  0.17600  0.14700  Biso   1.000  O
  O34      1.0000 0.92400  0.67600  0.35300  Biso   1.000  O
  O35      1.0000 0.42400  0.32400  0.14700  Biso   1.000  O
  O36      1.0000 0.17600  0.42400  0.14700  Biso   1.000  O
  O37      1.0000 0.42400  0.17600  0.64700  Biso   1.000  O
  O38      1.0000 0.67600  0.92400  0.85300  Biso   1.000  O
  O39      1.0000 0.17600  0.07600  0.64700  Biso   1.000  O
  O40      1.0000 0.32400  0.42400  0.64700  Biso   1.000  O
  O41      1.0000 0.92400  0.82400  0.85300  Biso   1.000  O
  O42      1.0000 0.07600  0.32400  0.64700  Biso   1.000  O
  O43      1.0000 0.57600  0.67600  0.85300  Biso   1.000  O
  O44      1.0000 0.82400  0.57600  0.85300  Biso   1.000  O
  O45      1.0000 0.73700  0.79600  0.45210  Biso   1.000  O
  O46      1.0000 0.29600  0.23700  0.04790  Biso   1.000  O
  O47      1.0000 0.79600  0.76300  0.45210  Biso   1.000  O
  O48      1.0000 0.70400  0.73700  0.45210  Biso   1.000  O
  O49      1.0000 0.23700  0.20400  0.04790  Biso   1.000  O
  O50      1.0000 0.76300  0.70400  0.45210  Biso   1.000  O
  O51      1.0000 0.26300  0.29600  0.04790  Biso   1.000  O
  O52      1.0000 0.20400  0.26300  0.04790  Biso   1.000  O
  O53      1.0000 0.26300  0.20400  0.54790  Biso   1.000  O
  O54      1.0000 0.70400  0.76300  0.95210  Biso   1.000  O
  O55      1.0000 0.20400  0.23700  0.54790  Biso   1.000  O
  O56      1.0000 0.29600  0.26300  0.54790  Biso   1.000  O
  O57      1.0000 0.76300  0.79600  0.95210  Biso   1.000  O
  O58      1.0000 0.23700  0.29600  0.54790  Biso   1.000  O
  O59      1.0000 0.73700  0.70400  0.95210  Biso   1.000  O
  O60      1.0000 0.79600  0.73700  0.95210  Biso   1.000  O
