data_image0
_cell_length_a       13.3797
_cell_length_b       14.0893
_cell_length_c       14.7212
_cell_angle_alpha    99.402
_cell_angle_beta     110.628
_cell_angle_gamma    100.26

_symmetry_space_group_name_H-M    "P 1"
_symmetry_int_tables_number       1

loop_
  _symmetry_equiv_pos_as_xyz
  'x, y, z'

loop_
  _atom_site_label
  _atom_site_occupancy
  _atom_site_fract_x
  _atom_site_fract_y
  _atom_site_fract_z
  _atom_site_thermal_displace_type
  _atom_site_B_iso_or_equiv
  _atom_site_type_symbol
  Cu1      1.0000 0.89596  0.53164  0.41570  Biso   1.000  Cu
  Cu2      1.0000 0.10404  0.46836  0.58430  Biso   1.000  Cu
  Cu3      1.0000 0.04325  0.40769  0.05067  Biso   1.000  Cu
  Cu4      1.0000 0.95675  0.59231  0.94933  Biso   1.000  Cu
  Cu5      1.0000 0.44719  0.04027  0.55275  Biso   1.000  Cu
  Cu6      1.0000 0.55281  0.95973  0.44725  Biso   1.000  Cu
  N1       1.0000 0.79700  0.39770  0.36720  Biso   1.000  N
  N2       1.0000 0.20300  0.60230  0.63280  Biso   1.000  N
  N3       1.0000 0.90610  0.30530  0.97200  Biso   1.000  N
  N4       1.0000 0.09390  0.69470  0.02800  Biso   1.000  N
  N5       1.0000 0.99110  0.67420  0.45240  Biso   1.000  N
  N6       1.0000 0.00890  0.32580  0.54760  Biso   1.000  N
  N7       1.0000 0.18570  0.50770  0.14850  Biso   1.000  N
  N8       1.0000 0.81430  0.49230  0.85150  Biso   1.000  N
  N9       1.0000 0.36300  0.09340  0.64320  Biso   1.000  N
  N10      1.0000 0.63700  0.90660  0.35680  Biso   1.000  N
  O1       1.0000 0.01650  0.48140  0.40680  Biso   1.000  O
  O2       1.0000 0.98350  0.51860  0.59320  Biso   1.000  O
  O3       1.0000 0.77800  0.59090  0.40610  Biso   1.000  O
  O4       1.0000 0.22200  0.40910  0.59390  Biso   1.000  O
  O5       1.0000 0.61390  0.60570  0.38920  Biso   1.000  O
  O6       1.0000 0.38610  0.39430  0.61080  Biso   1.000  O
  O7       1.0000 0.48890  0.16040  0.50840  Biso   1.000  O
  O8       1.0000 0.51110  0.83960  0.49160  Biso   1.000  O
  O9       1.0000 0.58100  0.09450  0.42450  Biso   1.000  O
  O10      1.0000 0.41900  0.90550  0.57550  Biso   1.000  O
  O11      1.0000 0.96450  0.49840  0.08410  Biso   1.000  O
  O12      1.0000 0.03550  0.50160  0.91590  Biso   1.000  O
  O13      1.0000 0.13160  0.32010  0.03480  Biso   1.000  O
  O14      1.0000 0.86840  0.67990  0.96520  Biso   1.000  O
  O15      1.0000 0.17730  0.18620  0.98060  Biso   1.000  O
  O16      1.0000 0.82270  0.81380  0.01940  Biso   1.000  O
  O17      1.0000 0.59540  0.07790  0.66150  Biso   1.000  O
  O18      1.0000 0.40460  0.92210  0.33850  Biso   1.000  O
  O19      1.0000 0.68320  0.00780  0.57440  Biso   1.000  O
  O20      1.0000 0.31680  0.99220  0.42560  Biso   1.000  O
  O21      1.0000 0.32730  0.11410  0.10720  Biso   1.000  O
  O22      1.0000 0.67270  0.88590  0.89280  Biso   1.000  O
  H1       1.0000 0.28470  0.13320  0.06280  Biso   1.000  H
  H2       1.0000 0.71530  0.86680  0.93720  Biso   1.000  H
  O23      1.0000 0.59440  0.03980  0.86120  Biso   1.000  O
  O24      1.0000 0.40560  0.96020  0.13880  Biso   1.000  O
  H3       1.0000 0.59330  0.05220  0.80630  Biso   1.000  H
  H4       1.0000 0.40670  0.94780  0.19370  Biso   1.000  H
  H5       1.0000 0.62170  0.99020  0.86910  Biso   1.000  H
  H6       1.0000 0.37830  0.00980  0.13090  Biso   1.000  H
  C1       1.0000 0.81180  0.32650  0.30840  Biso   1.000  C
  C2       1.0000 0.18820  0.67350  0.69160  Biso   1.000  C
  H7       1.0000 0.75320  0.26990  0.27680  Biso   1.000  H
  H8       1.0000 0.24680  0.73010  0.72320  Biso   1.000  H
  C3       1.0000 0.90800  0.32580  0.28720  Biso   1.000  C
  C4       1.0000 0.09200  0.67420  0.71280  Biso   1.000  C
  C5       1.0000 0.00630  0.40040  0.34110  Biso   1.000  C
  C6       1.0000 0.99370  0.59960  0.65890  Biso   1.000  C
  C7       1.0000 0.10540  0.39040  0.32870  Biso   1.000  C
  C8       1.0000 0.89460  0.60960  0.67130  Biso   1.000  C
  H9       1.0000 0.17090  0.43940  0.36490  Biso   1.000  H
  H10      1.0000 0.82910  0.56060  0.63510  Biso   1.000  H
  C9       1.0000 0.10370  0.30830  0.26330  Biso   1.000  C
  C10      1.0000 0.89630  0.69170  0.73670  Biso   1.000  C
  H11      1.0000 0.16920  0.30230  0.25690  Biso   1.000  H
  H12      1.0000 0.83080  0.69770  0.74310  Biso   1.000  H
  C11      1.0000 0.00610  0.23210  0.20510  Biso   1.000  C
  C12      1.0000 0.99390  0.76790  0.79490  Biso   1.000  C
  C13      1.0000 0.90630  0.24000  0.21580  Biso   1.000  C
  C14      1.0000 0.09370  0.76000  0.78420  Biso   1.000  C
  C15      1.0000 0.81060  0.16400  0.15480  Biso   1.000  C
  C16      1.0000 0.18940  0.83600  0.84520  Biso   1.000  C
  H13      1.0000 0.74380  0.16690  0.15990  Biso   1.000  H
  H14      1.0000 0.25620  0.83310  0.84010  Biso   1.000  H
  C17      1.0000 0.81410  0.08590  0.08830  Biso   1.000  C
  C18      1.0000 0.18590  0.91410  0.91170  Biso   1.000  C
  H15      1.0000 0.74960  0.03690  0.04840  Biso   1.000  H
  H16      1.0000 0.25040  0.96310  0.95160  Biso   1.000  H
  C19      1.0000 0.91350  0.07880  0.07920  Biso   1.000  C
  C20      1.0000 0.08650  0.92120  0.92080  Biso   1.000  C
  H17      1.0000 0.91480  0.02520  0.03380  Biso   1.000  H
  H18      1.0000 0.08520  0.97480  0.96620  Biso   1.000  H
  C21      1.0000 0.00730  0.14980  0.13660  Biso   1.000  C
  C22      1.0000 0.99270  0.85020  0.86340  Biso   1.000  C
  H19      1.0000 0.07340  0.14460  0.13100  Biso   1.000  H
  H20      1.0000 0.92660  0.85540  0.86900  Biso   1.000  H
  C23      1.0000 0.70180  0.37590  0.39080  Biso   1.000  C
  C24      1.0000 0.29820  0.62410  0.60920  Biso   1.000  C
  C25      1.0000 0.64650  0.45030  0.40410  Biso   1.000  C
  C26      1.0000 0.35350  0.54970  0.59590  Biso   1.000  C
  C27      1.0000 0.55350  0.42480  0.42560  Biso   1.000  C
  C28      1.0000 0.44650  0.57520  0.57440  Biso   1.000  C
  H21      1.0000 0.51330  0.47160  0.42960  Biso   1.000  H
  H22      1.0000 0.48670  0.52840  0.57040  Biso   1.000  H
  C29      1.0000 0.51900  0.33450  0.44120  Biso   1.000  C
  C30      1.0000 0.48100  0.66550  0.55880  Biso   1.000  C
  H23      1.0000 0.45750  0.32080  0.45720  Biso   1.000  H
  H24      1.0000 0.54250  0.67920  0.54280  Biso   1.000  H
  C31      1.0000 0.57700  0.26210  0.43270  Biso   1.000  C
  C32      1.0000 0.42300  0.73790  0.56730  Biso   1.000  C
  C33      1.0000 0.66670  0.28390  0.40560  Biso   1.000  C
  C34      1.0000 0.33330  0.71610  0.59440  Biso   1.000  C
  H25      1.0000 0.70360  0.23520  0.39720  Biso   1.000  H
  H26      1.0000 0.29640  0.76480  0.60280  Biso   1.000  H
  C35      1.0000 0.68010  0.55560  0.39840  Biso   1.000  C
  C36      1.0000 0.31990  0.44440  0.60160  Biso   1.000  C
  C37      1.0000 0.54620  0.16460  0.45660  Biso   1.000  C
  C38      1.0000 0.45380  0.83540  0.54340  Biso   1.000  C
  C39      1.0000 0.81610  0.30380  0.98950  Biso   1.000  C
  C40      1.0000 0.18390  0.69620  0.01050  Biso   1.000  C
  H27      1.0000 0.76000  0.24530  0.95940  Biso   1.000  H
  H28      1.0000 0.24000  0.75470  0.04060  Biso   1.000  H
  C41      1.0000 0.79460  0.38140  0.04940  Biso   1.000  C
  C42      1.0000 0.20540  0.61860  0.95060  Biso   1.000  C
  C43      1.0000 0.86940  0.47580  0.09260  Biso   1.000  C
  C44      1.0000 0.13060  0.52420  0.90740  Biso   1.000  C
  C45      1.0000 0.84150  0.55450  0.14680  Biso   1.000  C
  C46      1.0000 0.15850  0.44550  0.85320  Biso   1.000  C
  H29      1.0000 0.89130  0.61680  0.17640  Biso   1.000  H
  H30      1.0000 0.10870  0.38320  0.82360  Biso   1.000  H
  C47      1.0000 0.74340  0.53720  0.15420  Biso   1.000  C
  C48      1.0000 0.25660  0.46280  0.84580  Biso   1.000  C
  H31      1.0000 0.72660  0.58850  0.18980  Biso   1.000  H
  H32      1.0000 0.27340  0.41150  0.81020  Biso   1.000  H
  C49      1.0000 0.66360  0.44390  0.10990  Biso   1.000  C
  C50      1.0000 0.33640  0.55610  0.89010  Biso   1.000  C
  C51      1.0000 0.68760  0.36390  0.05780  Biso   1.000  C
  C52      1.0000 0.31240  0.63610  0.94220  Biso   1.000  C
  C53      1.0000 0.60570  0.27390  0.01520  Biso   1.000  C
  C54      1.0000 0.39430  0.72610  0.98480  Biso   1.000  C
  H33      1.0000 0.61980  0.21960  0.98130  Biso   1.000  H
  H34      1.0000 0.38020  0.78040  0.01870  Biso   1.000  H
  C55      1.0000 0.50530  0.26410  0.02260  Biso   1.000  C
  C56      1.0000 0.49470  0.73590  0.97740  Biso   1.000  C
  H35      1.0000 0.45120  0.20440  0.99160  Biso   1.000  H
  H36      1.0000 0.54880  0.79560  0.00840  Biso   1.000  H
  C57      1.0000 0.48470  0.34290  0.07600  Biso   1.000  C
  C58      1.0000 0.51530  0.65710  0.92400  Biso   1.000  C
  H37      1.0000 0.41730  0.33540  0.08260  Biso   1.000  H
  H38      1.0000 0.58270  0.66460  0.91740  Biso   1.000  H
  C59      1.0000 0.56000  0.42910  0.11800  Biso   1.000  C
  C60      1.0000 0.44000  0.57090  0.88200  Biso   1.000  C
  H39      1.0000 0.54440  0.48120  0.15370  Biso   1.000  H
  H40      1.0000 0.45560  0.51880  0.84630  Biso   1.000  H
  C61      1.0000 0.89910  0.22420  0.89500  Biso   1.000  C
  C62      1.0000 0.10090  0.77580  0.10500  Biso   1.000  C
  C63      1.0000 0.99400  0.19090  0.89750  Biso   1.000  C
  C64      1.0000 0.00600  0.80910  0.10250  Biso   1.000  C
  C65      1.0000 0.97990  0.10930  0.82190  Biso   1.000  C
  C66      1.0000 0.02010  0.89070  0.17810  Biso   1.000  C
  H41      1.0000 0.04080  0.08510  0.82410  Biso   1.000  H
  H42      1.0000 0.95920  0.91490  0.17590  Biso   1.000  H
  C67      1.0000 0.87990  0.06360  0.74450  Biso   1.000  C
  C68      1.0000 0.12010  0.93640  0.25550  Biso   1.000  C
  H43      1.0000 0.87340  0.00960  0.69520  Biso   1.000  H
  H44      1.0000 0.12660  0.99040  0.30480  Biso   1.000  H
  C69      1.0000 0.78890  0.09900  0.74100  Biso   1.000  C
  C70      1.0000 0.21110  0.90100  0.25900  Biso   1.000  C
  C71      1.0000 0.79870  0.17870  0.81650  Biso   1.000  C
  C72      1.0000 0.20130  0.82130  0.18350  Biso   1.000  C
  H45      1.0000 0.73680  0.20130  0.81400  Biso   1.000  H
  H46      1.0000 0.26320  0.79870  0.18600  Biso   1.000  H
  C73      1.0000 0.10820  0.23530  0.97560  Biso   1.000  C
  C74      1.0000 0.89180  0.76470  0.02440  Biso   1.000  C
  C75      1.0000 0.67960  0.05760  0.65240  Biso   1.000  C
  C76      1.0000 0.32040  0.94240  0.34760  Biso   1.000  C
  C77      1.0000 0.97280  0.74950  0.50590  Biso   1.000  C
  C78      1.0000 0.02720  0.25050  0.49410  Biso   1.000  C
  H47      1.0000 0.91790  0.73600  0.53040  Biso   1.000  H
  H48      1.0000 0.08210  0.26400  0.46960  Biso   1.000  H
  C79      1.0000 0.03170  0.84720  0.52690  Biso   1.000  C
  C80      1.0000 0.96830  0.15280  0.47310  Biso   1.000  C
  H49      1.0000 0.01730  0.89750  0.56590  Biso   1.000  H
  H50      1.0000 0.98270  0.10250  0.43410  Biso   1.000  H
  C81      1.0000 0.11000  0.86910  0.49060  Biso   1.000  C
  C82      1.0000 0.89000  0.13090  0.50940  Biso   1.000  C
  H51      1.0000 0.15050  0.93430  0.50390  Biso   1.000  H
  H52      1.0000 0.84950  0.06570  0.49610  Biso   1.000  H
  C83      1.0000 0.12820  0.79160  0.43280  Biso   1.000  C
  C84      1.0000 0.87180  0.20840  0.56720  Biso   1.000  C
  H53      1.0000 0.18060  0.80380  0.40520  Biso   1.000  H
  H54      1.0000 0.81940  0.19620  0.59480  Biso   1.000  H
  C85      1.0000 0.06740  0.69570  0.41650  Biso   1.000  C
  C86      1.0000 0.93260  0.30430  0.58350  Biso   1.000  C
  H55      1.0000 0.08100  0.64390  0.37840  Biso   1.000  H
  H56      1.0000 0.91900  0.35610  0.62160  Biso   1.000  H
  C87      1.0000 0.28170  0.51170  0.13970  Biso   1.000  C
  C88      1.0000 0.71830  0.48830  0.86030  Biso   1.000  C
  H57      1.0000 0.28350  0.46820  0.08580  Biso   1.000  H
  H58      1.0000 0.71650  0.53180  0.91420  Biso   1.000  H
  C89      1.0000 0.37940  0.57820  0.20770  Biso   1.000  C
  C90      1.0000 0.62060  0.42180  0.79230  Biso   1.000  C
  H59      1.0000 0.44500  0.57980  0.19860  Biso   1.000  H
  H60      1.0000 0.55500  0.42020  0.80140  Biso   1.000  H
  C91      1.0000 0.37860  0.64010  0.28670  Biso   1.000  C
  C92      1.0000 0.62140  0.35990  0.71330  Biso   1.000  C
  H61      1.0000 0.44370  0.68430  0.33340  Biso   1.000  H
  H62      1.0000 0.55630  0.31570  0.66660  Biso   1.000  H
  C93      1.0000 0.28230  0.63780  0.29770  Biso   1.000  C
  C94      1.0000 0.71770  0.36220  0.70230  Biso   1.000  C
  H63      1.0000 0.28080  0.67970  0.35280  Biso   1.000  H
  H64      1.0000 0.71920  0.32030  0.64720  Biso   1.000  H
  C95      1.0000 0.18610  0.57290  0.22670  Biso   1.000  C
  C96      1.0000 0.81390  0.42710  0.77330  Biso   1.000  C
  H65      1.0000 0.11960  0.57410  0.23310  Biso   1.000  H
  H66      1.0000 0.88040  0.42590  0.76690  Biso   1.000  H
  C97      1.0000 0.34780  0.04870  0.71130  Biso   1.000  C
  C98      1.0000 0.65220  0.95130  0.28870  Biso   1.000  C
  H67      1.0000 0.37710  0.99440  0.72180  Biso   1.000  H
  H68      1.0000 0.62290  0.00560  0.27820  Biso   1.000  H
  C99      1.0000 0.28980  0.07950  0.76800  Biso   1.000  C
  C100     1.0000 0.71020  0.92050  0.23200  Biso   1.000  C
  H69      1.0000 0.27650  0.04400  0.81240  Biso   1.000  H
  H70      1.0000 0.72350  0.95600  0.18760  Biso   1.000  H
  C101     1.0000 0.25320  0.16240  0.75670  Biso   1.000  C
  C102     1.0000 0.74680  0.83760  0.24330  Biso   1.000  C
  H71      1.0000 0.22000  0.18790  0.79760  Biso   1.000  H
  H72      1.0000 0.78000  0.81210  0.20240  Biso   1.000  H
  C103     1.0000 0.26530  0.20750  0.68600  Biso   1.000  C
  C104     1.0000 0.73470  0.79250  0.31400  Biso   1.000  C
  H73      1.0000 0.23660  0.26200  0.67480  Biso   1.000  H
  H74      1.0000 0.76340  0.73800  0.32520  Biso   1.000  H
  C105     1.0000 0.32090  0.17180  0.63030  Biso   1.000  C
  C106     1.0000 0.67910  0.82820  0.36970  Biso   1.000  C
  H75      1.0000 0.32950  0.20350  0.58180  Biso   1.000  H
  H76      1.0000 0.67050  0.79650  0.41820  Biso   1.000  H
  C107     1.0000 0.33850  0.17040  0.20670  Biso   1.000  C
  C108     1.0000 0.66150  0.82960  0.79330  Biso   1.000  C
  H77      1.0000 0.39430  0.15340  0.25870  Biso   1.000  H
  H78      1.0000 0.60570  0.84660  0.74130  Biso   1.000  H
  H79      1.0000 0.26930  0.15350  0.21370  Biso   1.000  H
  H80      1.0000 0.73070  0.84650  0.78630  Biso   1.000  H
  H81      1.0000 0.35910  0.24050  0.21180  Biso   1.000  H
  H82      1.0000 0.64090  0.75950  0.78820  Biso   1.000  H
