data_image0
_cell_length_a       7.255
_cell_length_b       12.166
_cell_length_c       16.001
_cell_angle_alpha    90
_cell_angle_beta     90
_cell_angle_gamma    90

_symmetry_space_group_name_H-M    "P 1"
_symmetry_int_tables_number       1

loop_
  _symmetry_equiv_pos_as_xyz
  'x, y, z'

loop_
  _atom_site_label
  _atom_site_occupancy
  _atom_site_fract_x
  _atom_site_fract_y
  _atom_site_fract_z
  _atom_site_thermal_displace_type
  _atom_site_B_iso_or_equiv
  _atom_site_type_symbol
  Cu1      1.0000 0.95911  0.38045  0.95953  Biso   1.000  Cu
  Cu2      1.0000 0.54089  0.61955  0.45953  Biso   1.000  Cu
  Cu3      1.0000 0.04089  0.88045  0.54047  Biso   1.000  Cu
  Cu4      1.0000 0.45911  0.11955  0.04047  Biso   1.000  Cu
  N1       1.0000 0.01580  0.49400  0.03720  Biso   1.000  N
  N2       1.0000 0.48420  0.50600  0.53720  Biso   1.000  N
  N3       1.0000 0.98420  0.99400  0.46280  Biso   1.000  N
  N4       1.0000 0.51580  0.00600  0.96280  Biso   1.000  N
  O1       1.0000 0.11860  0.27530  0.01340  Biso   1.000  O
  O2       1.0000 0.38140  0.72470  0.51340  Biso   1.000  O
  O3       1.0000 0.88140  0.77530  0.48660  Biso   1.000  O
  O4       1.0000 0.61860  0.22470  0.98660  Biso   1.000  O
  O5       1.0000 0.33520  0.23220  0.10520  Biso   1.000  O
  O6       1.0000 0.16480  0.76780  0.60520  Biso   1.000  O
  O7       1.0000 0.66480  0.73220  0.39480  Biso   1.000  O
  O8       1.0000 0.83520  0.26780  0.89480  Biso   1.000  O
  O9       1.0000 0.90510  0.47900  0.87270  Biso   1.000  O
  O10      1.0000 0.59490  0.52100  0.37270  Biso   1.000  O
  O11      1.0000 0.09490  0.97900  0.62730  Biso   1.000  O
  O12      1.0000 0.40510  0.02100  0.12730  Biso   1.000  O
  C1       1.0000 0.19990  0.28810  0.08320  Biso   1.000  C
  C2       1.0000 0.30010  0.71190  0.58320  Biso   1.000  C
  C3       1.0000 0.80010  0.78810  0.41680  Biso   1.000  C
  C4       1.0000 0.69990  0.21190  0.91680  Biso   1.000  C
  C5       1.0000 0.13080  0.36920  0.14600  Biso   1.000  C
  C6       1.0000 0.36920  0.63080  0.64600  Biso   1.000  C
  C7       1.0000 0.86920  0.86920  0.35400  Biso   1.000  C
  C8       1.0000 0.63080  0.13080  0.85400  Biso   1.000  C
  C9       1.0000 0.04350  0.46740  0.12370  Biso   1.000  C
  C10      1.0000 0.45650  0.53260  0.62370  Biso   1.000  C
  C11      1.0000 0.95650  0.96740  0.37630  Biso   1.000  C
  C12      1.0000 0.54350  0.03260  0.87630  Biso   1.000  C
  C13      1.0000 0.98420  0.53920  0.18530  Biso   1.000  C
  C14      1.0000 0.51580  0.46080  0.68530  Biso   1.000  C
  C15      1.0000 0.01580  0.03920  0.31470  Biso   1.000  C
  C16      1.0000 0.48420  0.96080  0.81470  Biso   1.000  C
  H1       1.0000 0.92080  0.60270  0.17050  Biso   1.000  H
  H2       1.0000 0.57920  0.39730  0.67050  Biso   1.000  H
  H3       1.0000 0.07920  0.10270  0.32950  Biso   1.000  H
  H4       1.0000 0.42080  0.89730  0.82950  Biso   1.000  H
  C17      1.0000 0.01850  0.51720  0.26880  Biso   1.000  C
  C18      1.0000 0.48150  0.48280  0.76880  Biso   1.000  C
  C19      1.0000 0.98150  0.01720  0.23120  Biso   1.000  C
  C20      1.0000 0.51850  0.98280  0.73120  Biso   1.000  C
  H5       1.0000 0.97970  0.56630  0.30980  Biso   1.000  H
  H6       1.0000 0.52030  0.43370  0.80980  Biso   1.000  H
  H7       1.0000 0.02030  0.06630  0.19020  Biso   1.000  H
  H8       1.0000 0.47970  0.93370  0.69020  Biso   1.000  H
  C21      1.0000 0.11060  0.42220  0.29100  Biso   1.000  C
  C22      1.0000 0.38940  0.57780  0.79100  Biso   1.000  C
  C23      1.0000 0.88940  0.92220  0.20900  Biso   1.000  C
  C24      1.0000 0.61060  0.07780  0.70900  Biso   1.000  C
  H9       1.0000 0.13660  0.40800  0.34690  Biso   1.000  H
  H10      1.0000 0.36340  0.59200  0.84690  Biso   1.000  H
  H11      1.0000 0.86340  0.90800  0.15310  Biso   1.000  H
  H12      1.0000 0.63660  0.09200  0.65310  Biso   1.000  H
  C25      1.0000 0.16380  0.34890  0.23050  Biso   1.000  C
  C26      1.0000 0.33620  0.65110  0.73050  Biso   1.000  C
  C27      1.0000 0.83620  0.84890  0.26950  Biso   1.000  C
  C28      1.0000 0.66380  0.15110  0.76950  Biso   1.000  C
  H13      1.0000 0.22300  0.28440  0.24620  Biso   1.000  H
  H14      1.0000 0.27700  0.71560  0.74620  Biso   1.000  H
  H15      1.0000 0.77700  0.78440  0.25380  Biso   1.000  H
  H16      1.0000 0.72300  0.21560  0.75380  Biso   1.000  H
  C29      1.0000 0.03250  0.59940  0.01740  Biso   1.000  C
  C30      1.0000 0.46750  0.40060  0.51740  Biso   1.000  C
  C31      1.0000 0.96750  0.09940  0.48260  Biso   1.000  C
  C32      1.0000 0.53250  0.90060  0.98260  Biso   1.000  C
  H17      1.0000 0.07700  0.64610  0.05870  Biso   1.000  H
  H18      1.0000 0.42300  0.35390  0.55870  Biso   1.000  H
  H19      1.0000 0.92300  0.14610  0.44130  Biso   1.000  H
  H20      1.0000 0.57700  0.85390  0.94130  Biso   1.000  H
  C33      1.0000 0.98930  0.64760  0.93940  Biso   1.000  C
  C34      1.0000 0.51070  0.35240  0.43940  Biso   1.000  C
  C35      1.0000 0.01070  0.14760  0.56060  Biso   1.000  C
  C36      1.0000 0.48930  0.85240  0.06060  Biso   1.000  C
  C37      1.0000 0.92470  0.58540  0.87140  Biso   1.000  C
  C38      1.0000 0.57530  0.41460  0.37140  Biso   1.000  C
  C39      1.0000 0.07530  0.08540  0.62860  Biso   1.000  C
  C40      1.0000 0.42470  0.91460  0.12860  Biso   1.000  C
  C41      1.0000 0.87370  0.64100  0.79580  Biso   1.000  C
  C42      1.0000 0.62630  0.35900  0.29580  Biso   1.000  C
  C43      1.0000 0.12630  0.14100  0.70420  Biso   1.000  C
  C44      1.0000 0.37370  0.85900  0.20420  Biso   1.000  C
  H21      1.0000 0.82950  0.60030  0.75090  Biso   1.000  H
  H22      1.0000 0.67050  0.39970  0.25090  Biso   1.000  H
  H23      1.0000 0.17050  0.10030  0.74910  Biso   1.000  H
  H24      1.0000 0.32950  0.89970  0.24910  Biso   1.000  H
  C45      1.0000 0.88860  0.75080  0.78880  Biso   1.000  C
  C46      1.0000 0.61140  0.24920  0.28880  Biso   1.000  C
  C47      1.0000 0.11140  0.25080  0.71120  Biso   1.000  C
  C48      1.0000 0.38860  0.74920  0.21120  Biso   1.000  C
  H25      1.0000 0.85390  0.78410  0.73890  Biso   1.000  H
  H26      1.0000 0.64610  0.21590  0.23890  Biso   1.000  H
  H27      1.0000 0.14610  0.28410  0.76110  Biso   1.000  H
  H28      1.0000 0.35390  0.71590  0.26110  Biso   1.000  H
  C49      1.0000 0.95490  0.81670  0.85430  Biso   1.000  C
  C50      1.0000 0.54510  0.18330  0.35430  Biso   1.000  C
  C51      1.0000 0.04510  0.31670  0.64570  Biso   1.000  C
  C52      1.0000 0.45490  0.68330  0.14570  Biso   1.000  C
  C53      1.0000 0.00330  0.76880  0.93230  Biso   1.000  C
  C54      1.0000 0.49670  0.23120  0.43230  Biso   1.000  C
  C55      1.0000 0.99670  0.26880  0.56770  Biso   1.000  C
  C56      1.0000 0.50330  0.73120  0.06770  Biso   1.000  C
  C57      1.0000 0.05460  0.83670  0.99720  Biso   1.000  C
  C58      1.0000 0.44540  0.16330  0.49720  Biso   1.000  C
  C59      1.0000 0.94540  0.33670  0.50280  Biso   1.000  C
  C60      1.0000 0.55460  0.66330  0.00280  Biso   1.000  C
  H29      1.0000 0.08550  0.80610  0.04860  Biso   1.000  H
  H30      1.0000 0.41450  0.19390  0.54860  Biso   1.000  H
  H31      1.0000 0.91450  0.30610  0.45140  Biso   1.000  H
  H32      1.0000 0.58550  0.69390  0.95140  Biso   1.000  H
  C61      1.0000 0.06110  0.95060  0.98700  Biso   1.000  C
  C62      1.0000 0.43890  0.04940  0.48700  Biso   1.000  C
  C63      1.0000 0.93890  0.45060  0.51300  Biso   1.000  C
  C64      1.0000 0.56110  0.54940  0.01300  Biso   1.000  C
  H33      1.0000 0.09130  0.99520  0.03220  Biso   1.000  H
  H34      1.0000 0.40870  0.00480  0.53220  Biso   1.000  H
  H35      1.0000 0.90870  0.49520  0.46780  Biso   1.000  H
  H36      1.0000 0.59130  0.50480  0.96780  Biso   1.000  H
  C65      1.0000 0.02280  0.99760  0.91030  Biso   1.000  C
  C66      1.0000 0.47720  0.00240  0.41030  Biso   1.000  C
  C67      1.0000 0.97720  0.49760  0.58970  Biso   1.000  C
  C68      1.0000 0.52280  0.50240  0.08970  Biso   1.000  C
  H37      1.0000 0.03310  0.07320  0.90310  Biso   1.000  H
  H38      1.0000 0.46690  0.92680  0.40310  Biso   1.000  H
  H39      1.0000 0.96690  0.57320  0.59690  Biso   1.000  H
  H40      1.0000 0.53310  0.42680  0.09690  Biso   1.000  H
  C69      1.0000 0.97000  0.93280  0.84570  Biso   1.000  C
  C70      1.0000 0.53000  0.06720  0.34570  Biso   1.000  C
  C71      1.0000 0.03000  0.43280  0.65430  Biso   1.000  C
  C72      1.0000 0.47000  0.56720  0.15430  Biso   1.000  C
  H41      1.0000 0.94310  0.96500  0.79440  Biso   1.000  H
  H42      1.0000 0.55690  0.03500  0.29440  Biso   1.000  H
  H43      1.0000 0.05690  0.46500  0.70560  Biso   1.000  H
  H44      1.0000 0.44310  0.53500  0.20560  Biso   1.000  H
