data_image0
_cell_length_a       26.558
_cell_length_b       16.5646
_cell_length_c       15.0372
_cell_angle_alpha    90
_cell_angle_beta     106.236
_cell_angle_gamma    90

_symmetry_space_group_name_H-M    "P 1"
_symmetry_int_tables_number       1

loop_
  _symmetry_equiv_pos_as_xyz
  'x, y, z'

loop_
  _atom_site_label
  _atom_site_occupancy
  _atom_site_fract_x
  _atom_site_fract_y
  _atom_site_fract_z
  _atom_site_thermal_displace_type
  _atom_site_B_iso_or_equiv
  _atom_site_type_symbol
  Cu1      1.0000 0.28304  0.06532  0.17723  Biso   1.000  Cu
  Cu2      1.0000 0.71696  0.06532  0.32277  Biso   1.000  Cu
  Cu3      1.0000 0.78304  0.56532  0.17723  Biso   1.000  Cu
  Cu4      1.0000 0.21696  0.56532  0.32277  Biso   1.000  Cu
  Cu5      1.0000 0.71696  0.93468  0.82277  Biso   1.000  Cu
  Cu6      1.0000 0.28304  0.93468  0.67723  Biso   1.000  Cu
  Cu7      1.0000 0.21696  0.43468  0.82277  Biso   1.000  Cu
  Cu8      1.0000 0.78304  0.43468  0.67723  Biso   1.000  Cu
  Cu9      1.0000 0.00000  0.20096  0.75000  Biso   1.000  Cu
  Cu10     1.0000 0.50000  0.70096  0.75000  Biso   1.000  Cu
  Cu11     1.0000 0.00000  0.79904  0.25000  Biso   1.000  Cu
  Cu12     1.0000 0.50000  0.29904  0.25000  Biso   1.000  Cu
  N1       1.0000 0.22471  0.13010  0.10580  Biso   1.000  N
  N2       1.0000 0.77529  0.13010  0.39420  Biso   1.000  N
  N3       1.0000 0.72471  0.63010  0.10580  Biso   1.000  N
  N4       1.0000 0.27529  0.63010  0.39420  Biso   1.000  N
  N5       1.0000 0.77529  0.86990  0.89420  Biso   1.000  N
  N6       1.0000 0.22471  0.86990  0.60580  Biso   1.000  N
  N7       1.0000 0.27529  0.36990  0.89420  Biso   1.000  N
  N8       1.0000 0.72471  0.36990  0.60580  Biso   1.000  N
  N9       1.0000 0.34750  0.06130  0.29070  Biso   1.000  N
  N10      1.0000 0.65250  0.06130  0.20930  Biso   1.000  N
  N11      1.0000 0.84750  0.56130  0.29070  Biso   1.000  N
  N12      1.0000 0.15250  0.56130  0.20930  Biso   1.000  N
  N13      1.0000 0.65250  0.93870  0.70930  Biso   1.000  N
  N14      1.0000 0.34750  0.93870  0.79070  Biso   1.000  N
  N15      1.0000 0.15250  0.43870  0.70930  Biso   1.000  N
  N16      1.0000 0.84750  0.43870  0.79070  Biso   1.000  N
  N17      1.0000 0.27610  0.94110  0.11180  Biso   1.000  N
  N18      1.0000 0.72390  0.94110  0.38820  Biso   1.000  N
  N19      1.0000 0.77610  0.44110  0.11180  Biso   1.000  N
  N20      1.0000 0.22390  0.44110  0.38820  Biso   1.000  N
  N21      1.0000 0.72390  0.05890  0.88820  Biso   1.000  N
  N22      1.0000 0.27610  0.05890  0.61180  Biso   1.000  N
  N23      1.0000 0.22390  0.55890  0.88820  Biso   1.000  N
  N24      1.0000 0.77610  0.55890  0.61180  Biso   1.000  N
  N25      1.0000 0.00000  0.07870  0.75000  Biso   1.000  N
  N26      1.0000 0.50000  0.57870  0.75000  Biso   1.000  N
  N27      1.0000 0.00000  0.92130  0.25000  Biso   1.000  N
  N28      1.0000 0.50000  0.42130  0.25000  Biso   1.000  N
  N29      1.0000 0.00000  0.32320  0.75000  Biso   1.000  N
  N30      1.0000 0.50000  0.82320  0.75000  Biso   1.000  N
  N31      1.0000 0.00000  0.67680  0.25000  Biso   1.000  N
  N32      1.0000 0.50000  0.17680  0.25000  Biso   1.000  N
  O1       1.0000 0.32835  0.10560  0.10640  Biso   1.000  O
  O2       1.0000 0.67165  0.10560  0.39360  Biso   1.000  O
  O3       1.0000 0.82835  0.60560  0.10640  Biso   1.000  O
  O4       1.0000 0.17165  0.60560  0.39360  Biso   1.000  O
  O5       1.0000 0.67165  0.89440  0.89360  Biso   1.000  O
  O6       1.0000 0.32835  0.89440  0.60640  Biso   1.000  O
  O7       1.0000 0.17165  0.39440  0.89360  Biso   1.000  O
  O8       1.0000 0.82835  0.39440  0.60640  Biso   1.000  O
  O9       1.0000 0.35100  0.16160  0.99070  Biso   1.000  O
  O10      1.0000 0.64900  0.16160  0.50930  Biso   1.000  O
  O11      1.0000 0.85100  0.66160  0.99070  Biso   1.000  O
  O12      1.0000 0.14900  0.66160  0.50930  Biso   1.000  O
  O13      1.0000 0.64900  0.83840  0.00930  Biso   1.000  O
  O14      1.0000 0.35100  0.83840  0.49070  Biso   1.000  O
  O15      1.0000 0.14900  0.33840  0.00930  Biso   1.000  O
  O16      1.0000 0.85100  0.33840  0.49070  Biso   1.000  O
  O17      1.0000 0.06763  0.19560  0.84060  Biso   1.000  O
  O18      1.0000 0.93237  0.19560  0.65940  Biso   1.000  O
  O19      1.0000 0.56763  0.69560  0.84060  Biso   1.000  O
  O20      1.0000 0.43237  0.69560  0.65940  Biso   1.000  O
  O21      1.0000 0.93237  0.80440  0.15940  Biso   1.000  O
  O22      1.0000 0.06763  0.80440  0.34060  Biso   1.000  O
  O23      1.0000 0.43237  0.30440  0.15940  Biso   1.000  O
  O24      1.0000 0.56763  0.30440  0.34060  Biso   1.000  O
  O25      1.0000 0.09331  0.18550  0.71260  Biso   1.000  O
  O26      1.0000 0.90669  0.18550  0.78740  Biso   1.000  O
  O27      1.0000 0.59331  0.68550  0.71260  Biso   1.000  O
  O28      1.0000 0.40669  0.68550  0.78740  Biso   1.000  O
  O29      1.0000 0.90669  0.81450  0.28740  Biso   1.000  O
  O30      1.0000 0.09331  0.81450  0.21260  Biso   1.000  O
  O31      1.0000 0.40669  0.31450  0.28740  Biso   1.000  O
  O32      1.0000 0.59331  0.31450  0.21260  Biso   1.000  O
  O33      1.0000 0.24134  0.03160  0.25640  Biso   1.000  O
  O34      1.0000 0.75866  0.03160  0.24360  Biso   1.000  O
  O35      1.0000 0.74134  0.53160  0.25640  Biso   1.000  O
  O36      1.0000 0.25866  0.53160  0.24360  Biso   1.000  O
  O37      1.0000 0.75866  0.96840  0.74360  Biso   1.000  O
  O38      1.0000 0.24134  0.96840  0.75640  Biso   1.000  O
  O39      1.0000 0.25866  0.46840  0.74360  Biso   1.000  O
  O40      1.0000 0.74134  0.46840  0.75640  Biso   1.000  O
  O41      1.0000 0.08580  0.08380  0.56420  Biso   1.000  O
  O42      1.0000 0.91420  0.08380  0.93580  Biso   1.000  O
  O43      1.0000 0.58580  0.58380  0.56420  Biso   1.000  O
  O44      1.0000 0.41420  0.58380  0.93580  Biso   1.000  O
  O45      1.0000 0.91420  0.91620  0.43580  Biso   1.000  O
  O46      1.0000 0.08580  0.91620  0.06420  Biso   1.000  O
  O47      1.0000 0.41420  0.41620  0.43580  Biso   1.000  O
  O48      1.0000 0.58580  0.41620  0.06420  Biso   1.000  O
  H1       1.0000 0.09600  0.11770  0.60510  Biso   1.000  H
  H2       1.0000 0.90400  0.11770  0.89490  Biso   1.000  H
  H3       1.0000 0.59600  0.61770  0.60510  Biso   1.000  H
  H4       1.0000 0.40400  0.61770  0.89490  Biso   1.000  H
  H5       1.0000 0.90400  0.88230  0.39490  Biso   1.000  H
  H6       1.0000 0.09600  0.88230  0.10510  Biso   1.000  H
  H7       1.0000 0.40400  0.38230  0.39490  Biso   1.000  H
  H8       1.0000 0.59600  0.38230  0.10510  Biso   1.000  H
  O49      1.0000 0.45770  0.19500  0.98040  Biso   1.000  O
  O50      1.0000 0.54230  0.19500  0.51960  Biso   1.000  O
  O51      1.0000 0.95770  0.69500  0.98040  Biso   1.000  O
  O52      1.0000 0.04230  0.69500  0.51960  Biso   1.000  O
  O53      1.0000 0.54230  0.80500  0.01960  Biso   1.000  O
  O54      1.0000 0.45770  0.80500  0.48040  Biso   1.000  O
  O55      1.0000 0.04230  0.30500  0.01960  Biso   1.000  O
  O56      1.0000 0.95770  0.30500  0.48040  Biso   1.000  O
  H9       1.0000 0.44460  0.19170  0.02360  Biso   1.000  H
  H10      1.0000 0.55540  0.19170  0.47640  Biso   1.000  H
  H11      1.0000 0.94460  0.69170  0.02360  Biso   1.000  H
  H12      1.0000 0.05540  0.69170  0.47640  Biso   1.000  H
  H13      1.0000 0.55540  0.80830  0.97640  Biso   1.000  H
  H14      1.0000 0.44460  0.80830  0.52360  Biso   1.000  H
  H15      1.0000 0.05540  0.30830  0.97640  Biso   1.000  H
  H16      1.0000 0.94460  0.30830  0.52360  Biso   1.000  H
  C1       1.0000 0.31690  0.13860  0.02680  Biso   1.000  C
  C2       1.0000 0.68310  0.13860  0.47320  Biso   1.000  C
  C3       1.0000 0.81690  0.63860  0.02680  Biso   1.000  C
  C4       1.0000 0.18310  0.63860  0.47320  Biso   1.000  C
  C5       1.0000 0.68310  0.86140  0.97320  Biso   1.000  C
  C6       1.0000 0.31690  0.86140  0.52680  Biso   1.000  C
  C7       1.0000 0.18310  0.36140  0.97320  Biso   1.000  C
  C8       1.0000 0.81690  0.36140  0.52680  Biso   1.000  C
  C9       1.0000 0.25990  0.14790  0.97190  Biso   1.000  C
  C10      1.0000 0.74010  0.14790  0.52810  Biso   1.000  C
  C11      1.0000 0.75990  0.64790  0.97190  Biso   1.000  C
  C12      1.0000 0.24010  0.64790  0.52810  Biso   1.000  C
  C13      1.0000 0.74010  0.85210  0.02810  Biso   1.000  C
  C14      1.0000 0.25990  0.85210  0.47190  Biso   1.000  C
  C15      1.0000 0.24010  0.35210  0.02810  Biso   1.000  C
  C16      1.0000 0.75990  0.35210  0.47190  Biso   1.000  C
  C17      1.0000 0.21750  0.14470  0.01000  Biso   1.000  C
  C18      1.0000 0.78250  0.14470  0.49000  Biso   1.000  C
  C19      1.0000 0.71750  0.64470  0.01000  Biso   1.000  C
  C20      1.0000 0.28250  0.64470  0.49000  Biso   1.000  C
  C21      1.0000 0.78250  0.85530  0.99000  Biso   1.000  C
  C22      1.0000 0.21750  0.85530  0.51000  Biso   1.000  C
  C23      1.0000 0.28250  0.35530  0.99000  Biso   1.000  C
  C24      1.0000 0.71750  0.35530  0.51000  Biso   1.000  C
  C25      1.0000 0.16690  0.15550  0.95120  Biso   1.000  C
  C26      1.0000 0.83310  0.15550  0.54880  Biso   1.000  C
  C27      1.0000 0.66690  0.65550  0.95120  Biso   1.000  C
  C28      1.0000 0.33310  0.65550  0.54880  Biso   1.000  C
  C29      1.0000 0.83310  0.84450  0.04880  Biso   1.000  C
  C30      1.0000 0.16690  0.84450  0.45120  Biso   1.000  C
  C31      1.0000 0.33310  0.34450  0.04880  Biso   1.000  C
  C32      1.0000 0.66690  0.34450  0.45120  Biso   1.000  C
  H17      1.0000 0.13840  0.15190  0.97550  Biso   1.000  H
  H18      1.0000 0.86160  0.15190  0.52450  Biso   1.000  H
  H19      1.0000 0.63840  0.65190  0.97550  Biso   1.000  H
  H20      1.0000 0.36160  0.65190  0.52450  Biso   1.000  H
  H21      1.0000 0.86160  0.84810  0.02450  Biso   1.000  H
  H22      1.0000 0.13840  0.84810  0.47550  Biso   1.000  H
  H23      1.0000 0.36160  0.34810  0.02450  Biso   1.000  H
  H24      1.0000 0.63840  0.34810  0.47550  Biso   1.000  H
  C33      1.0000 0.15820  0.17120  0.85850  Biso   1.000  C
  C34      1.0000 0.84180  0.17120  0.64150  Biso   1.000  C
  C35      1.0000 0.65820  0.67120  0.85850  Biso   1.000  C
  C36      1.0000 0.34180  0.67120  0.64150  Biso   1.000  C
  C37      1.0000 0.84180  0.82880  0.14150  Biso   1.000  C
  C38      1.0000 0.15820  0.82880  0.35850  Biso   1.000  C
  C39      1.0000 0.34180  0.32880  0.14150  Biso   1.000  C
  C40      1.0000 0.65820  0.32880  0.35850  Biso   1.000  C
  C41      1.0000 0.19930  0.17390  0.82120  Biso   1.000  C
  C42      1.0000 0.80070  0.17390  0.67880  Biso   1.000  C
  C43      1.0000 0.69930  0.67390  0.82120  Biso   1.000  C
  C44      1.0000 0.30070  0.67390  0.67880  Biso   1.000  C
  C45      1.0000 0.80070  0.82610  0.17880  Biso   1.000  C
  C46      1.0000 0.19930  0.82610  0.32120  Biso   1.000  C
  C47      1.0000 0.30070  0.32610  0.17880  Biso   1.000  C
  C48      1.0000 0.69930  0.32610  0.32120  Biso   1.000  C
  H25      1.0000 0.19340  0.18350  0.75820  Biso   1.000  H
  H26      1.0000 0.80660  0.18350  0.74180  Biso   1.000  H
  H27      1.0000 0.69340  0.68350  0.75820  Biso   1.000  H
  H28      1.0000 0.30660  0.68350  0.74180  Biso   1.000  H
  H29      1.0000 0.80660  0.81650  0.24180  Biso   1.000  H
  H30      1.0000 0.19340  0.81650  0.25820  Biso   1.000  H
  H31      1.0000 0.30660  0.31650  0.24180  Biso   1.000  H
  H32      1.0000 0.69340  0.31650  0.25820  Biso   1.000  H
  C49      1.0000 0.24980  0.16250  0.87730  Biso   1.000  C
  C50      1.0000 0.75020  0.16250  0.62270  Biso   1.000  C
  C51      1.0000 0.74980  0.66250  0.87730  Biso   1.000  C
  C52      1.0000 0.25020  0.66250  0.62270  Biso   1.000  C
  C53      1.0000 0.75020  0.83750  0.12270  Biso   1.000  C
  C54      1.0000 0.24980  0.83750  0.37730  Biso   1.000  C
  C55      1.0000 0.25020  0.33750  0.12270  Biso   1.000  C
  C56      1.0000 0.74980  0.33750  0.37730  Biso   1.000  C
  H33      1.0000 0.27770  0.16450  0.85120  Biso   1.000  H
  H34      1.0000 0.72230  0.16450  0.64880  Biso   1.000  H
  H35      1.0000 0.77770  0.66450  0.85120  Biso   1.000  H
  H36      1.0000 0.22230  0.66450  0.64880  Biso   1.000  H
  H37      1.0000 0.72230  0.83550  0.14880  Biso   1.000  H
  H38      1.0000 0.27770  0.83550  0.35120  Biso   1.000  H
  H39      1.0000 0.22230  0.33550  0.14880  Biso   1.000  H
  H40      1.0000 0.77770  0.33550  0.35120  Biso   1.000  H
  C57      1.0000 0.10250  0.18410  0.79810  Biso   1.000  C
  C58      1.0000 0.89750  0.18410  0.70190  Biso   1.000  C
  C59      1.0000 0.60250  0.68410  0.79810  Biso   1.000  C
  C60      1.0000 0.39750  0.68410  0.70190  Biso   1.000  C
  C61      1.0000 0.89750  0.81590  0.20190  Biso   1.000  C
  C62      1.0000 0.10250  0.81590  0.29810  Biso   1.000  C
  C63      1.0000 0.39750  0.31590  0.20190  Biso   1.000  C
  C64      1.0000 0.60250  0.31590  0.29810  Biso   1.000  C
  C65      1.0000 0.19260  0.16480  0.14550  Biso   1.000  C
  C66      1.0000 0.80740  0.16480  0.35450  Biso   1.000  C
  C67      1.0000 0.69260  0.66480  0.14550  Biso   1.000  C
  C68      1.0000 0.30740  0.66480  0.35450  Biso   1.000  C
  C69      1.0000 0.80740  0.83520  0.85450  Biso   1.000  C
  C70      1.0000 0.19260  0.83520  0.64550  Biso   1.000  C
  C71      1.0000 0.30740  0.33520  0.85450  Biso   1.000  C
  C72      1.0000 0.69260  0.33520  0.64550  Biso   1.000  C
  H41      1.0000 0.17170  0.20570  0.11190  Biso   1.000  H
  H42      1.0000 0.82830  0.20570  0.38810  Biso   1.000  H
  H43      1.0000 0.67170  0.70570  0.11190  Biso   1.000  H
  H44      1.0000 0.32830  0.70570  0.38810  Biso   1.000  H
  H45      1.0000 0.82830  0.79430  0.88810  Biso   1.000  H
  H46      1.0000 0.17170  0.79430  0.61190  Biso   1.000  H
  H47      1.0000 0.32830  0.29430  0.88810  Biso   1.000  H
  H48      1.0000 0.67170  0.29430  0.61190  Biso   1.000  H
  C73      1.0000 0.18570  0.14780  0.23340  Biso   1.000  C
  C74      1.0000 0.81430  0.14780  0.26660  Biso   1.000  C
  C75      1.0000 0.68570  0.64780  0.23340  Biso   1.000  C
  C76      1.0000 0.31430  0.64780  0.26660  Biso   1.000  C
  C77      1.0000 0.81430  0.85220  0.76660  Biso   1.000  C
  C78      1.0000 0.18570  0.85220  0.73340  Biso   1.000  C
  C79      1.0000 0.31430  0.35220  0.76660  Biso   1.000  C
  C80      1.0000 0.68570  0.35220  0.73340  Biso   1.000  C
  C81      1.0000 0.20780  0.07680  0.28030  Biso   1.000  C
  C82      1.0000 0.79220  0.07680  0.21970  Biso   1.000  C
  C83      1.0000 0.70780  0.57680  0.28030  Biso   1.000  C
  C84      1.0000 0.29220  0.57680  0.21970  Biso   1.000  C
  C85      1.0000 0.79220  0.92320  0.71970  Biso   1.000  C
  C86      1.0000 0.20780  0.92320  0.78030  Biso   1.000  C
  C87      1.0000 0.29220  0.42320  0.71970  Biso   1.000  C
  C88      1.0000 0.70780  0.42320  0.78030  Biso   1.000  C
  C89      1.0000 0.18990  0.05050  0.35730  Biso   1.000  C
  C90      1.0000 0.81010  0.05050  0.14270  Biso   1.000  C
  C91      1.0000 0.68990  0.55050  0.35730  Biso   1.000  C
  C92      1.0000 0.31010  0.55050  0.14270  Biso   1.000  C
  C93      1.0000 0.81010  0.94950  0.64270  Biso   1.000  C
  C94      1.0000 0.18990  0.94950  0.85730  Biso   1.000  C
  C95      1.0000 0.31010  0.44950  0.64270  Biso   1.000  C
  C96      1.0000 0.68990  0.44950  0.85730  Biso   1.000  C
  H49      1.0000 0.20270  0.00230  0.38670  Biso   1.000  H
  H50      1.0000 0.79730  0.00230  0.11330  Biso   1.000  H
  H51      1.0000 0.70270  0.50230  0.38670  Biso   1.000  H
  H52      1.0000 0.29730  0.50230  0.11330  Biso   1.000  H
  H53      1.0000 0.79730  0.99770  0.61330  Biso   1.000  H
  H54      1.0000 0.20270  0.99770  0.88670  Biso   1.000  H
  H55      1.0000 0.29730  0.49770  0.61330  Biso   1.000  H
  H56      1.0000 0.70270  0.49770  0.88670  Biso   1.000  H
  C97      1.0000 0.15540  0.09360  0.38810  Biso   1.000  C
  C98      1.0000 0.84460  0.09360  0.11190  Biso   1.000  C
  C99      1.0000 0.65540  0.59360  0.38810  Biso   1.000  C
  C100     1.0000 0.34460  0.59360  0.11190  Biso   1.000  C
  C101     1.0000 0.84460  0.90640  0.61190  Biso   1.000  C
  C102     1.0000 0.15540  0.90640  0.88810  Biso   1.000  C
  C103     1.0000 0.34460  0.40640  0.61190  Biso   1.000  C
  C104     1.0000 0.65540  0.40640  0.88810  Biso   1.000  C
  H57      1.0000 0.14430  0.07390  0.43740  Biso   1.000  H
  H58      1.0000 0.85570  0.07390  0.06260  Biso   1.000  H
  H59      1.0000 0.64430  0.57390  0.43740  Biso   1.000  H
  H60      1.0000 0.35570  0.57390  0.06260  Biso   1.000  H
  H61      1.0000 0.85570  0.92610  0.56260  Biso   1.000  H
  H62      1.0000 0.14430  0.92610  0.93740  Biso   1.000  H
  H63      1.0000 0.35570  0.42610  0.56260  Biso   1.000  H
  H64      1.0000 0.64430  0.42610  0.93740  Biso   1.000  H
  C105     1.0000 0.13520  0.16910  0.34730  Biso   1.000  C
  C106     1.0000 0.86480  0.16910  0.15270  Biso   1.000  C
  C107     1.0000 0.63520  0.66910  0.34730  Biso   1.000  C
  C108     1.0000 0.36480  0.66910  0.15270  Biso   1.000  C
  C109     1.0000 0.86480  0.83090  0.65270  Biso   1.000  C
  C110     1.0000 0.13520  0.83090  0.84730  Biso   1.000  C
  C111     1.0000 0.36480  0.33090  0.65270  Biso   1.000  C
  C112     1.0000 0.63520  0.33090  0.84730  Biso   1.000  C
  C113     1.0000 0.15040  0.19630  0.26950  Biso   1.000  C
  C114     1.0000 0.84960  0.19630  0.23050  Biso   1.000  C
  C115     1.0000 0.65040  0.69630  0.26950  Biso   1.000  C
  C116     1.0000 0.34960  0.69630  0.23050  Biso   1.000  C
  C117     1.0000 0.84960  0.80370  0.73050  Biso   1.000  C
  C118     1.0000 0.15040  0.80370  0.76950  Biso   1.000  C
  C119     1.0000 0.34960  0.30370  0.73050  Biso   1.000  C
  C120     1.0000 0.65040  0.30370  0.76950  Biso   1.000  C
  C121     1.0000 0.12990  0.27070  0.23220  Biso   1.000  C
  C122     1.0000 0.87010  0.27070  0.26780  Biso   1.000  C
  C123     1.0000 0.62990  0.77070  0.23220  Biso   1.000  C
  C124     1.0000 0.37010  0.77070  0.26780  Biso   1.000  C
  C125     1.0000 0.87010  0.72930  0.76780  Biso   1.000  C
  C126     1.0000 0.12990  0.72930  0.73220  Biso   1.000  C
  C127     1.0000 0.37010  0.22930  0.76780  Biso   1.000  C
  C128     1.0000 0.62990  0.22930  0.73220  Biso   1.000  C
  H65      1.0000 0.13980  0.29120  0.18190  Biso   1.000  H
  H66      1.0000 0.86020  0.29120  0.31810  Biso   1.000  H
  H67      1.0000 0.63980  0.79120  0.18190  Biso   1.000  H
  H68      1.0000 0.36020  0.79120  0.31810  Biso   1.000  H
  H69      1.0000 0.86020  0.70880  0.81810  Biso   1.000  H
  H70      1.0000 0.13980  0.70880  0.68190  Biso   1.000  H
  H71      1.0000 0.36020  0.20880  0.81810  Biso   1.000  H
  H72      1.0000 0.63980  0.20880  0.68190  Biso   1.000  H
  C129     1.0000 0.09620  0.31420  0.26630  Biso   1.000  C
  C130     1.0000 0.90380  0.31420  0.23370  Biso   1.000  C
  C131     1.0000 0.59620  0.81420  0.26630  Biso   1.000  C
  C132     1.0000 0.40380  0.81420  0.23370  Biso   1.000  C
  C133     1.0000 0.90380  0.68580  0.73370  Biso   1.000  C
  C134     1.0000 0.09620  0.68580  0.76630  Biso   1.000  C
  C135     1.0000 0.40380  0.18580  0.73370  Biso   1.000  C
  C136     1.0000 0.59620  0.18580  0.76630  Biso   1.000  C
  H73      1.0000 0.08290  0.36280  0.23860  Biso   1.000  H
  H74      1.0000 0.91710  0.36280  0.26140  Biso   1.000  H
  H75      1.0000 0.58290  0.86280  0.23860  Biso   1.000  H
  H76      1.0000 0.41710  0.86280  0.26140  Biso   1.000  H
  H77      1.0000 0.91710  0.63720  0.76140  Biso   1.000  H
  H78      1.0000 0.08290  0.63720  0.73860  Biso   1.000  H
  H79      1.0000 0.41710  0.13720  0.76140  Biso   1.000  H
  H80      1.0000 0.58290  0.13720  0.73860  Biso   1.000  H
  C137     1.0000 0.08160  0.28600  0.34340  Biso   1.000  C
  C138     1.0000 0.91840  0.28600  0.15660  Biso   1.000  C
  C139     1.0000 0.58160  0.78600  0.34340  Biso   1.000  C
  C140     1.0000 0.41840  0.78600  0.15660  Biso   1.000  C
  C141     1.0000 0.91840  0.71400  0.65660  Biso   1.000  C
  C142     1.0000 0.08160  0.71400  0.84340  Biso   1.000  C
  C143     1.0000 0.41840  0.21400  0.65660  Biso   1.000  C
  C144     1.0000 0.58160  0.21400  0.84340  Biso   1.000  C
  H81      1.0000 0.05860  0.31580  0.36720  Biso   1.000  H
  H82      1.0000 0.94140  0.31580  0.13280  Biso   1.000  H
  H83      1.0000 0.55860  0.81580  0.36720  Biso   1.000  H
  H84      1.0000 0.44140  0.81580  0.13280  Biso   1.000  H
  H85      1.0000 0.94140  0.68420  0.63280  Biso   1.000  H
  H86      1.0000 0.05860  0.68420  0.86720  Biso   1.000  H
  H87      1.0000 0.44140  0.18420  0.63280  Biso   1.000  H
  H88      1.0000 0.55860  0.18420  0.86720  Biso   1.000  H
  C145     1.0000 0.10110  0.21460  0.38320  Biso   1.000  C
  C146     1.0000 0.89890  0.21460  0.11680  Biso   1.000  C
  C147     1.0000 0.60110  0.71460  0.38320  Biso   1.000  C
  C148     1.0000 0.39890  0.71460  0.11680  Biso   1.000  C
  C149     1.0000 0.89890  0.78540  0.61680  Biso   1.000  C
  C150     1.0000 0.10110  0.78540  0.88320  Biso   1.000  C
  C151     1.0000 0.39890  0.28540  0.61680  Biso   1.000  C
  C152     1.0000 0.60110  0.28540  0.88320  Biso   1.000  C
  H89      1.0000 0.09170  0.19600  0.43470  Biso   1.000  H
  H90      1.0000 0.90830  0.19600  0.06530  Biso   1.000  H
  H91      1.0000 0.59170  0.69600  0.43470  Biso   1.000  H
  H92      1.0000 0.40830  0.69600  0.06530  Biso   1.000  H
  H93      1.0000 0.90830  0.80400  0.56530  Biso   1.000  H
  H94      1.0000 0.09170  0.80400  0.93470  Biso   1.000  H
  H95      1.0000 0.40830  0.30400  0.56530  Biso   1.000  H
  H96      1.0000 0.59170  0.30400  0.93470  Biso   1.000  H
  C153     1.0000 0.36130  0.99720  0.34580  Biso   1.000  C
  C154     1.0000 0.63870  0.99720  0.15420  Biso   1.000  C
  C155     1.0000 0.86130  0.49720  0.34580  Biso   1.000  C
  C156     1.0000 0.13870  0.49720  0.15420  Biso   1.000  C
  C157     1.0000 0.63870  0.00280  0.65420  Biso   1.000  C
  C158     1.0000 0.36130  0.00280  0.84580  Biso   1.000  C
  C159     1.0000 0.13870  0.50280  0.65420  Biso   1.000  C
  C160     1.0000 0.86130  0.50280  0.84580  Biso   1.000  C
  H97      1.0000 0.34140  0.95040  0.33140  Biso   1.000  H
  H98      1.0000 0.65860  0.95040  0.16860  Biso   1.000  H
  H99      1.0000 0.84140  0.45040  0.33140  Biso   1.000  H
  H100     1.0000 0.15860  0.45040  0.16860  Biso   1.000  H
  H101     1.0000 0.65860  0.04960  0.66860  Biso   1.000  H
  H102     1.0000 0.34140  0.04960  0.83140  Biso   1.000  H
  H103     1.0000 0.15860  0.54960  0.66860  Biso   1.000  H
  H104     1.0000 0.84140  0.54960  0.83140  Biso   1.000  H
  C161     1.0000 0.40400  0.99750  0.42310  Biso   1.000  C
  C162     1.0000 0.59600  0.99750  0.07690  Biso   1.000  C
  C163     1.0000 0.90400  0.49750  0.42310  Biso   1.000  C
  C164     1.0000 0.09600  0.49750  0.07690  Biso   1.000  C
  C165     1.0000 0.59600  0.00250  0.57690  Biso   1.000  C
  C166     1.0000 0.40400  0.00250  0.92310  Biso   1.000  C
  C167     1.0000 0.09600  0.50250  0.57690  Biso   1.000  C
  C168     1.0000 0.90400  0.50250  0.92310  Biso   1.000  C
  H105     1.0000 0.41300  0.95120  0.45910  Biso   1.000  H
  H106     1.0000 0.58700  0.95120  0.04090  Biso   1.000  H
  H107     1.0000 0.91300  0.45120  0.45910  Biso   1.000  H
  H108     1.0000 0.08700  0.45120  0.04090  Biso   1.000  H
  H109     1.0000 0.58700  0.04880  0.54090  Biso   1.000  H
  H110     1.0000 0.41300  0.04880  0.95910  Biso   1.000  H
  H111     1.0000 0.08700  0.54880  0.54090  Biso   1.000  H
  H112     1.0000 0.91300  0.54880  0.95910  Biso   1.000  H
  C169     1.0000 0.43290  0.06630  0.44620  Biso   1.000  C
  C170     1.0000 0.56710  0.06630  0.05380  Biso   1.000  C
  C171     1.0000 0.93290  0.56630  0.44620  Biso   1.000  C
  C172     1.0000 0.06710  0.56630  0.05380  Biso   1.000  C
  C173     1.0000 0.56710  0.93370  0.55380  Biso   1.000  C
  C174     1.0000 0.43290  0.93370  0.94620  Biso   1.000  C
  C175     1.0000 0.06710  0.43370  0.55380  Biso   1.000  C
  C176     1.0000 0.93290  0.43370  0.94620  Biso   1.000  C
  H113     1.0000 0.46200  0.06760  0.49780  Biso   1.000  H
  H114     1.0000 0.53800  0.06760  0.00220  Biso   1.000  H
  H115     1.0000 0.96200  0.56760  0.49780  Biso   1.000  H
  H116     1.0000 0.03800  0.56760  0.00220  Biso   1.000  H
  H117     1.0000 0.53800  0.93240  0.50220  Biso   1.000  H
  H118     1.0000 0.46200  0.93240  0.99780  Biso   1.000  H
  H119     1.0000 0.03800  0.43240  0.50220  Biso   1.000  H
  H120     1.0000 0.96200  0.43240  0.99780  Biso   1.000  H
  C177     1.0000 0.41820  0.13330  0.39230  Biso   1.000  C
  C178     1.0000 0.58180  0.13330  0.10770  Biso   1.000  C
  C179     1.0000 0.91820  0.63330  0.39230  Biso   1.000  C
  C180     1.0000 0.08180  0.63330  0.10770  Biso   1.000  C
  C181     1.0000 0.58180  0.86670  0.60770  Biso   1.000  C
  C182     1.0000 0.41820  0.86670  0.89230  Biso   1.000  C
  C183     1.0000 0.08180  0.36670  0.60770  Biso   1.000  C
  C184     1.0000 0.91820  0.36670  0.89230  Biso   1.000  C
  H121     1.0000 0.43630  0.18180  0.40720  Biso   1.000  H
  H122     1.0000 0.56370  0.18180  0.09280  Biso   1.000  H
  H123     1.0000 0.93630  0.68180  0.40720  Biso   1.000  H
  H124     1.0000 0.06370  0.68180  0.09280  Biso   1.000  H
  H125     1.0000 0.56370  0.81820  0.59280  Biso   1.000  H
  H126     1.0000 0.43630  0.81820  0.90720  Biso   1.000  H
  H127     1.0000 0.06370  0.31820  0.59280  Biso   1.000  H
  H128     1.0000 0.93630  0.31820  0.90720  Biso   1.000  H
  C185     1.0000 0.37570  0.12710  0.31500  Biso   1.000  C
  C186     1.0000 0.62430  0.12710  0.18500  Biso   1.000  C
  C187     1.0000 0.87570  0.62710  0.31500  Biso   1.000  C
  C188     1.0000 0.12430  0.62710  0.18500  Biso   1.000  C
  C189     1.0000 0.62430  0.87290  0.68500  Biso   1.000  C
  C190     1.0000 0.37570  0.87290  0.81500  Biso   1.000  C
  C191     1.0000 0.12430  0.37290  0.68500  Biso   1.000  C
  C192     1.0000 0.87570  0.37290  0.81500  Biso   1.000  C
  H129     1.0000 0.36650  0.17240  0.27750  Biso   1.000  H
  H130     1.0000 0.63350  0.17240  0.22250  Biso   1.000  H
  H131     1.0000 0.86650  0.67240  0.27750  Biso   1.000  H
  H132     1.0000 0.13350  0.67240  0.22250  Biso   1.000  H
  H133     1.0000 0.63350  0.82760  0.72250  Biso   1.000  H
  H134     1.0000 0.36650  0.82760  0.77750  Biso   1.000  H
  H135     1.0000 0.13350  0.32760  0.72250  Biso   1.000  H
  H136     1.0000 0.86650  0.32760  0.77750  Biso   1.000  H
  C193     1.0000 0.30060  0.91620  0.05240  Biso   1.000  C
  C194     1.0000 0.69940  0.91620  0.44760  Biso   1.000  C
  C195     1.0000 0.80060  0.41620  0.05240  Biso   1.000  C
  C196     1.0000 0.19940  0.41620  0.44760  Biso   1.000  C
  C197     1.0000 0.69940  0.08380  0.94760  Biso   1.000  C
  C198     1.0000 0.30060  0.08380  0.55240  Biso   1.000  C
  C199     1.0000 0.19940  0.58380  0.94760  Biso   1.000  C
  C200     1.0000 0.80060  0.58380  0.55240  Biso   1.000  C
  H137     1.0000 0.32530  0.95060  0.03940  Biso   1.000  H
  H138     1.0000 0.67470  0.95060  0.46060  Biso   1.000  H
  H139     1.0000 0.82530  0.45060  0.03940  Biso   1.000  H
  H140     1.0000 0.17470  0.45060  0.46060  Biso   1.000  H
  H141     1.0000 0.67470  0.04940  0.96060  Biso   1.000  H
  H142     1.0000 0.32530  0.04940  0.53940  Biso   1.000  H
  H143     1.0000 0.17470  0.54940  0.96060  Biso   1.000  H
  H144     1.0000 0.82530  0.54940  0.53940  Biso   1.000  H
  C201     1.0000 0.29230  0.84240  0.00780  Biso   1.000  C
  C202     1.0000 0.70770  0.84240  0.49220  Biso   1.000  C
  C203     1.0000 0.79230  0.34240  0.00780  Biso   1.000  C
  C204     1.0000 0.20770  0.34240  0.49220  Biso   1.000  C
  C205     1.0000 0.70770  0.15760  0.99220  Biso   1.000  C
  C206     1.0000 0.29230  0.15760  0.50780  Biso   1.000  C
  C207     1.0000 0.20770  0.65760  0.99220  Biso   1.000  C
  C208     1.0000 0.79230  0.65760  0.50780  Biso   1.000  C
  H145     1.0000 0.31140  0.82830  0.96690  Biso   1.000  H
  H146     1.0000 0.68860  0.82830  0.53310  Biso   1.000  H
  H147     1.0000 0.81140  0.32830  0.96690  Biso   1.000  H
  H148     1.0000 0.18860  0.32830  0.53310  Biso   1.000  H
  H149     1.0000 0.68860  0.17170  0.03310  Biso   1.000  H
  H150     1.0000 0.31140  0.17170  0.46690  Biso   1.000  H
  H151     1.0000 0.18860  0.67170  0.03310  Biso   1.000  H
  H152     1.0000 0.81140  0.67170  0.46690  Biso   1.000  H
  C209     1.0000 0.25560  0.78960  0.02410  Biso   1.000  C
  C210     1.0000 0.74440  0.78960  0.47590  Biso   1.000  C
  C211     1.0000 0.75560  0.28960  0.02410  Biso   1.000  C
  C212     1.0000 0.24440  0.28960  0.47590  Biso   1.000  C
  C213     1.0000 0.74440  0.21040  0.97590  Biso   1.000  C
  C214     1.0000 0.25560  0.21040  0.52410  Biso   1.000  C
  C215     1.0000 0.24440  0.71040  0.97590  Biso   1.000  C
  C216     1.0000 0.75560  0.71040  0.52410  Biso   1.000  C
  C217     1.0000 0.23010  0.81600  0.08600  Biso   1.000  C
  C218     1.0000 0.76990  0.81600  0.41400  Biso   1.000  C
  C219     1.0000 0.73010  0.31600  0.08600  Biso   1.000  C
  C220     1.0000 0.26990  0.31600  0.41400  Biso   1.000  C
  C221     1.0000 0.76990  0.18400  0.91400  Biso   1.000  C
  C222     1.0000 0.23010  0.18400  0.58600  Biso   1.000  C
  C223     1.0000 0.26990  0.68400  0.91400  Biso   1.000  C
  C224     1.0000 0.73010  0.68400  0.58600  Biso   1.000  C
  H153     1.0000 0.20520  0.78290  0.10030  Biso   1.000  H
  H154     1.0000 0.79480  0.78290  0.39970  Biso   1.000  H
  H155     1.0000 0.70520  0.28290  0.10030  Biso   1.000  H
  H156     1.0000 0.29480  0.28290  0.39970  Biso   1.000  H
  H157     1.0000 0.79480  0.21710  0.89970  Biso   1.000  H
  H158     1.0000 0.20520  0.21710  0.60030  Biso   1.000  H
  H159     1.0000 0.29480  0.71710  0.89970  Biso   1.000  H
  H160     1.0000 0.70520  0.71710  0.60030  Biso   1.000  H
  C225     1.0000 0.24070  0.89070  0.12770  Biso   1.000  C
  C226     1.0000 0.75930  0.89070  0.37230  Biso   1.000  C
  C227     1.0000 0.74070  0.39070  0.12770  Biso   1.000  C
  C228     1.0000 0.25930  0.39070  0.37230  Biso   1.000  C
  C229     1.0000 0.75930  0.10930  0.87230  Biso   1.000  C
  C230     1.0000 0.24070  0.10930  0.62770  Biso   1.000  C
  C231     1.0000 0.25930  0.60930  0.87230  Biso   1.000  C
  C232     1.0000 0.74070  0.60930  0.62770  Biso   1.000  C
  H161     1.0000 0.22210  0.90650  0.16890  Biso   1.000  H
  H162     1.0000 0.77790  0.90650  0.33110  Biso   1.000  H
  H163     1.0000 0.72210  0.40650  0.16890  Biso   1.000  H
  H164     1.0000 0.27790  0.40650  0.33110  Biso   1.000  H
  H165     1.0000 0.77790  0.09350  0.83110  Biso   1.000  H
  H166     1.0000 0.22210  0.09350  0.66890  Biso   1.000  H
  H167     1.0000 0.27790  0.59350  0.83110  Biso   1.000  H
  H168     1.0000 0.72210  0.59350  0.66890  Biso   1.000  H
  C233     1.0000 0.01630  0.03680  0.82980  Biso   1.000  C
  C234     1.0000 0.98370  0.03680  0.67020  Biso   1.000  C
  C235     1.0000 0.51630  0.53680  0.82980  Biso   1.000  C
  C236     1.0000 0.48370  0.53680  0.67020  Biso   1.000  C
  C237     1.0000 0.98370  0.96320  0.17020  Biso   1.000  C
  C238     1.0000 0.01630  0.96320  0.32980  Biso   1.000  C
  C239     1.0000 0.48370  0.46320  0.17020  Biso   1.000  C
  C240     1.0000 0.51630  0.46320  0.32980  Biso   1.000  C
  H169     1.0000 0.02730  0.06460  0.88570  Biso   1.000  H
  H170     1.0000 0.97270  0.06460  0.61430  Biso   1.000  H
  H171     1.0000 0.52730  0.56460  0.88570  Biso   1.000  H
  H172     1.0000 0.47270  0.56460  0.61430  Biso   1.000  H
  H173     1.0000 0.97270  0.93540  0.11430  Biso   1.000  H
  H174     1.0000 0.02730  0.93540  0.38570  Biso   1.000  H
  H175     1.0000 0.47270  0.43540  0.11430  Biso   1.000  H
  H176     1.0000 0.52730  0.43540  0.38570  Biso   1.000  H
  C241     1.0000 0.01680  0.95470  0.83010  Biso   1.000  C
  C242     1.0000 0.98320  0.95470  0.66990  Biso   1.000  C
  C243     1.0000 0.51680  0.45470  0.83010  Biso   1.000  C
  C244     1.0000 0.48320  0.45470  0.66990  Biso   1.000  C
  C245     1.0000 0.98320  0.04530  0.16990  Biso   1.000  C
  C246     1.0000 0.01680  0.04530  0.33010  Biso   1.000  C
  C247     1.0000 0.48320  0.54530  0.16990  Biso   1.000  C
  C248     1.0000 0.51680  0.54530  0.33010  Biso   1.000  C
  H177     1.0000 0.02880  0.92740  0.88610  Biso   1.000  H
  H178     1.0000 0.97120  0.92740  0.61390  Biso   1.000  H
  H179     1.0000 0.52880  0.42740  0.88610  Biso   1.000  H
  H180     1.0000 0.47120  0.42740  0.61390  Biso   1.000  H
  H181     1.0000 0.97120  0.07260  0.11390  Biso   1.000  H
  H182     1.0000 0.02880  0.07260  0.38610  Biso   1.000  H
  H183     1.0000 0.47120  0.57260  0.11390  Biso   1.000  H
  H184     1.0000 0.52880  0.57260  0.38610  Biso   1.000  H
  C249     1.0000 0.00000  0.91200  0.75000  Biso   1.000  C
  C250     1.0000 0.50000  0.41200  0.75000  Biso   1.000  C
  C251     1.0000 0.00000  0.08800  0.25000  Biso   1.000  C
  C252     1.0000 0.50000  0.58800  0.25000  Biso   1.000  C
  H185     1.0000 0.00000  0.85580  0.75000  Biso   1.000  H
  H186     1.0000 0.50000  0.35580  0.75000  Biso   1.000  H
  H187     1.0000 0.00000  0.14420  0.25000  Biso   1.000  H
  H188     1.0000 0.50000  0.64420  0.25000  Biso   1.000  H
  C253     1.0000 0.03910  0.36560  0.80640  Biso   1.000  C
  C254     1.0000 0.96090  0.36560  0.69360  Biso   1.000  C
  C255     1.0000 0.53910  0.86560  0.80640  Biso   1.000  C
  C256     1.0000 0.46090  0.86560  0.69360  Biso   1.000  C
  C257     1.0000 0.96090  0.63440  0.19360  Biso   1.000  C
  C258     1.0000 0.03910  0.63440  0.30640  Biso   1.000  C
  C259     1.0000 0.46090  0.13440  0.19360  Biso   1.000  C
  C260     1.0000 0.53910  0.13440  0.30640  Biso   1.000  C
  H189     1.0000 0.06630  0.33740  0.84690  Biso   1.000  H
  H190     1.0000 0.93370  0.33740  0.65310  Biso   1.000  H
  H191     1.0000 0.56630  0.83740  0.84690  Biso   1.000  H
  H192     1.0000 0.43370  0.83740  0.65310  Biso   1.000  H
  H193     1.0000 0.93370  0.66260  0.15310  Biso   1.000  H
  H194     1.0000 0.06630  0.66260  0.34690  Biso   1.000  H
  H195     1.0000 0.43370  0.16260  0.15310  Biso   1.000  H
  H196     1.0000 0.56630  0.16260  0.34690  Biso   1.000  H
  C261     1.0000 0.04110  0.44840  0.80750  Biso   1.000  C
  C262     1.0000 0.95890  0.44840  0.69250  Biso   1.000  C
  C263     1.0000 0.54110  0.94840  0.80750  Biso   1.000  C
  C264     1.0000 0.45890  0.94840  0.69250  Biso   1.000  C
  C265     1.0000 0.95890  0.55160  0.19250  Biso   1.000  C
  C266     1.0000 0.04110  0.55160  0.30750  Biso   1.000  C
  C267     1.0000 0.45890  0.05160  0.19250  Biso   1.000  C
  C268     1.0000 0.54110  0.05160  0.30750  Biso   1.000  C
  H197     1.0000 0.06950  0.47570  0.84620  Biso   1.000  H
  H198     1.0000 0.93050  0.47570  0.65380  Biso   1.000  H
  H199     1.0000 0.56950  0.97570  0.84620  Biso   1.000  H
  H200     1.0000 0.43050  0.97570  0.65380  Biso   1.000  H
  H201     1.0000 0.93050  0.52430  0.15380  Biso   1.000  H
  H202     1.0000 0.06950  0.52430  0.34620  Biso   1.000  H
  H203     1.0000 0.43050  0.02430  0.15380  Biso   1.000  H
  H204     1.0000 0.56950  0.02430  0.34620  Biso   1.000  H
  C269     1.0000 0.00000  0.48990  0.75000  Biso   1.000  C
  C270     1.0000 0.50000  0.98990  0.75000  Biso   1.000  C
  C271     1.0000 0.00000  0.51010  0.25000  Biso   1.000  C
  C272     1.0000 0.50000  0.01010  0.25000  Biso   1.000  C
  H205     1.0000 0.00000  0.54600  0.75000  Biso   1.000  H
  H206     1.0000 0.50000  0.04600  0.75000  Biso   1.000  H
  H207     1.0000 0.00000  0.45400  0.25000  Biso   1.000  H
  H208     1.0000 0.50000  0.95400  0.25000  Biso   1.000  H
  C273     1.0000 0.10400  0.01010  0.59720  Biso   1.000  C
  C274     1.0000 0.89600  0.01010  0.90280  Biso   1.000  C
  C275     1.0000 0.60400  0.51010  0.59720  Biso   1.000  C
  C276     1.0000 0.39600  0.51010  0.90280  Biso   1.000  C
  C277     1.0000 0.89600  0.98990  0.40280  Biso   1.000  C
  C278     1.0000 0.10400  0.98990  0.09720  Biso   1.000  C
  C279     1.0000 0.39600  0.48990  0.40280  Biso   1.000  C
  C280     1.0000 0.60400  0.48990  0.09720  Biso   1.000  C
  H209     1.0000 0.13260  0.99520  0.57320  Biso   1.000  H
  H210     1.0000 0.86740  0.99520  0.92680  Biso   1.000  H
  H211     1.0000 0.63260  0.49520  0.57320  Biso   1.000  H
  H212     1.0000 0.36740  0.49520  0.92680  Biso   1.000  H
  H213     1.0000 0.86740  0.00480  0.42680  Biso   1.000  H
  H214     1.0000 0.13260  0.00480  0.07320  Biso   1.000  H
  H215     1.0000 0.36740  0.50480  0.42680  Biso   1.000  H
  H216     1.0000 0.63260  0.50480  0.07320  Biso   1.000  H
  H217     1.0000 0.07640  0.97100  0.57810  Biso   1.000  H
  H218     1.0000 0.92360  0.97100  0.92190  Biso   1.000  H
  H219     1.0000 0.57640  0.47100  0.57810  Biso   1.000  H
  H220     1.0000 0.42360  0.47100  0.92190  Biso   1.000  H
  H221     1.0000 0.92360  0.02900  0.42190  Biso   1.000  H
  H222     1.0000 0.07640  0.02900  0.07810  Biso   1.000  H
  H223     1.0000 0.42360  0.52900  0.42190  Biso   1.000  H
  H224     1.0000 0.57640  0.52900  0.07810  Biso   1.000  H
  H225     1.0000 0.11590  0.01190  0.66360  Biso   1.000  H
  H226     1.0000 0.88410  0.01190  0.83640  Biso   1.000  H
  H227     1.0000 0.61590  0.51190  0.66360  Biso   1.000  H
  H228     1.0000 0.38410  0.51190  0.83640  Biso   1.000  H
  H229     1.0000 0.88410  0.98810  0.33640  Biso   1.000  H
  H230     1.0000 0.11590  0.98810  0.16360  Biso   1.000  H
  H231     1.0000 0.38410  0.48810  0.33640  Biso   1.000  H
  H232     1.0000 0.61590  0.48810  0.16360  Biso   1.000  H
  C281     1.0000 0.47150  0.27510  0.97030  Biso   1.000  C
  C282     1.0000 0.52850  0.27510  0.52970  Biso   1.000  C
  C283     1.0000 0.97150  0.77510  0.97030  Biso   1.000  C
  C284     1.0000 0.02850  0.77510  0.52970  Biso   1.000  C
  C285     1.0000 0.52850  0.72490  0.02970  Biso   1.000  C
  C286     1.0000 0.47150  0.72490  0.47030  Biso   1.000  C
  C287     1.0000 0.02850  0.22490  0.02970  Biso   1.000  C
  C288     1.0000 0.97150  0.22490  0.47030  Biso   1.000  C
  H233     1.0000 0.44050  0.30630  0.94430  Biso   1.000  H
  H234     1.0000 0.55950  0.30630  0.55570  Biso   1.000  H
  H235     1.0000 0.94050  0.80630  0.94430  Biso   1.000  H
  H236     1.0000 0.05950  0.80630  0.55570  Biso   1.000  H
  H237     1.0000 0.55950  0.69370  0.05570  Biso   1.000  H
  H238     1.0000 0.44050  0.69370  0.44430  Biso   1.000  H
  H239     1.0000 0.05950  0.19370  0.05570  Biso   1.000  H
  H240     1.0000 0.94050  0.19370  0.44430  Biso   1.000  H
  H241     1.0000 0.49380  0.27740  0.92990  Biso   1.000  H
  H242     1.0000 0.50620  0.27740  0.57010  Biso   1.000  H
  H243     1.0000 0.99380  0.77740  0.92990  Biso   1.000  H
  H244     1.0000 0.00620  0.77740  0.57010  Biso   1.000  H
  H245     1.0000 0.50620  0.72260  0.07010  Biso   1.000  H
  H246     1.0000 0.49380  0.72260  0.42990  Biso   1.000  H
  H247     1.0000 0.00620  0.22260  0.07010  Biso   1.000  H
  H248     1.0000 0.99380  0.22260  0.42990  Biso   1.000  H
  H249     1.0000 0.48990  0.29670  0.02980  Biso   1.000  H
  H250     1.0000 0.51010  0.29670  0.47020  Biso   1.000  H
  H251     1.0000 0.98990  0.79670  0.02980  Biso   1.000  H
  H252     1.0000 0.01010  0.79670  0.47020  Biso   1.000  H
  H253     1.0000 0.51010  0.70330  0.97020  Biso   1.000  H
  H254     1.0000 0.48990  0.70330  0.52980  Biso   1.000  H
  H255     1.0000 0.01010  0.20330  0.97020  Biso   1.000  H
  H256     1.0000 0.98990  0.20330  0.52980  Biso   1.000  H
