data_image0
_cell_length_a       5.1379
_cell_length_b       11.5277
_cell_length_c       24.9844
_cell_angle_alpha    90
_cell_angle_beta     90
_cell_angle_gamma    90

_symmetry_space_group_name_H-M    "P 1"
_symmetry_int_tables_number       1

loop_
  _symmetry_equiv_pos_as_xyz
  'x, y, z'

loop_
  _atom_site_label
  _atom_site_occupancy
  _atom_site_fract_x
  _atom_site_fract_y
  _atom_site_fract_z
  _atom_site_thermal_displace_type
  _atom_site_B_iso_or_equiv
  _atom_site_type_symbol
  Cu1      1.0000 0.42725  0.81608  0.92300  Biso   1.000  Cu
  Cu2      1.0000 0.07275  0.18392  0.42300  Biso   1.000  Cu
  Cu3      1.0000 0.57275  0.31608  0.57700  Biso   1.000  Cu
  Cu4      1.0000 0.92725  0.68392  0.07700  Biso   1.000  Cu
  O1       1.0000 0.65670  0.91487  0.68756  Biso   1.000  O
  O2       1.0000 0.84330  0.08513  0.18756  Biso   1.000  O
  O3       1.0000 0.34330  0.41487  0.81244  Biso   1.000  O
  O4       1.0000 0.15670  0.58513  0.31244  Biso   1.000  O
  O5       1.0000 0.87060  0.03547  0.74224  Biso   1.000  O
  O6       1.0000 0.62940  0.96453  0.24224  Biso   1.000  O
  O7       1.0000 0.12940  0.53547  0.75776  Biso   1.000  O
  O8       1.0000 0.37060  0.46453  0.25776  Biso   1.000  O
  O9       1.0000 0.66860  0.92096  0.95680  Biso   1.000  O
  O10      1.0000 0.83140  0.07904  0.45680  Biso   1.000  O
  O11      1.0000 0.33140  0.42096  0.54320  Biso   1.000  O
  O12      1.0000 0.16860  0.57904  0.04320  Biso   1.000  O
  O13      1.0000 0.52130  0.69685  0.97616  Biso   1.000  O
  O14      1.0000 0.97870  0.30315  0.47616  Biso   1.000  O
  O15      1.0000 0.47870  0.19685  0.52384  Biso   1.000  O
  O16      1.0000 0.02130  0.80315  0.02384  Biso   1.000  O
  H1       1.0000 0.42200  0.67100  0.99450  Biso   1.000  H
  H2       1.0000 0.07800  0.32900  0.49450  Biso   1.000  H
  H3       1.0000 0.57800  0.17100  0.50550  Biso   1.000  H
  H4       1.0000 0.92200  0.82900  0.00550  Biso   1.000  H
  H5       1.0000 0.61700  0.64600  0.96740  Biso   1.000  H
  H6       1.0000 0.88300  0.35400  0.46740  Biso   1.000  H
  H7       1.0000 0.38300  0.14600  0.53260  Biso   1.000  H
  H8       1.0000 0.11700  0.85400  0.03260  Biso   1.000  H
  O17      1.0000 0.12690  0.72757  0.89843  Biso   1.000  O
  O18      1.0000 0.37310  0.27243  0.39843  Biso   1.000  O
  O19      1.0000 0.87310  0.22757  0.60157  Biso   1.000  O
  O20      1.0000 0.62690  0.77243  0.10157  Biso   1.000  O
  O21      1.0000 0.74120  0.75266  0.85859  Biso   1.000  O
  O22      1.0000 0.75880  0.24734  0.35859  Biso   1.000  O
  O23      1.0000 0.25880  0.25266  0.64141  Biso   1.000  O
  O24      1.0000 0.24120  0.74734  0.14141  Biso   1.000  O
  N1       1.0000 0.29760  0.93142  0.87370  Biso   1.000  N
  N2       1.0000 0.20240  0.06858  0.37370  Biso   1.000  N
  N3       1.0000 0.70240  0.43142  0.62630  Biso   1.000  N
  N4       1.0000 0.79760  0.56858  0.12630  Biso   1.000  N
  C1       1.0000 0.38090  0.03576  0.86856  Biso   1.000  C
  C2       1.0000 0.11910  0.96424  0.36856  Biso   1.000  C
  C3       1.0000 0.61910  0.53576  0.63144  Biso   1.000  C
  C4       1.0000 0.88090  0.46424  0.13144  Biso   1.000  C
  H9       1.0000 0.29600  0.08360  0.84300  Biso   1.000  H
  H10      1.0000 0.20400  0.91640  0.34300  Biso   1.000  H
  H11      1.0000 0.70400  0.58360  0.65700  Biso   1.000  H
  H12      1.0000 0.79600  0.41640  0.15700  Biso   1.000  H
  C5       1.0000 0.59280  0.08654  0.89840  Biso   1.000  C
  C6       1.0000 0.90720  0.91346  0.39840  Biso   1.000  C
  C7       1.0000 0.40720  0.58654  0.60160  Biso   1.000  C
  C8       1.0000 0.09280  0.41346  0.10160  Biso   1.000  C
  C9       1.0000 0.66610  0.20060  0.88469  Biso   1.000  C
  C10      1.0000 0.83390  0.79940  0.38469  Biso   1.000  C
  C11      1.0000 0.33390  0.70060  0.61531  Biso   1.000  C
  C12      1.0000 0.16610  0.29940  0.11531  Biso   1.000  C
  H13      1.0000 0.57500  0.23940  0.85690  Biso   1.000  H
  H14      1.0000 0.92500  0.76060  0.35690  Biso   1.000  H
  H15      1.0000 0.42500  0.73940  0.64310  Biso   1.000  H
  H16      1.0000 0.07500  0.26060  0.14310  Biso   1.000  H
  C13      1.0000 0.86580  0.25726  0.91041  Biso   1.000  C
  C14      1.0000 0.63420  0.74274  0.41041  Biso   1.000  C
  C15      1.0000 0.13420  0.75726  0.58959  Biso   1.000  C
  C16      1.0000 0.36580  0.24274  0.08959  Biso   1.000  C
  H17      1.0000 0.91430  0.33360  0.90020  Biso   1.000  H
  H18      1.0000 0.58570  0.66640  0.40020  Biso   1.000  H
  H19      1.0000 0.08570  0.83360  0.59980  Biso   1.000  H
  H20      1.0000 0.41430  0.16640  0.09980  Biso   1.000  H
  C17      1.0000 0.99560  0.20060  0.95175  Biso   1.000  C
  C18      1.0000 0.50440  0.79940  0.45175  Biso   1.000  C
  C19      1.0000 0.00440  0.70060  0.54825  Biso   1.000  C
  C20      1.0000 0.49560  0.29940  0.04825  Biso   1.000  C
  H21      1.0000 0.13330  0.23890  0.97000  Biso   1.000  H
  H22      1.0000 0.36670  0.76110  0.47000  Biso   1.000  H
  H23      1.0000 0.86670  0.73890  0.53000  Biso   1.000  H
  H24      1.0000 0.63330  0.26110  0.03000  Biso   1.000  H
  C21      1.0000 0.92620  0.08906  0.96662  Biso   1.000  C
  C22      1.0000 0.57380  0.91094  0.46662  Biso   1.000  C
  C23      1.0000 0.07380  0.58906  0.53338  Biso   1.000  C
  C24      1.0000 0.42620  0.41094  0.03338  Biso   1.000  C
  H25      1.0000 0.01640  0.05250  0.99520  Biso   1.000  H
  H26      1.0000 0.48360  0.94750  0.49520  Biso   1.000  H
  H27      1.0000 0.98360  0.55250  0.50480  Biso   1.000  H
  H28      1.0000 0.51640  0.44750  0.00480  Biso   1.000  H
  C25      1.0000 0.72600  0.02878  0.94052  Biso   1.000  C
  C26      1.0000 0.77400  0.97122  0.44052  Biso   1.000  C
  C27      1.0000 0.27400  0.52878  0.55948  Biso   1.000  C
  C28      1.0000 0.22600  0.47122  0.05948  Biso   1.000  C
  C29      1.0000 0.08260  0.88965  0.84011  Biso   1.000  C
  C30      1.0000 0.41740  0.11035  0.34011  Biso   1.000  C
  C31      1.0000 0.91740  0.38965  0.65989  Biso   1.000  C
  C32      1.0000 0.58260  0.61035  0.15989  Biso   1.000  C
  H29      1.0000 0.94650  0.95120  0.83670  Biso   1.000  H
  H30      1.0000 0.55350  0.04880  0.33670  Biso   1.000  H
  H31      1.0000 0.05350  0.45120  0.66330  Biso   1.000  H
  H32      1.0000 0.44650  0.54880  0.16330  Biso   1.000  H
  C33      1.0000 0.18650  0.85601  0.78426  Biso   1.000  C
  C34      1.0000 0.31350  0.14399  0.28426  Biso   1.000  C
  C35      1.0000 0.81350  0.35601  0.71574  Biso   1.000  C
  C36      1.0000 0.68650  0.64399  0.21574  Biso   1.000  C
  H33      1.0000 0.29710  0.91980  0.77060  Biso   1.000  H
  H34      1.0000 0.20290  0.08020  0.27060  Biso   1.000  H
  H35      1.0000 0.70290  0.41980  0.72940  Biso   1.000  H
  H36      1.0000 0.79710  0.58020  0.22940  Biso   1.000  H
  H37      1.0000 0.29750  0.78620  0.78780  Biso   1.000  H
  H38      1.0000 0.20250  0.21380  0.28780  Biso   1.000  H
  H39      1.0000 0.70250  0.28620  0.71220  Biso   1.000  H
  H40      1.0000 0.79750  0.71380  0.21220  Biso   1.000  H
  C37      1.0000 0.97210  0.83130  0.74348  Biso   1.000  C
  C38      1.0000 0.52790  0.16870  0.24348  Biso   1.000  C
  C39      1.0000 0.02790  0.33130  0.75652  Biso   1.000  C
  C40      1.0000 0.47210  0.66870  0.25652  Biso   1.000  C
  H41      1.0000 0.04950  0.79280  0.71180  Biso   1.000  H
  H42      1.0000 0.45050  0.20720  0.21180  Biso   1.000  H
  H43      1.0000 0.95050  0.29280  0.78820  Biso   1.000  H
  H44      1.0000 0.54950  0.70720  0.28820  Biso   1.000  H
  H45      1.0000 0.84440  0.77710  0.75950  Biso   1.000  H
  H46      1.0000 0.65560  0.22290  0.25950  Biso   1.000  H
  H47      1.0000 0.15560  0.27710  0.74050  Biso   1.000  H
  H48      1.0000 0.34440  0.72290  0.24050  Biso   1.000  H
  C41      1.0000 0.83280  0.93937  0.72566  Biso   1.000  C
  C42      1.0000 0.66720  0.06063  0.22566  Biso   1.000  C
  C43      1.0000 0.16720  0.43937  0.77434  Biso   1.000  C
  C44      1.0000 0.33280  0.56063  0.27434  Biso   1.000  C
  C45      1.0000 0.51480  0.01330  0.66616  Biso   1.000  C
  C46      1.0000 0.98520  0.98670  0.16616  Biso   1.000  C
  C47      1.0000 0.48520  0.51330  0.83384  Biso   1.000  C
  C48      1.0000 0.01480  0.48670  0.33384  Biso   1.000  C
  H49      1.0000 0.41310  0.04970  0.69480  Biso   1.000  H
  H50      1.0000 0.08690  0.95030  0.19480  Biso   1.000  H
  H51      1.0000 0.58690  0.54970  0.80520  Biso   1.000  H
  H52      1.0000 0.91310  0.45030  0.30520  Biso   1.000  H
  H53      1.0000 0.39740  0.98700  0.63770  Biso   1.000  H
  H54      1.0000 0.10260  0.01300  0.13770  Biso   1.000  H
  H55      1.0000 0.60260  0.48700  0.86230  Biso   1.000  H
  H56      1.0000 0.89740  0.51300  0.36230  Biso   1.000  H
  H57      1.0000 0.63810  0.06990  0.65150  Biso   1.000  H
  H58      1.0000 0.86190  0.93010  0.15150  Biso   1.000  H
  H59      1.0000 0.36190  0.56990  0.84850  Biso   1.000  H
  H60      1.0000 0.13810  0.43010  0.34850  Biso   1.000  H
  C49      1.0000 0.96870  0.78316  0.86749  Biso   1.000  C
  C50      1.0000 0.53130  0.21684  0.36749  Biso   1.000  C
  C51      1.0000 0.03130  0.28316  0.63251  Biso   1.000  C
  C52      1.0000 0.46870  0.71684  0.13251  Biso   1.000  C
  O25      1.0000 0.88270  0.54504  0.94607  Biso   1.000  O
  O26      1.0000 0.61730  0.45496  0.44607  Biso   1.000  O
  O27      1.0000 0.11730  0.04504  0.55393  Biso   1.000  O
  O28      1.0000 0.38270  0.95496  0.05393  Biso   1.000  O
  H61      1.0000 0.95100  0.58400  0.92740  Biso   1.000  H
  H62      1.0000 0.54900  0.41600  0.42740  Biso   1.000  H
  H63      1.0000 0.04900  0.08400  0.57260  Biso   1.000  H
  H64      1.0000 0.45100  0.91600  0.07260  Biso   1.000  H
  H65      1.0000 0.97500  0.54500  0.96820  Biso   1.000  H
  H66      1.0000 0.52500  0.45500  0.46820  Biso   1.000  H
  H67      1.0000 0.02500  0.04500  0.53180  Biso   1.000  H
  H68      1.0000 0.47500  0.95500  0.03180  Biso   1.000  H
