data_image0
_cell_length_a       10.048
_cell_length_b       13.43
_cell_length_c       9.949
_cell_angle_alpha    99.96
_cell_angle_beta     103.55
_cell_angle_gamma    72.01

_symmetry_space_group_name_H-M    "P 1"
_symmetry_int_tables_number       1

loop_
  _symmetry_equiv_pos_as_xyz
  'x, y, z'

loop_
  _atom_site_label
  _atom_site_occupancy
  _atom_site_fract_x
  _atom_site_fract_y
  _atom_site_fract_z
  _atom_site_thermal_displace_type
  _atom_site_B_iso_or_equiv
  _atom_site_type_symbol
  Cu1      1.0000 0.79576  0.69234  0.58862  Biso   1.000  Cu
  Cu2      1.0000 0.20424  0.30766  0.41138  Biso   1.000  Cu
  N1       1.0000 0.83990  0.57860  0.70950  Biso   1.000  N
  N2       1.0000 0.16010  0.42140  0.29050  Biso   1.000  N
  N3       1.0000 0.95320  0.43220  0.80910  Biso   1.000  N
  N4       1.0000 0.04680  0.56780  0.19090  Biso   1.000  N
  N5       1.0000 0.72480  0.00990  0.57410  Biso   1.000  N
  N6       1.0000 0.27520  0.99010  0.42590  Biso   1.000  N
  N7       1.0000 0.74440  0.83870  0.53730  Biso   1.000  N
  N8       1.0000 0.25560  0.16130  0.46270  Biso   1.000  N
  O1       1.0000 0.02710  0.75900  0.80250  Biso   1.000  O
  O2       1.0000 0.97290  0.24100  0.19750  Biso   1.000  O
  O3       1.0000 0.99620  0.67020  0.59370  Biso   1.000  O
  O4       1.0000 0.00380  0.32980  0.40630  Biso   1.000  O
  O5       1.0000 0.71540  0.58870  0.37740  Biso   1.000  O
  O6       1.0000 0.28460  0.41130  0.62260  Biso   1.000  O
  O7       1.0000 0.59360  0.68792  0.53380  Biso   1.000  O
  O8       1.0000 0.40640  0.31208  0.46620  Biso   1.000  O
  O9       1.0000 0.19530  0.86950  0.99250  Biso   1.000  O
  O10      1.0000 0.80470  0.13050  0.00750  Biso   1.000  O
  H1       1.0000 0.15470  0.82980  0.93840  Biso   1.000  H
  H2       1.0000 0.84530  0.17020  0.06160  Biso   1.000  H
  C1       1.0000 0.64420  0.64310  0.85200  Biso   1.000  C
  C2       1.0000 0.35580  0.35690  0.14800  Biso   1.000  C
  H3       1.0000 0.59510  0.70430  0.80990  Biso   1.000  H
  H4       1.0000 0.40490  0.29570  0.19010  Biso   1.000  H
  C3       1.0000 0.59910  0.61720  0.95910  Biso   1.000  C
  C4       1.0000 0.40090  0.38280  0.04090  Biso   1.000  C
  H5       1.0000 0.51770  0.66150  0.98910  Biso   1.000  H
  H6       1.0000 0.48230  0.33850  0.01090  Biso   1.000  H
  C5       1.0000 0.67250  0.52670  0.02260  Biso   1.000  C
  C6       1.0000 0.32750  0.47330  0.97740  Biso   1.000  C
  H7       1.0000 0.63960  0.51290  0.09540  Biso   1.000  H
  H8       1.0000 0.36040  0.48710  0.90460  Biso   1.000  H
  C7       1.0000 0.79260  0.45620  0.98230  Biso   1.000  C
  C8       1.0000 0.20740  0.54380  0.01770  Biso   1.000  C
  H9       1.0000 0.84040  0.39510  0.02480  Biso   1.000  H
  H10      1.0000 0.15960  0.60490  0.97520  Biso   1.000  H
  C9       1.0000 0.83800  0.48180  0.87390  Biso   1.000  C
  C10      1.0000 0.16200  0.51820  0.12610  Biso   1.000  C
  C11      1.0000 0.76620  0.57400  0.80970  Biso   1.000  C
  C12      1.0000 0.23380  0.42600  0.19030  Biso   1.000  C
  C13      1.0000 0.95000  0.49310  0.71500  Biso   1.000  C
  C14      1.0000 0.05000  0.50690  0.28500  Biso   1.000  C
  H11      1.0000 0.01780  0.47720  0.65910  Biso   1.000  H
  H12      1.0000 0.98220  0.52280  0.34090  Biso   1.000  H
  C15      1.0000 0.06250  0.33240  0.84030  Biso   1.000  C
  C16      1.0000 0.93750  0.66760  0.15970  Biso   1.000  C
  H13      1.0000 0.08190  0.32770  0.93960  Biso   1.000  H
  H14      1.0000 0.91810  0.67230  0.06040  Biso   1.000  H
  H15      1.0000 0.15010  0.33230  0.81510  Biso   1.000  H
  H16      1.0000 0.84990  0.66770  0.18490  Biso   1.000  H
  C17      1.0000 0.01790  0.23890  0.76500  Biso   1.000  C
  C18      1.0000 0.98210  0.76110  0.23500  Biso   1.000  C
  H17      1.0000 0.08600  0.20880  0.70380  Biso   1.000  H
  H18      1.0000 0.91400  0.79120  0.29620  Biso   1.000  H
  H19      1.0000 0.04570  0.19140  0.83620  Biso   1.000  H
  H20      1.0000 0.95430  0.80860  0.16380  Biso   1.000  H
  C19      1.0000 0.91730  0.22180  0.70060  Biso   1.000  C
  C20      1.0000 0.08270  0.77820  0.29940  Biso   1.000  C
  H21      1.0000 0.88410  0.27190  0.63220  Biso   1.000  H
  H22      1.0000 0.11590  0.72810  0.36780  Biso   1.000  H
  H23      1.0000 0.85000  0.24550  0.76310  Biso   1.000  H
  H24      1.0000 0.15000  0.75450  0.23690  Biso   1.000  H
  C21      1.0000 0.88680  0.12170  0.62020  Biso   1.000  C
  C22      1.0000 0.11320  0.87830  0.37980  Biso   1.000  C
  H25      1.0000 0.87870  0.12400  0.52170  Biso   1.000  H
  H26      1.0000 0.12130  0.87600  0.47830  Biso   1.000  H
  H27      1.0000 0.96550  0.06140  0.64870  Biso   1.000  H
  H28      1.0000 0.03450  0.93860  0.35130  Biso   1.000  H
  C23      1.0000 0.75220  0.10920  0.64490  Biso   1.000  C
  C24      1.0000 0.24780  0.89080  0.35510  Biso   1.000  C
  H29      1.0000 0.75840  0.11110  0.74410  Biso   1.000  H
  H30      1.0000 0.24160  0.88890  0.25590  Biso   1.000  H
  H31      1.0000 0.67290  0.16780  0.61190  Biso   1.000  H
  H32      1.0000 0.32710  0.83220  0.38810  Biso   1.000  H
  C25      1.0000 0.77650  0.91660  0.62640  Biso   1.000  C
  C26      1.0000 0.22350  0.08340  0.37360  Biso   1.000  C
  H33      1.0000 0.82930  0.90790  0.71590  Biso   1.000  H
  H34      1.0000 0.17070  0.09210  0.28410  Biso   1.000  H
  C27      1.0000 0.65310  0.99270  0.44050  Biso   1.000  C
  C28      1.0000 0.34690  0.00730  0.55950  Biso   1.000  C
  C29      1.0000 0.66510  0.88440  0.41780  Biso   1.000  C
  C30      1.0000 0.33490  0.11560  0.58220  Biso   1.000  C
  C31      1.0000 0.60500  0.84060  0.29040  Biso   1.000  C
  C32      1.0000 0.39500  0.15940  0.70960  Biso   1.000  C
  H35      1.0000 0.61310  0.76890  0.27340  Biso   1.000  H
  H36      1.0000 0.38690  0.23110  0.72660  Biso   1.000  H
  C33      1.0000 0.53250  0.90760  0.18970  Biso   1.000  C
  C34      1.0000 0.46750  0.09240  0.81030  Biso   1.000  C
  H37      1.0000 0.49100  0.88040  0.10320  Biso   1.000  H
  H38      1.0000 0.50900  0.11960  0.89680  Biso   1.000  H
  C35      1.0000 0.52050  0.01470  0.21480  Biso   1.000  C
  C36      1.0000 0.47950  0.98530  0.78520  Biso   1.000  C
  H39      1.0000 0.47050  0.05720  0.14450  Biso   1.000  H
  H40      1.0000 0.52950  0.94280  0.85550  Biso   1.000  H
  C37      1.0000 0.57970  0.06000  0.33950  Biso   1.000  C
  C38      1.0000 0.42030  0.94000  0.66050  Biso   1.000  C
  H41      1.0000 0.57110  0.13190  0.35550  Biso   1.000  H
  H42      1.0000 0.42890  0.86810  0.64450  Biso   1.000  H
  C39      1.0000 0.07270  0.70640  0.69870  Biso   1.000  C
  C40      1.0000 0.92730  0.29360  0.30130  Biso   1.000  C
  C41      1.0000 0.22910  0.68250  0.69220  Biso   1.000  C
  C42      1.0000 0.77090  0.31750  0.30780  Biso   1.000  C
  H43      1.0000 0.24650  0.64090  0.60610  Biso   1.000  H
  H44      1.0000 0.75350  0.35910  0.39390  Biso   1.000  H
  H45      1.0000 0.28680  0.64430  0.76850  Biso   1.000  H
  H46      1.0000 0.71320  0.35570  0.23150  Biso   1.000  H
  H47      1.0000 0.25280  0.74730  0.69780  Biso   1.000  H
  H48      1.0000 0.74720  0.25270  0.30220  Biso   1.000  H
  C43      1.0000 0.60470  0.62260  0.42510  Biso   1.000  C
  C44      1.0000 0.39530  0.37740  0.57490  Biso   1.000  C
  C45      1.0000 0.47280  0.58780  0.35350  Biso   1.000  C
  C46      1.0000 0.52720  0.41220  0.64650  Biso   1.000  C
  H49      1.0000 0.49320  0.53850  0.27360  Biso   1.000  H
  H50      1.0000 0.50680  0.46150  0.72640  Biso   1.000  H
  H51      1.0000 0.39610  0.64800  0.32460  Biso   1.000  H
  H52      1.0000 0.60390  0.35200  0.67540  Biso   1.000  H
  H53      1.0000 0.44570  0.55480  0.41700  Biso   1.000  H
  H54      1.0000 0.55430  0.44520  0.58300  Biso   1.000  H
  C47      1.0000 0.17410  0.95890  0.93230  Biso   1.000  C
  C48      1.0000 0.82590  0.04110  0.06770  Biso   1.000  C
  H55      1.0000 0.07370  0.99100  0.90510  Biso   1.000  H
  H56      1.0000 0.92630  0.00900  0.09490  Biso   1.000  H
  H57      1.0000 0.21750  0.94100  0.85190  Biso   1.000  H
  H58      1.0000 0.78250  0.05900  0.14810  Biso   1.000  H
  H59      1.0000 0.21630  0.00730  0.99790  Biso   1.000  H
  H60      1.0000 0.78370  0.99270  0.00210  Biso   1.000  H
