data_image0
_cell_length_a       16.427
_cell_length_b       16.427
_cell_length_c       17.538
_cell_angle_alpha    90
_cell_angle_beta     90
_cell_angle_gamma    90

_symmetry_space_group_name_H-M    "P 1"
_symmetry_int_tables_number       1

loop_
  _symmetry_equiv_pos_as_xyz
  'x, y, z'

loop_
  _atom_site_label
  _atom_site_occupancy
  _atom_site_fract_x
  _atom_site_fract_y
  _atom_site_fract_z
  _atom_site_thermal_displace_type
  _atom_site_B_iso_or_equiv
  _atom_site_type_symbol
  Cu1      1.0000 0.00000  0.50000  0.00000  Biso   1.000  Cu
  Cu2      1.0000 0.25000  0.25000  0.25000  Biso   1.000  Cu
  Cu3      1.0000 0.00000  0.00000  0.00000  Biso   1.000  Cu
  Cu4      1.0000 0.75000  0.25000  0.25000  Biso   1.000  Cu
  Cu5      1.0000 0.50000  0.00000  0.50000  Biso   1.000  Cu
  Cu6      1.0000 0.75000  0.75000  0.75000  Biso   1.000  Cu
  Cu7      1.0000 0.50000  0.50000  0.50000  Biso   1.000  Cu
  Cu8      1.0000 0.25000  0.75000  0.75000  Biso   1.000  Cu
  O1       1.0000 0.37560  0.55630  0.14870  Biso   1.000  O
  O2       1.0000 0.19370  0.62560  0.39870  Biso   1.000  O
  O3       1.0000 0.62440  0.94370  0.14870  Biso   1.000  O
  O4       1.0000 0.80630  0.87440  0.39870  Biso   1.000  O
  O5       1.0000 0.87560  0.05630  0.64870  Biso   1.000  O
  O6       1.0000 0.69370  0.12560  0.89870  Biso   1.000  O
  O7       1.0000 0.12440  0.44370  0.64870  Biso   1.000  O
  O8       1.0000 0.30630  0.37440  0.89870  Biso   1.000  O
  O9       1.0000 0.62440  0.44370  0.85130  Biso   1.000  O
  O10      1.0000 0.30630  0.87440  0.10130  Biso   1.000  O
  O11      1.0000 0.37560  0.05630  0.85130  Biso   1.000  O
  O12      1.0000 0.69370  0.62560  0.10130  Biso   1.000  O
  O13      1.0000 0.12440  0.94370  0.35130  Biso   1.000  O
  O14      1.0000 0.80630  0.37440  0.60130  Biso   1.000  O
  O15      1.0000 0.87560  0.55630  0.35130  Biso   1.000  O
  O16      1.0000 0.19370  0.12560  0.60130  Biso   1.000  O
  O17      1.0000 0.98792  0.60074  0.06180  Biso   1.000  O
  O18      1.0000 0.14926  0.23792  0.31180  Biso   1.000  O
  O19      1.0000 0.01208  0.89926  0.06180  Biso   1.000  O
  O20      1.0000 0.85074  0.26208  0.31180  Biso   1.000  O
  O21      1.0000 0.48792  0.10074  0.56180  Biso   1.000  O
  O22      1.0000 0.64926  0.73792  0.81180  Biso   1.000  O
  O23      1.0000 0.51208  0.39926  0.56180  Biso   1.000  O
  O24      1.0000 0.35074  0.76208  0.81180  Biso   1.000  O
  O25      1.0000 0.01208  0.39926  0.93820  Biso   1.000  O
  O26      1.0000 0.35074  0.26208  0.18820  Biso   1.000  O
  O27      1.0000 0.98792  0.10074  0.93820  Biso   1.000  O
  O28      1.0000 0.64926  0.23792  0.18820  Biso   1.000  O
  O29      1.0000 0.51208  0.89926  0.43820  Biso   1.000  O
  O30      1.0000 0.85074  0.76208  0.68820  Biso   1.000  O
  O31      1.0000 0.48792  0.60074  0.43820  Biso   1.000  O
  O32      1.0000 0.14926  0.73792  0.68820  Biso   1.000  O
  O33      1.0000 0.00260  0.54350  0.17790  Biso   1.000  O
  O34      1.0000 0.20650  0.25260  0.42790  Biso   1.000  O
  O35      1.0000 0.99740  0.95650  0.17790  Biso   1.000  O
  O36      1.0000 0.79350  0.24740  0.42790  Biso   1.000  O
  O37      1.0000 0.50260  0.04350  0.67790  Biso   1.000  O
  O38      1.0000 0.70650  0.75260  0.92790  Biso   1.000  O
  O39      1.0000 0.49740  0.45650  0.67790  Biso   1.000  O
  O40      1.0000 0.29350  0.74740  0.92790  Biso   1.000  O
  O41      1.0000 0.99740  0.45650  0.82210  Biso   1.000  O
  O42      1.0000 0.29350  0.24740  0.07210  Biso   1.000  O
  O43      1.0000 0.00260  0.04350  0.82210  Biso   1.000  O
  O44      1.0000 0.70650  0.25260  0.07210  Biso   1.000  O
  O45      1.0000 0.49740  0.95650  0.32210  Biso   1.000  O
  O46      1.0000 0.79350  0.74740  0.57210  Biso   1.000  O
  O47      1.0000 0.50260  0.54350  0.32210  Biso   1.000  O
  O48      1.0000 0.20650  0.75260  0.57210  Biso   1.000  O
  O49      1.0000 0.00000  0.75000  0.12370  Biso   1.000  O
  O50      1.0000 0.00000  0.25000  0.37370  Biso   1.000  O
  O51      1.0000 0.50000  0.25000  0.62370  Biso   1.000  O
  O52      1.0000 0.50000  0.75000  0.87370  Biso   1.000  O
  O53      1.0000 0.00000  0.25000  0.87630  Biso   1.000  O
  O54      1.0000 0.50000  0.25000  0.12630  Biso   1.000  O
  O55      1.0000 0.50000  0.75000  0.37630  Biso   1.000  O
  O56      1.0000 0.00000  0.75000  0.62630  Biso   1.000  O
  O57      1.0000 0.98710  0.40080  0.11330  Biso   1.000  O
  O58      1.0000 0.34920  0.23710  0.36330  Biso   1.000  O
  O59      1.0000 0.01290  0.09920  0.11330  Biso   1.000  O
  O60      1.0000 0.65080  0.26290  0.36330  Biso   1.000  O
  O61      1.0000 0.48710  0.90080  0.61330  Biso   1.000  O
  O62      1.0000 0.84920  0.73710  0.86330  Biso   1.000  O
  O63      1.0000 0.51290  0.59920  0.61330  Biso   1.000  O
  O64      1.0000 0.15080  0.76290  0.86330  Biso   1.000  O
  O65      1.0000 0.01290  0.59920  0.88670  Biso   1.000  O
  O66      1.0000 0.15080  0.26290  0.13670  Biso   1.000  O
  O67      1.0000 0.98710  0.90080  0.88670  Biso   1.000  O
  O68      1.0000 0.84920  0.23710  0.13670  Biso   1.000  O
  O69      1.0000 0.51290  0.09920  0.38670  Biso   1.000  O
  O70      1.0000 0.65080  0.76290  0.63670  Biso   1.000  O
  O71      1.0000 0.48710  0.40080  0.38670  Biso   1.000  O
  O72      1.0000 0.34920  0.73710  0.63670  Biso   1.000  O
  H1       1.0000 0.99530  0.35240  0.13200  Biso   1.000  H
  H2       1.0000 0.39760  0.24530  0.38200  Biso   1.000  H
  H3       1.0000 0.00470  0.14760  0.13200  Biso   1.000  H
  H4       1.0000 0.60240  0.25470  0.38200  Biso   1.000  H
  H5       1.0000 0.49530  0.85240  0.63200  Biso   1.000  H
  H6       1.0000 0.89760  0.74530  0.88200  Biso   1.000  H
  H7       1.0000 0.50470  0.64760  0.63200  Biso   1.000  H
  H8       1.0000 0.10240  0.75470  0.88200  Biso   1.000  H
  H9       1.0000 0.00470  0.64760  0.86800  Biso   1.000  H
  H10      1.0000 0.10240  0.25470  0.11800  Biso   1.000  H
  H11      1.0000 0.99530  0.85240  0.86800  Biso   1.000  H
  H12      1.0000 0.89760  0.24530  0.11800  Biso   1.000  H
  H13      1.0000 0.50470  0.14760  0.36800  Biso   1.000  H
  H14      1.0000 0.60240  0.75470  0.61800  Biso   1.000  H
  H15      1.0000 0.49530  0.35240  0.36800  Biso   1.000  H
  H16      1.0000 0.39760  0.74530  0.61800  Biso   1.000  H
  H17      1.0000 0.96190  0.39670  0.06980  Biso   1.000  H
  H18      1.0000 0.35330  0.21190  0.31980  Biso   1.000  H
  H19      1.0000 0.03810  0.10330  0.06980  Biso   1.000  H
  H20      1.0000 0.64670  0.28810  0.31980  Biso   1.000  H
  H21      1.0000 0.46190  0.89670  0.56980  Biso   1.000  H
  H22      1.0000 0.85330  0.71190  0.81980  Biso   1.000  H
  H23      1.0000 0.53810  0.60330  0.56980  Biso   1.000  H
  H24      1.0000 0.14670  0.78810  0.81980  Biso   1.000  H
  H25      1.0000 0.03810  0.60330  0.93020  Biso   1.000  H
  H26      1.0000 0.14670  0.28810  0.18020  Biso   1.000  H
  H27      1.0000 0.96190  0.89670  0.93020  Biso   1.000  H
  H28      1.0000 0.85330  0.21190  0.18020  Biso   1.000  H
  H29      1.0000 0.53810  0.10330  0.43020  Biso   1.000  H
  H30      1.0000 0.64670  0.78810  0.68020  Biso   1.000  H
  H31      1.0000 0.46190  0.39670  0.43020  Biso   1.000  H
  H32      1.0000 0.35330  0.71190  0.68020  Biso   1.000  H
  N1       1.0000 0.12080  0.50760  0.01380  Biso   1.000  N
  N2       1.0000 0.24240  0.37080  0.26380  Biso   1.000  N
  N3       1.0000 0.87920  0.99240  0.01380  Biso   1.000  N
  N4       1.0000 0.75760  0.12920  0.26380  Biso   1.000  N
  N5       1.0000 0.62080  0.00760  0.51380  Biso   1.000  N
  N6       1.0000 0.74240  0.87080  0.76380  Biso   1.000  N
  N7       1.0000 0.37920  0.49240  0.51380  Biso   1.000  N
  N8       1.0000 0.25760  0.62920  0.76380  Biso   1.000  N
  N9       1.0000 0.87920  0.49240  0.98620  Biso   1.000  N
  N10      1.0000 0.25760  0.12920  0.23620  Biso   1.000  N
  N11      1.0000 0.12080  0.00760  0.98620  Biso   1.000  N
  N12      1.0000 0.74240  0.37080  0.23620  Biso   1.000  N
  N13      1.0000 0.37920  0.99240  0.48620  Biso   1.000  N
  N14      1.0000 0.75760  0.62920  0.73620  Biso   1.000  N
  N15      1.0000 0.62080  0.50760  0.48620  Biso   1.000  N
  N16      1.0000 0.24240  0.87080  0.73620  Biso   1.000  N
  N17      1.0000 0.43220  0.52790  0.03910  Biso   1.000  N
  N18      1.0000 0.22210  0.68220  0.28910  Biso   1.000  N
  N19      1.0000 0.56780  0.97210  0.03910  Biso   1.000  N
  N20      1.0000 0.77790  0.81780  0.28910  Biso   1.000  N
  N21      1.0000 0.93220  0.02790  0.53910  Biso   1.000  N
  N22      1.0000 0.72210  0.18220  0.78910  Biso   1.000  N
  N23      1.0000 0.06780  0.47210  0.53910  Biso   1.000  N
  N24      1.0000 0.27790  0.31780  0.78910  Biso   1.000  N
  N25      1.0000 0.56780  0.47210  0.96090  Biso   1.000  N
  N26      1.0000 0.27790  0.81780  0.21090  Biso   1.000  N
  N27      1.0000 0.43220  0.02790  0.96090  Biso   1.000  N
  N28      1.0000 0.72210  0.68220  0.21090  Biso   1.000  N
  N29      1.0000 0.06780  0.97210  0.46090  Biso   1.000  N
  N30      1.0000 0.77790  0.31780  0.71090  Biso   1.000  N
  N31      1.0000 0.93220  0.52790  0.46090  Biso   1.000  N
  N32      1.0000 0.22210  0.18220  0.71090  Biso   1.000  N
  C1       1.0000 0.16060  0.57810  0.00320  Biso   1.000  C
  C2       1.0000 0.17190  0.41060  0.25320  Biso   1.000  C
  C3       1.0000 0.83940  0.92190  0.00320  Biso   1.000  C
  C4       1.0000 0.82810  0.08940  0.25320  Biso   1.000  C
  C5       1.0000 0.66060  0.07810  0.50320  Biso   1.000  C
  C6       1.0000 0.67190  0.91060  0.75320  Biso   1.000  C
  C7       1.0000 0.33940  0.42190  0.50320  Biso   1.000  C
  C8       1.0000 0.32810  0.58940  0.75320  Biso   1.000  C
  C9       1.0000 0.83940  0.42190  0.99680  Biso   1.000  C
  C10      1.0000 0.32810  0.08940  0.24680  Biso   1.000  C
  C11      1.0000 0.16060  0.07810  0.99680  Biso   1.000  C
  C12      1.0000 0.67190  0.41060  0.24680  Biso   1.000  C
  C13      1.0000 0.33940  0.92190  0.49680  Biso   1.000  C
  C14      1.0000 0.82810  0.58940  0.74680  Biso   1.000  C
  C15      1.0000 0.66060  0.57810  0.49680  Biso   1.000  C
  C16      1.0000 0.17190  0.91060  0.74680  Biso   1.000  C
  H33      1.0000 0.13150  0.62300  0.98260  Biso   1.000  H
  H34      1.0000 0.12700  0.38150  0.23260  Biso   1.000  H
  H35      1.0000 0.86850  0.87700  0.98260  Biso   1.000  H
  H36      1.0000 0.87300  0.11850  0.23260  Biso   1.000  H
  H37      1.0000 0.63150  0.12300  0.48260  Biso   1.000  H
  H38      1.0000 0.62700  0.88150  0.73260  Biso   1.000  H
  H39      1.0000 0.36850  0.37700  0.48260  Biso   1.000  H
  H40      1.0000 0.37300  0.61850  0.73260  Biso   1.000  H
  H41      1.0000 0.86850  0.37700  0.01740  Biso   1.000  H
  H42      1.0000 0.37300  0.11850  0.26740  Biso   1.000  H
  H43      1.0000 0.13150  0.12300  0.01740  Biso   1.000  H
  H44      1.0000 0.62700  0.38150  0.26740  Biso   1.000  H
  H45      1.0000 0.36850  0.87700  0.51740  Biso   1.000  H
  H46      1.0000 0.87300  0.61850  0.76740  Biso   1.000  H
  H47      1.0000 0.63150  0.62300  0.51740  Biso   1.000  H
  H48      1.0000 0.12700  0.88150  0.76740  Biso   1.000  H
  C17      1.0000 0.24160  0.58840  0.02080  Biso   1.000  C
  C18      1.0000 0.16160  0.49160  0.27080  Biso   1.000  C
  C19      1.0000 0.75840  0.91160  0.02080  Biso   1.000  C
  C20      1.0000 0.83840  0.00840  0.27080  Biso   1.000  C
  C21      1.0000 0.74160  0.08840  0.52080  Biso   1.000  C
  C22      1.0000 0.66160  0.99160  0.77080  Biso   1.000  C
  C23      1.0000 0.25840  0.41160  0.52080  Biso   1.000  C
  C24      1.0000 0.33840  0.50840  0.77080  Biso   1.000  C
  C25      1.0000 0.75840  0.41160  0.97920  Biso   1.000  C
  C26      1.0000 0.33840  0.00840  0.22920  Biso   1.000  C
  C27      1.0000 0.24160  0.08840  0.97920  Biso   1.000  C
  C28      1.0000 0.66160  0.49160  0.22920  Biso   1.000  C
  C29      1.0000 0.25840  0.91160  0.47920  Biso   1.000  C
  C30      1.0000 0.83840  0.50840  0.72920  Biso   1.000  C
  C31      1.0000 0.74160  0.58840  0.47920  Biso   1.000  C
  C32      1.0000 0.16160  0.99160  0.72920  Biso   1.000  C
  H49      1.0000 0.26750  0.63930  0.01230  Biso   1.000  H
  H50      1.0000 0.11070  0.51750  0.26230  Biso   1.000  H
  H51      1.0000 0.73250  0.86070  0.01230  Biso   1.000  H
  H52      1.0000 0.88930  0.98250  0.26230  Biso   1.000  H
  H53      1.0000 0.76750  0.13930  0.51230  Biso   1.000  H
  H54      1.0000 0.61070  0.01750  0.76230  Biso   1.000  H
  H55      1.0000 0.23250  0.36070  0.51230  Biso   1.000  H
  H56      1.0000 0.38930  0.48250  0.76230  Biso   1.000  H
  H57      1.0000 0.73250  0.36070  0.98770  Biso   1.000  H
  H58      1.0000 0.38930  0.98250  0.23770  Biso   1.000  H
  H59      1.0000 0.26750  0.13930  0.98770  Biso   1.000  H
  H60      1.0000 0.61070  0.51750  0.23770  Biso   1.000  H
  H61      1.0000 0.23250  0.86070  0.48770  Biso   1.000  H
  H62      1.0000 0.88930  0.48250  0.73770  Biso   1.000  H
  H63      1.0000 0.76750  0.63930  0.48770  Biso   1.000  H
  H64      1.0000 0.11070  0.01750  0.73770  Biso   1.000  H
  C33      1.0000 0.28460  0.52420  0.05090  Biso   1.000  C
  C34      1.0000 0.22580  0.53460  0.30090  Biso   1.000  C
  C35      1.0000 0.71540  0.97580  0.05090  Biso   1.000  C
  C36      1.0000 0.77420  0.96540  0.30090  Biso   1.000  C
  C37      1.0000 0.78460  0.02420  0.55090  Biso   1.000  C
  C38      1.0000 0.72580  0.03460  0.80090  Biso   1.000  C
  C39      1.0000 0.21540  0.47580  0.55090  Biso   1.000  C
  C40      1.0000 0.27420  0.46540  0.80090  Biso   1.000  C
  C41      1.0000 0.71540  0.47580  0.94910  Biso   1.000  C
  C42      1.0000 0.27420  0.96540  0.19910  Biso   1.000  C
  C43      1.0000 0.28460  0.02420  0.94910  Biso   1.000  C
  C44      1.0000 0.72580  0.53460  0.19910  Biso   1.000  C
  C45      1.0000 0.21540  0.97580  0.44910  Biso   1.000  C
  C46      1.0000 0.77420  0.46540  0.69910  Biso   1.000  C
  C47      1.0000 0.78460  0.52420  0.44910  Biso   1.000  C
  C48      1.0000 0.22580  0.03460  0.69910  Biso   1.000  C
  C49      1.0000 0.24450  0.45070  0.06020  Biso   1.000  C
  C50      1.0000 0.29930  0.49450  0.31020  Biso   1.000  C
  C51      1.0000 0.75550  0.04930  0.06020  Biso   1.000  C
  C52      1.0000 0.70070  0.00550  0.31020  Biso   1.000  C
  C53      1.0000 0.74450  0.95070  0.56020  Biso   1.000  C
  C54      1.0000 0.79930  0.99450  0.81020  Biso   1.000  C
  C55      1.0000 0.25550  0.54930  0.56020  Biso   1.000  C
  C56      1.0000 0.20070  0.50550  0.81020  Biso   1.000  C
  C57      1.0000 0.75550  0.54930  0.93980  Biso   1.000  C
  C58      1.0000 0.20070  0.00550  0.18980  Biso   1.000  C
  C59      1.0000 0.24450  0.95070  0.93980  Biso   1.000  C
  C60      1.0000 0.79930  0.49450  0.18980  Biso   1.000  C
  C61      1.0000 0.25550  0.04930  0.43980  Biso   1.000  C
  C62      1.0000 0.70070  0.50550  0.68980  Biso   1.000  C
  C63      1.0000 0.74450  0.45070  0.43980  Biso   1.000  C
  C64      1.0000 0.29930  0.99450  0.68980  Biso   1.000  C
  H65      1.0000 0.27260  0.40460  0.07970  Biso   1.000  H
  H66      1.0000 0.34540  0.52260  0.32970  Biso   1.000  H
  H67      1.0000 0.72740  0.09540  0.07970  Biso   1.000  H
  H68      1.0000 0.65460  0.97740  0.32970  Biso   1.000  H
  H69      1.0000 0.77260  0.90460  0.57970  Biso   1.000  H
  H70      1.0000 0.84540  0.02260  0.82970  Biso   1.000  H
  H71      1.0000 0.22740  0.59540  0.57970  Biso   1.000  H
  H72      1.0000 0.15460  0.47740  0.82970  Biso   1.000  H
  H73      1.0000 0.72740  0.59540  0.92030  Biso   1.000  H
  H74      1.0000 0.15460  0.97740  0.17030  Biso   1.000  H
  H75      1.0000 0.27260  0.90460  0.92030  Biso   1.000  H
  H76      1.0000 0.84540  0.52260  0.17030  Biso   1.000  H
  H77      1.0000 0.22740  0.09540  0.42030  Biso   1.000  H
  H78      1.0000 0.65460  0.47740  0.67030  Biso   1.000  H
  H79      1.0000 0.77260  0.40460  0.42030  Biso   1.000  H
  H80      1.0000 0.34540  0.02260  0.67030  Biso   1.000  H
  C65      1.0000 0.16360  0.44560  0.04100  Biso   1.000  C
  C66      1.0000 0.30440  0.41360  0.29100  Biso   1.000  C
  C67      1.0000 0.83640  0.05440  0.04100  Biso   1.000  C
  C68      1.0000 0.69560  0.08640  0.29100  Biso   1.000  C
  C69      1.0000 0.66360  0.94560  0.54100  Biso   1.000  C
  C70      1.0000 0.80440  0.91360  0.79100  Biso   1.000  C
  C71      1.0000 0.33640  0.55440  0.54100  Biso   1.000  C
  C72      1.0000 0.19560  0.58640  0.79100  Biso   1.000  C
  C73      1.0000 0.83640  0.55440  0.95900  Biso   1.000  C
  C74      1.0000 0.19560  0.08640  0.20900  Biso   1.000  C
  C75      1.0000 0.16360  0.94560  0.95900  Biso   1.000  C
  C76      1.0000 0.80440  0.41360  0.20900  Biso   1.000  C
  C77      1.0000 0.33640  0.05440  0.45900  Biso   1.000  C
  C78      1.0000 0.69560  0.58640  0.70900  Biso   1.000  C
  C79      1.0000 0.66360  0.44560  0.45900  Biso   1.000  C
  C80      1.0000 0.30440  0.91360  0.70900  Biso   1.000  C
  H81      1.0000 0.13690  0.39480  0.04760  Biso   1.000  H
  H82      1.0000 0.35520  0.38690  0.29760  Biso   1.000  H
  H83      1.0000 0.86310  0.10520  0.04760  Biso   1.000  H
  H84      1.0000 0.64480  0.11310  0.29760  Biso   1.000  H
  H85      1.0000 0.63690  0.89480  0.54760  Biso   1.000  H
  H86      1.0000 0.85520  0.88690  0.79760  Biso   1.000  H
  H87      1.0000 0.36310  0.60520  0.54760  Biso   1.000  H
  H88      1.0000 0.14480  0.61310  0.79760  Biso   1.000  H
  H89      1.0000 0.86310  0.60520  0.95240  Biso   1.000  H
  H90      1.0000 0.14480  0.11310  0.20240  Biso   1.000  H
  H91      1.0000 0.13690  0.89480  0.95240  Biso   1.000  H
  H92      1.0000 0.85520  0.38690  0.20240  Biso   1.000  H
  H93      1.0000 0.36310  0.10520  0.45240  Biso   1.000  H
  H94      1.0000 0.64480  0.61310  0.70240  Biso   1.000  H
  H95      1.0000 0.63690  0.39480  0.45240  Biso   1.000  H
  H96      1.0000 0.35520  0.88690  0.70240  Biso   1.000  H
  C81      1.0000 0.36920  0.53540  0.08320  Biso   1.000  C
  C82      1.0000 0.21460  0.61920  0.33320  Biso   1.000  C
  C83      1.0000 0.63080  0.96460  0.08320  Biso   1.000  C
  C84      1.0000 0.78540  0.88080  0.33320  Biso   1.000  C
  C85      1.0000 0.86920  0.03540  0.58320  Biso   1.000  C
  C86      1.0000 0.71460  0.11920  0.83320  Biso   1.000  C
  C87      1.0000 0.13080  0.46460  0.58320  Biso   1.000  C
  C88      1.0000 0.28540  0.38080  0.83320  Biso   1.000  C
  C89      1.0000 0.63080  0.46460  0.91680  Biso   1.000  C
  C90      1.0000 0.28540  0.88080  0.16680  Biso   1.000  C
  C91      1.0000 0.36920  0.03540  0.91680  Biso   1.000  C
  C92      1.0000 0.71460  0.61920  0.16680  Biso   1.000  C
  C93      1.0000 0.13080  0.96460  0.41680  Biso   1.000  C
  C94      1.0000 0.78540  0.38080  0.66680  Biso   1.000  C
  C95      1.0000 0.86920  0.53540  0.41680  Biso   1.000  C
  C96      1.0000 0.21460  0.11920  0.66680  Biso   1.000  C
  C97      1.0000 0.99690  0.60230  0.13340  Biso   1.000  C
  C98      1.0000 0.14770  0.24690  0.38340  Biso   1.000  C
  C99      1.0000 0.00310  0.89770  0.13340  Biso   1.000  C
  C100     1.0000 0.85230  0.25310  0.38340  Biso   1.000  C
  C101     1.0000 0.49690  0.10230  0.63340  Biso   1.000  C
  C102     1.0000 0.64770  0.74690  0.88340  Biso   1.000  C
  C103     1.0000 0.50310  0.39770  0.63340  Biso   1.000  C
  C104     1.0000 0.35230  0.75310  0.88340  Biso   1.000  C
  C105     1.0000 0.00310  0.39770  0.86660  Biso   1.000  C
  C106     1.0000 0.35230  0.25310  0.11660  Biso   1.000  C
  C107     1.0000 0.99690  0.10230  0.86660  Biso   1.000  C
  C108     1.0000 0.64770  0.24690  0.11660  Biso   1.000  C
  C109     1.0000 0.50310  0.89770  0.36660  Biso   1.000  C
  C110     1.0000 0.85230  0.75310  0.61660  Biso   1.000  C
  C111     1.0000 0.49690  0.60230  0.36660  Biso   1.000  C
  C112     1.0000 0.14770  0.74690  0.61660  Biso   1.000  C
  C113     1.0000 0.99860  0.70700  0.24360  Biso   1.000  C
  C114     1.0000 0.04300  0.24860  0.49360  Biso   1.000  C
  C115     1.0000 0.00140  0.79300  0.24360  Biso   1.000  C
  C116     1.0000 0.95700  0.25140  0.49360  Biso   1.000  C
  C117     1.0000 0.49860  0.20700  0.74360  Biso   1.000  C
  C118     1.0000 0.54300  0.74860  0.99360  Biso   1.000  C
  C119     1.0000 0.50140  0.29300  0.74360  Biso   1.000  C
  C120     1.0000 0.45700  0.75140  0.99360  Biso   1.000  C
  C121     1.0000 0.00140  0.29300  0.75640  Biso   1.000  C
  C122     1.0000 0.45700  0.25140  0.00640  Biso   1.000  C
  C123     1.0000 0.99860  0.20700  0.75640  Biso   1.000  C
  C124     1.0000 0.54300  0.24860  0.00640  Biso   1.000  C
  C125     1.0000 0.50140  0.79300  0.25640  Biso   1.000  C
  C126     1.0000 0.95700  0.75140  0.50640  Biso   1.000  C
  C127     1.0000 0.49860  0.70700  0.25640  Biso   1.000  C
  C128     1.0000 0.04300  0.74860  0.50640  Biso   1.000  C
  H97      1.0000 0.99730  0.67270  0.28720  Biso   1.000  H
  H98      1.0000 0.07730  0.24730  0.53720  Biso   1.000  H
  H99      1.0000 0.00270  0.82730  0.28720  Biso   1.000  H
  H100     1.0000 0.92270  0.25270  0.53720  Biso   1.000  H
  H101     1.0000 0.49730  0.17270  0.78720  Biso   1.000  H
  H102     1.0000 0.57730  0.74730  0.03720  Biso   1.000  H
  H103     1.0000 0.50270  0.32730  0.78720  Biso   1.000  H
  H104     1.0000 0.42270  0.75270  0.03720  Biso   1.000  H
  H105     1.0000 0.00270  0.32730  0.71280  Biso   1.000  H
  H106     1.0000 0.42270  0.25270  0.96280  Biso   1.000  H
  H107     1.0000 0.99730  0.17270  0.71280  Biso   1.000  H
  H108     1.0000 0.57730  0.24730  0.96280  Biso   1.000  H
  H109     1.0000 0.50270  0.82730  0.21280  Biso   1.000  H
  H110     1.0000 0.92270  0.75270  0.46280  Biso   1.000  H
  H111     1.0000 0.49730  0.67270  0.21280  Biso   1.000  H
  H112     1.0000 0.07730  0.74730  0.46280  Biso   1.000  H
  C129     1.0000 0.43010  0.52280  0.95500  Biso   1.000  C
  C130     1.0000 0.22720  0.68010  0.20500  Biso   1.000  C
  C131     1.0000 0.56990  0.97720  0.95500  Biso   1.000  C
  C132     1.0000 0.77280  0.81990  0.20500  Biso   1.000  C
  C133     1.0000 0.93010  0.02280  0.45500  Biso   1.000  C
  C134     1.0000 0.72720  0.18010  0.70500  Biso   1.000  C
  C135     1.0000 0.06990  0.47720  0.45500  Biso   1.000  C
  C136     1.0000 0.27280  0.31990  0.70500  Biso   1.000  C
  C137     1.0000 0.56990  0.47720  0.04500  Biso   1.000  C
  C138     1.0000 0.27280  0.81990  0.29500  Biso   1.000  C
  C139     1.0000 0.43010  0.02280  0.04500  Biso   1.000  C
  C140     1.0000 0.72720  0.68010  0.29500  Biso   1.000  C
  C141     1.0000 0.06990  0.97720  0.54500  Biso   1.000  C
  C142     1.0000 0.77280  0.31990  0.79500  Biso   1.000  C
  C143     1.0000 0.93010  0.52280  0.54500  Biso   1.000  C
  C144     1.0000 0.22720  0.18010  0.79500  Biso   1.000  C
  H113     1.0000 0.37410  0.51050  0.93760  Biso   1.000  H
  H114     1.0000 0.23950  0.62410  0.18760  Biso   1.000  H
  H115     1.0000 0.62590  0.98950  0.93760  Biso   1.000  H
  H116     1.0000 0.76050  0.87590  0.18760  Biso   1.000  H
  H117     1.0000 0.87410  0.01050  0.43760  Biso   1.000  H
  H118     1.0000 0.73950  0.12410  0.68760  Biso   1.000  H
  H119     1.0000 0.12590  0.48950  0.43760  Biso   1.000  H
  H120     1.0000 0.26050  0.37590  0.68760  Biso   1.000  H
  H121     1.0000 0.62590  0.48950  0.06240  Biso   1.000  H
  H122     1.0000 0.26050  0.87590  0.31240  Biso   1.000  H
  H123     1.0000 0.37410  0.01050  0.06240  Biso   1.000  H
  H124     1.0000 0.73950  0.62410  0.31240  Biso   1.000  H
  H125     1.0000 0.12590  0.98950  0.56240  Biso   1.000  H
  H126     1.0000 0.76050  0.37590  0.81240  Biso   1.000  H
  H127     1.0000 0.87410  0.51050  0.56240  Biso   1.000  H
  H128     1.0000 0.23950  0.12410  0.81240  Biso   1.000  H
  H129     1.0000 0.44680  0.57560  0.93260  Biso   1.000  H
  H130     1.0000 0.17440  0.69680  0.18260  Biso   1.000  H
  H131     1.0000 0.55320  0.92440  0.93260  Biso   1.000  H
  H132     1.0000 0.82560  0.80320  0.18260  Biso   1.000  H
  H133     1.0000 0.94680  0.07560  0.43260  Biso   1.000  H
  H134     1.0000 0.67440  0.19680  0.68260  Biso   1.000  H
  H135     1.0000 0.05320  0.42440  0.43260  Biso   1.000  H
  H136     1.0000 0.32560  0.30320  0.68260  Biso   1.000  H
  H137     1.0000 0.55320  0.42440  0.06740  Biso   1.000  H
  H138     1.0000 0.32560  0.80320  0.31740  Biso   1.000  H
  H139     1.0000 0.44680  0.07560  0.06740  Biso   1.000  H
  H140     1.0000 0.67440  0.69680  0.31740  Biso   1.000  H
  H141     1.0000 0.05320  0.92440  0.56740  Biso   1.000  H
  H142     1.0000 0.82560  0.30320  0.81740  Biso   1.000  H
  H143     1.0000 0.94680  0.57560  0.56740  Biso   1.000  H
  H144     1.0000 0.17440  0.19680  0.81740  Biso   1.000  H
  C145     1.0000 0.51490  0.54060  0.06960  Biso   1.000  C
  C146     1.0000 0.20940  0.76490  0.31960  Biso   1.000  C
  C147     1.0000 0.48510  0.95940  0.06960  Biso   1.000  C
  C148     1.0000 0.79060  0.73510  0.31960  Biso   1.000  C
  C149     1.0000 0.01490  0.04060  0.56960  Biso   1.000  C
  C150     1.0000 0.70940  0.26490  0.81960  Biso   1.000  C
  C151     1.0000 0.98510  0.45940  0.56960  Biso   1.000  C
  C152     1.0000 0.29060  0.23510  0.81960  Biso   1.000  C
  C153     1.0000 0.48510  0.45940  0.93040  Biso   1.000  C
  C154     1.0000 0.29060  0.73510  0.18040  Biso   1.000  C
  C155     1.0000 0.51490  0.04060  0.93040  Biso   1.000  C
  C156     1.0000 0.70940  0.76490  0.18040  Biso   1.000  C
  C157     1.0000 0.98510  0.95940  0.43040  Biso   1.000  C
  C158     1.0000 0.79060  0.23510  0.68040  Biso   1.000  C
  C159     1.0000 0.01490  0.54060  0.43040  Biso   1.000  C
  C160     1.0000 0.20940  0.26490  0.68040  Biso   1.000  C
  H145     1.0000 0.53570  0.59400  0.05220  Biso   1.000  H
  H146     1.0000 0.15600  0.78570  0.30220  Biso   1.000  H
  H147     1.0000 0.46430  0.90600  0.05220  Biso   1.000  H
  H148     1.0000 0.84400  0.71430  0.30220  Biso   1.000  H
  H149     1.0000 0.03570  0.09400  0.55220  Biso   1.000  H
  H150     1.0000 0.65600  0.28570  0.80220  Biso   1.000  H
  H151     1.0000 0.96430  0.40600  0.55220  Biso   1.000  H
  H152     1.0000 0.34400  0.21430  0.80220  Biso   1.000  H
  H153     1.0000 0.46430  0.40600  0.94780  Biso   1.000  H
  H154     1.0000 0.34400  0.71430  0.19780  Biso   1.000  H
  H155     1.0000 0.53570  0.09400  0.94780  Biso   1.000  H
  H156     1.0000 0.65600  0.78570  0.19780  Biso   1.000  H
  H157     1.0000 0.96430  0.90600  0.44780  Biso   1.000  H
  H158     1.0000 0.84400  0.21430  0.69780  Biso   1.000  H
  H159     1.0000 0.03570  0.59400  0.44780  Biso   1.000  H
  H160     1.0000 0.15600  0.28570  0.69780  Biso   1.000  H
  H161     1.0000 0.51280  0.54140  0.12600  Biso   1.000  H
  H162     1.0000 0.20860  0.76280  0.37600  Biso   1.000  H
  H163     1.0000 0.48720  0.95860  0.12600  Biso   1.000  H
  H164     1.0000 0.79140  0.73720  0.37600  Biso   1.000  H
  H165     1.0000 0.01280  0.04140  0.62600  Biso   1.000  H
  H166     1.0000 0.70860  0.26280  0.87600  Biso   1.000  H
  H167     1.0000 0.98720  0.45860  0.62600  Biso   1.000  H
  H168     1.0000 0.29140  0.23720  0.87600  Biso   1.000  H
  H169     1.0000 0.48720  0.45860  0.87400  Biso   1.000  H
  H170     1.0000 0.29140  0.73720  0.12400  Biso   1.000  H
  H171     1.0000 0.51280  0.04140  0.87400  Biso   1.000  H
  H172     1.0000 0.70860  0.76280  0.12400  Biso   1.000  H
  H173     1.0000 0.98720  0.95860  0.37400  Biso   1.000  H
  H174     1.0000 0.79140  0.23720  0.62400  Biso   1.000  H
  H175     1.0000 0.01280  0.54140  0.37400  Biso   1.000  H
  H176     1.0000 0.20860  0.26280  0.62400  Biso   1.000  H
  C161     1.0000 0.99790  0.68310  0.17060  Biso   1.000  C
  C162     1.0000 0.06690  0.24790  0.42060  Biso   1.000  C
  C163     1.0000 0.00210  0.81690  0.17060  Biso   1.000  C
  C164     1.0000 0.93310  0.25210  0.42060  Biso   1.000  C
  C165     1.0000 0.49790  0.18310  0.67060  Biso   1.000  C
  C166     1.0000 0.56690  0.74790  0.92060  Biso   1.000  C
  C167     1.0000 0.50210  0.31690  0.67060  Biso   1.000  C
  C168     1.0000 0.43310  0.75210  0.92060  Biso   1.000  C
  C169     1.0000 0.00210  0.31690  0.82940  Biso   1.000  C
  C170     1.0000 0.43310  0.25210  0.07940  Biso   1.000  C
  C171     1.0000 0.99790  0.18310  0.82940  Biso   1.000  C
  C172     1.0000 0.56690  0.24790  0.07940  Biso   1.000  C
  C173     1.0000 0.50210  0.81690  0.32940  Biso   1.000  C
  C174     1.0000 0.93310  0.75210  0.57940  Biso   1.000  C
  C175     1.0000 0.49790  0.68310  0.32940  Biso   1.000  C
  C176     1.0000 0.06690  0.74790  0.57940  Biso   1.000  C
  O73      1.0000 0.00000  0.25000  0.03880  Biso   1.000  O
  O74      1.0000 0.50000  0.25000  0.28880  Biso   1.000  O
  O75      1.0000 0.50000  0.75000  0.53880  Biso   1.000  O
  O76      1.0000 0.00000  0.75000  0.78880  Biso   1.000  O
  O77      1.0000 0.00000  0.75000  0.96120  Biso   1.000  O
  O78      1.0000 0.00000  0.25000  0.21120  Biso   1.000  O
  O79      1.0000 0.50000  0.25000  0.46120  Biso   1.000  O
  O80      1.0000 0.50000  0.75000  0.71120  Biso   1.000  O
  H177     1.0000 0.98030  0.22030  0.00220  Biso   1.000  H
  H178     1.0000 0.52970  0.23030  0.25220  Biso   1.000  H
  H179     1.0000 0.01970  0.27970  0.00220  Biso   1.000  H
  H180     1.0000 0.47030  0.26970  0.25220  Biso   1.000  H
  H181     1.0000 0.48030  0.72030  0.50220  Biso   1.000  H
  H182     1.0000 0.02970  0.73030  0.75220  Biso   1.000  H
  H183     1.0000 0.51970  0.77970  0.50220  Biso   1.000  H
  H184     1.0000 0.97030  0.76970  0.75220  Biso   1.000  H
  H185     1.0000 0.01970  0.77970  0.99780  Biso   1.000  H
  H186     1.0000 0.97030  0.26970  0.24780  Biso   1.000  H
  H187     1.0000 0.98030  0.72030  0.99780  Biso   1.000  H
  H188     1.0000 0.02970  0.23030  0.24780  Biso   1.000  H
  H189     1.0000 0.51970  0.27970  0.49780  Biso   1.000  H
  H190     1.0000 0.47030  0.76970  0.74780  Biso   1.000  H
  H191     1.0000 0.48030  0.22030  0.49780  Biso   1.000  H
  H192     1.0000 0.52970  0.73030  0.74780  Biso   1.000  H
  H193     1.0000 0.04810  0.23220  0.05130  Biso   1.000  H
  H194     1.0000 0.51780  0.29810  0.30130  Biso   1.000  H
  H195     1.0000 0.95190  0.26780  0.05130  Biso   1.000  H
  H196     1.0000 0.48220  0.20190  0.30130  Biso   1.000  H
  H197     1.0000 0.54810  0.73220  0.55130  Biso   1.000  H
  H198     1.0000 0.01780  0.79810  0.80130  Biso   1.000  H
  H199     1.0000 0.45190  0.76780  0.55130  Biso   1.000  H
  H200     1.0000 0.98220  0.70190  0.80130  Biso   1.000  H
  H201     1.0000 0.95190  0.76780  0.94870  Biso   1.000  H
  H202     1.0000 0.98220  0.20190  0.19870  Biso   1.000  H
  H203     1.0000 0.04810  0.73220  0.94870  Biso   1.000  H
  H204     1.0000 0.01780  0.29810  0.19870  Biso   1.000  H
  H205     1.0000 0.45190  0.26780  0.44870  Biso   1.000  H
  H206     1.0000 0.48220  0.70190  0.69870  Biso   1.000  H
  H207     1.0000 0.54810  0.23220  0.44870  Biso   1.000  H
  H208     1.0000 0.51780  0.79810  0.69870  Biso   1.000  H
