data_image0
_cell_length_a       6.4108
_cell_length_b       7.9773
_cell_length_c       11.4761
_cell_angle_alpha    75.183
_cell_angle_beta     85.61
_cell_angle_gamma    84.775

_symmetry_space_group_name_H-M    "P 1"
_symmetry_int_tables_number       1

loop_
  _symmetry_equiv_pos_as_xyz
  'x, y, z'

loop_
  _atom_site_label
  _atom_site_occupancy
  _atom_site_fract_x
  _atom_site_fract_y
  _atom_site_fract_z
  _atom_site_thermal_displace_type
  _atom_site_B_iso_or_equiv
  _atom_site_type_symbol
  Cu1      1.0000 0.50000  0.50000  0.50000  Biso   1.000  Cu
  O1       1.0000 0.31250  0.70175  0.43267  Biso   1.000  O
  O2       1.0000 0.68750  0.29825  0.56733  Biso   1.000  O
  O3       1.0000 0.03200  0.77990  0.32119  Biso   1.000  O
  O4       1.0000 0.96800  0.22010  0.67881  Biso   1.000  O
  O5       1.0000 0.89870  0.58820  0.13516  Biso   1.000  O
  O6       1.0000 0.10130  0.41180  0.86484  Biso   1.000  O
  O7       1.0000 0.65400  0.54150  0.28819  Biso   1.000  O
  O8       1.0000 0.34600  0.45850  0.71181  Biso   1.000  O
  N1       1.0000 0.29300  0.37240  0.44512  Biso   1.000  N
  N2       1.0000 0.70700  0.62760  0.55488  Biso   1.000  N
  N3       1.0000 0.00150  0.24340  0.33188  Biso   1.000  N
  N4       1.0000 0.99850  0.75660  0.66812  Biso   1.000  N
  C1       1.0000 0.16080  0.67140  0.37567  Biso   1.000  C
  C2       1.0000 0.83920  0.32860  0.62433  Biso   1.000  C
  C3       1.0000 0.14710  0.48070  0.38035  Biso   1.000  C
  C4       1.0000 0.85290  0.51930  0.61965  Biso   1.000  C
  C5       1.0000 0.29270  0.20250  0.45650  Biso   1.000  C
  C6       1.0000 0.70730  0.79750  0.54350  Biso   1.000  C
  H1       1.0000 0.39250  0.12440  0.50400  Biso   1.000  H
  H2       1.0000 0.60750  0.87560  0.49600  Biso   1.000  H
  C7       1.0000 0.14560  0.13890  0.39850  Biso   1.000  C
  C8       1.0000 0.85440  0.86110  0.60150  Biso   1.000  C
  H3       1.0000 0.14820  0.01710  0.40680  Biso   1.000  H
  H4       1.0000 0.85180  0.98290  0.59320  Biso   1.000  H
  C9       1.0000 0.00030  0.41490  0.32351  Biso   1.000  C
  C10      1.0000 0.99970  0.58510  0.67649  Biso   1.000  C
  C11      1.0000 0.83640  0.52770  0.24280  Biso   1.000  C
  C12      1.0000 0.16360  0.47230  0.75720  Biso   1.000  C
  N5       1.0000 0.39650  0.22200  0.01429  Biso   1.000  N
  N6       1.0000 0.60350  0.77800  0.98571  Biso   1.000  N
  H5       1.0000 0.29700  0.27280  0.97000  Biso   1.000  H
  H6       1.0000 0.70300  0.72720  0.03000  Biso   1.000  H
  N7       1.0000 0.64080  0.40190  0.89930  Biso   1.000  N
  N8       1.0000 0.35920  0.59810  0.10070  Biso   1.000  N
  H7       1.0000 0.55930  0.41720  0.83810  Biso   1.000  H
  H8       1.0000 0.44070  0.58280  0.16190  Biso   1.000  H
  H9       1.0000 0.77910  0.41700  0.88380  Biso   1.000  H
  H10      1.0000 0.22090  0.58300  0.11620  Biso   1.000  H
  C13      1.0000 0.34020  0.09020  0.10930  Biso   1.000  C
  C14      1.0000 0.65980  0.90980  0.89070  Biso   1.000  C
  H11      1.0000 0.20110  0.05510  0.11750  Biso   1.000  H
  H12      1.0000 0.79890  0.94490  0.88250  Biso   1.000  H
  C15      1.0000 0.47930  0.00770  0.19300  Biso   1.000  C
  C16      1.0000 0.52070  0.99230  0.80700  Biso   1.000  C
  H13      1.0000 0.44060  0.91310  0.25770  Biso   1.000  H
  H14      1.0000 0.55940  0.08690  0.74230  Biso   1.000  H
  C17      1.0000 0.68310  0.06690  0.18070  Biso   1.000  C
  C18      1.0000 0.31690  0.93310  0.81930  Biso   1.000  C
  H15      1.0000 0.78250  0.01330  0.23880  Biso   1.000  H
  H16      1.0000 0.21750  0.98670  0.76120  Biso   1.000  H
  C19      1.0000 0.73760  0.20040  0.08590  Biso   1.000  C
  C20      1.0000 0.26240  0.79960  0.91410  Biso   1.000  C
  H17      1.0000 0.87330  0.24200  0.07950  Biso   1.000  H
  H18      1.0000 0.12670  0.75800  0.92050  Biso   1.000  H
  C21      1.0000 0.59260  0.27750  0.99700  Biso   1.000  C
  C22      1.0000 0.40740  0.72250  0.00300  Biso   1.000  C
