data_image0
_cell_length_a       7.371
_cell_length_b       12.71
_cell_length_c       13.204
_cell_angle_alpha    111.397
_cell_angle_beta     97.088
_cell_angle_gamma    97.937

_symmetry_space_group_name_H-M    "P 1"
_symmetry_int_tables_number       1

loop_
  _symmetry_equiv_pos_as_xyz
  'x, y, z'

loop_
  _atom_site_label
  _atom_site_occupancy
  _atom_site_fract_x
  _atom_site_fract_y
  _atom_site_fract_z
  _atom_site_thermal_displace_type
  _atom_site_B_iso_or_equiv
  _atom_site_type_symbol
  Cu1      1.0000 0.86466  0.65337  0.94169  Biso   1.000  Cu
  Cu2      1.0000 0.13534  0.34663  0.05831  Biso   1.000  Cu
  Cu3      1.0000 0.76010  0.45098  0.62326  Biso   1.000  Cu
  Cu4      1.0000 0.23990  0.54902  0.37674  Biso   1.000  Cu
  O1       1.0000 0.78160  0.48764  0.91939  Biso   1.000  O
  O2       1.0000 0.21840  0.51236  0.08061  Biso   1.000  O
  O3       1.0000 0.73790  0.56738  0.55323  Biso   1.000  O
  O4       1.0000 0.26210  0.43262  0.44677  Biso   1.000  O
  O5       1.0000 0.98600  0.54526  0.72493  Biso   1.000  O
  O6       1.0000 0.01400  0.45474  0.27507  Biso   1.000  O
  O7       1.0000 0.12850  0.42358  0.77726  Biso   1.000  O
  O8       1.0000 0.87150  0.57642  0.22274  Biso   1.000  O
  O9       1.0000 0.71570  0.70148  0.10529  Biso   1.000  O
  O10      1.0000 0.28430  0.29852  0.89471  Biso   1.000  O
  O11      1.0000 0.93870  0.34337  0.50388  Biso   1.000  O
  O12      1.0000 0.06130  0.65663  0.49612  Biso   1.000  O
  N1       1.0000 0.90950  0.35979  0.97934  Biso   1.000  N
  N2       1.0000 0.09050  0.64021  0.02066  Biso   1.000  N
  N3       1.0000 0.98830  0.18154  0.01543  Biso   1.000  N
  N4       1.0000 0.01170  0.81846  0.98457  Biso   1.000  N
  H1       1.0000 0.00270  0.16183  0.07442  Biso   1.000  H
  H2       1.0000 0.99730  0.83817  0.92558  Biso   1.000  H
  H3       1.0000 0.03280  0.13158  0.96101  Biso   1.000  H
  H4       1.0000 0.96720  0.86842  0.03899  Biso   1.000  H
  N5       1.0000 0.49690  0.60720  0.44918  Biso   1.000  N
  N6       1.0000 0.50310  0.39280  0.55082  Biso   1.000  N
  N7       1.0000 0.63810  0.65547  0.84608  Biso   1.000  N
  N8       1.0000 0.36190  0.34453  0.15392  Biso   1.000  N
  N9       1.0000 0.28820  0.67871  0.32469  Biso   1.000  N
  N10      1.0000 0.71180  0.32129  0.67531  Biso   1.000  N
  H5       1.0000 0.18540  0.70885  0.32036  Biso   1.000  H
  H6       1.0000 0.81460  0.29115  0.67964  Biso   1.000  H
  H7       1.0000 0.31880  0.65284  0.25716  Biso   1.000  H
  H8       1.0000 0.68120  0.34716  0.74284  Biso   1.000  H
  C1       1.0000 0.90880  0.45650  0.97011  Biso   1.000  C
  C2       1.0000 0.09120  0.54350  0.02989  Biso   1.000  C
  C3       1.0000 0.76040  0.25830  0.92820  Biso   1.000  C
  C4       1.0000 0.23960  0.74170  0.07180  Biso   1.000  C
  H9       1.0000 0.64260  0.28070  0.93800  Biso   1.000  H
  H10      1.0000 0.35740  0.71930  0.06200  Biso   1.000  H
  H11      1.0000 0.75910  0.22230  0.85020  Biso   1.000  H
  H12      1.0000 0.24090  0.77770  0.14980  Biso   1.000  H
  C5       1.0000 0.79120  0.17590  0.97810  Biso   1.000  C
  C6       1.0000 0.20880  0.82410  0.02190  Biso   1.000  C
  H13      1.0000 0.74680  0.20540  0.04640  Biso   1.000  H
  H14      1.0000 0.25320  0.79460  0.95360  Biso   1.000  H
  C7       1.0000 0.67400  0.05810  0.92100  Biso   1.000  C
  C8       1.0000 0.32600  0.94190  0.07900  Biso   1.000  C
  H15      1.0000 0.70160  0.01030  0.96050  Biso   1.000  H
  H16      1.0000 0.29840  0.98970  0.03950  Biso   1.000  H
  H17      1.0000 0.70250  0.02600  0.84820  Biso   1.000  H
  H18      1.0000 0.29750  0.97400  0.15180  Biso   1.000  H
  H19      1.0000 0.54410  0.06170  0.91510  Biso   1.000  H
  H20      1.0000 0.45590  0.93830  0.08490  Biso   1.000  H
  C9       1.0000 0.57000  0.55020  0.50142  Biso   1.000  C
  C10      1.0000 0.43000  0.44980  0.49858  Biso   1.000  C
  C11      1.0000 0.59300  0.70870  0.43690  Biso   1.000  C
  C12      1.0000 0.40700  0.29130  0.56310  Biso   1.000  C
  H21      1.0000 0.67620  0.75880  0.50460  Biso   1.000  H
  H22      1.0000 0.32380  0.24120  0.49540  Biso   1.000  H
  H23      1.0000 0.66370  0.68650  0.37890  Biso   1.000  H
  H24      1.0000 0.33630  0.31350  0.62110  Biso   1.000  H
  C13      1.0000 0.44380  0.76830  0.40660  Biso   1.000  C
  C14      1.0000 0.55620  0.23170  0.59340  Biso   1.000  C
  H25      1.0000 0.39570  0.80480  0.47230  Biso   1.000  H
  H26      1.0000 0.60430  0.19520  0.52770  Biso   1.000  H
  C15      1.0000 0.51750  0.86120  0.37000  Biso   1.000  C
  C16      1.0000 0.48250  0.13880  0.63000  Biso   1.000  C
  H27      1.0000 0.41980  0.89790  0.35230  Biso   1.000  H
  H28      1.0000 0.58020  0.10210  0.64770  Biso   1.000  H
  H29      1.0000 0.56960  0.82670  0.30540  Biso   1.000  H
  H30      1.0000 0.43040  0.17330  0.69460  Biso   1.000  H
  H31      1.0000 0.61310  0.91740  0.42780  Biso   1.000  H
  H32      1.0000 0.38690  0.08260  0.57220  Biso   1.000  H
  C17      1.0000 0.31770  0.67090  0.72480  Biso   1.000  C
  C18      1.0000 0.68230  0.32910  0.27520  Biso   1.000  C
  H33      1.0000 0.20570  0.67730  0.68390  Biso   1.000  H
  H34      1.0000 0.79430  0.32270  0.31610  Biso   1.000  H
  C19      1.0000 0.48560  0.73950  0.73340  Biso   1.000  C
  C20      1.0000 0.51440  0.26050  0.26660  Biso   1.000  C
  H35      1.0000 0.49240  0.79430  0.69900  Biso   1.000  H
  H36      1.0000 0.50760  0.20570  0.30100  Biso   1.000  H
  C21      1.0000 0.64320  0.72800  0.79300  Biso   1.000  C
  C22      1.0000 0.35680  0.27200  0.20700  Biso   1.000  C
  H37      1.0000 0.76140  0.77370  0.79770  Biso   1.000  H
  H38      1.0000 0.23860  0.22630  0.20230  Biso   1.000  H
  C23      1.0000 0.47350  0.58680  0.83458  Biso   1.000  C
  C24      1.0000 0.52650  0.41320  0.16542  Biso   1.000  C
  H39      1.0000 0.47000  0.53290  0.87003  Biso   1.000  H
  H40      1.0000 0.53000  0.46710  0.12997  Biso   1.000  H
  C25      1.0000 0.31110  0.59130  0.77380  Biso   1.000  C
  C26      1.0000 0.68890  0.40870  0.22620  Biso   1.000  C
  C27      1.0000 0.12920  0.51120  0.75829  Biso   1.000  C
  C28      1.0000 0.87080  0.48880  0.24171  Biso   1.000  C
  H41      1.0000 0.04470  0.36650  0.50020  Biso   1.000  H
  H42      1.0000 0.95530  0.63350  0.49980  Biso   1.000  H
  H43      1.0000 0.96330  0.30090  0.52000  Biso   1.000  H
  H44      1.0000 0.03670  0.69910  0.48000  Biso   1.000  H
  H45      1.0000 0.73640  0.65680  0.13710  Biso   1.000  H
  H46      1.0000 0.26360  0.34320  0.86290  Biso   1.000  H
  H47      1.0000 0.75250  0.76770  0.15720  Biso   1.000  H
  H48      1.0000 0.24750  0.23230  0.84280  Biso   1.000  H
  Cl1      1.0000 0.91348  0.04479  0.26513  Biso   1.000  Cl
  Cl2      1.0000 0.08652  0.95521  0.73487  Biso   1.000  Cl
  O13      1.0000 0.77360  0.08290  0.31830  Biso   1.000  O
  O14      1.0000 0.22640  0.91710  0.68170  Biso   1.000  O
  O15      1.0000 0.09750  0.11330  0.31480  Biso   1.000  O
  O16      1.0000 0.90250  0.88670  0.68520  Biso   1.000  O
  O17      1.0000 0.92880  0.93010  0.25030  Biso   1.000  O
  O18      1.0000 0.07120  0.06990  0.74970  Biso   1.000  O
  O19      1.0000 0.88880  0.04430  0.15960  Biso   1.000  O
  O20      1.0000 0.11120  0.95570  0.84040  Biso   1.000  O
  O21      1.0000 0.94410  0.14230  0.57830  Biso   1.000  O
  O22      1.0000 0.05590  0.85770  0.42170  Biso   1.000  O
  H49      1.0000 0.99520  0.14270  0.54000  Biso   1.000  H
  H50      1.0000 0.00480  0.85730  0.46000  Biso   1.000  H
  O23      1.0000 0.79530  0.08580  0.34570  Biso   1.000  O
  O24      1.0000 0.20470  0.91420  0.65430  Biso   1.000  O
  O25      1.0000 0.81440  0.94620  0.17470  Biso   1.000  O
  O26      1.0000 0.18560  0.05380  0.82530  Biso   1.000  O
  O27      1.0000 0.96620  0.12800  0.22430  Biso   1.000  O
  O28      1.0000 0.03380  0.87200  0.77570  Biso   1.000  O
  O29      1.0000 0.04850  0.01850  0.31700  Biso   1.000  O
  O30      1.0000 0.95150  0.98150  0.68300  Biso   1.000  O
