data_image0
_cell_length_a       9.892
_cell_length_b       7.606
_cell_length_c       9.108
_cell_angle_alpha    90
_cell_angle_beta     95.84
_cell_angle_gamma    90

_symmetry_space_group_name_H-M    "P 1"
_symmetry_int_tables_number       1

loop_
  _symmetry_equiv_pos_as_xyz
  'x, y, z'

loop_
  _atom_site_label
  _atom_site_occupancy
  _atom_site_fract_x
  _atom_site_fract_y
  _atom_site_fract_z
  _atom_site_thermal_displace_type
  _atom_site_B_iso_or_equiv
  _atom_site_type_symbol
  Cu1      1.0000 0.50000  0.00000  0.50000  Biso   1.000  Cu
  Cu2      1.0000 0.50000  0.50000  0.00000  Biso   1.000  Cu
  S1       1.0000 0.82827  0.58537  0.52505  Biso   1.000  S
  S2       1.0000 0.17173  0.08537  0.97495  Biso   1.000  S
  S3       1.0000 0.17173  0.41463  0.47495  Biso   1.000  S
  S4       1.0000 0.82827  0.91463  0.02505  Biso   1.000  S
  O1       1.0000 0.38750  0.82776  0.38135  Biso   1.000  O
  O2       1.0000 0.61250  0.32776  0.11865  Biso   1.000  O
  O3       1.0000 0.61250  0.17224  0.61865  Biso   1.000  O
  O4       1.0000 0.38750  0.67224  0.88135  Biso   1.000  O
  O5       1.0000 0.40879  0.59012  0.24030  Biso   1.000  O
  O6       1.0000 0.59121  0.09012  0.25970  Biso   1.000  O
  O7       1.0000 0.59121  0.40988  0.75970  Biso   1.000  O
  O8       1.0000 0.40879  0.90988  0.74030  Biso   1.000  O
  N1       1.0000 0.63769  0.81017  0.50904  Biso   1.000  N
  N2       1.0000 0.36231  0.31017  0.99096  Biso   1.000  N
  N3       1.0000 0.36231  0.18983  0.49096  Biso   1.000  N
  N4       1.0000 0.63769  0.68983  0.00904  Biso   1.000  N
  C1       1.0000 0.45323  0.69510  0.33800  Biso   1.000  C
  C2       1.0000 0.54677  0.19510  0.16200  Biso   1.000  C
  C3       1.0000 0.54677  0.30490  0.66200  Biso   1.000  C
  C4       1.0000 0.45323  0.80490  0.83800  Biso   1.000  C
  C5       1.0000 0.59388  0.67430  0.41538  Biso   1.000  C
  C6       1.0000 0.40612  0.17430  0.08462  Biso   1.000  C
  C7       1.0000 0.40612  0.32570  0.58462  Biso   1.000  C
  C8       1.0000 0.59388  0.82570  0.91538  Biso   1.000  C
  C9       1.0000 0.76060  0.78100  0.57390  Biso   1.000  C
  C10      1.0000 0.23940  0.28100  0.92610  Biso   1.000  C
  C11      1.0000 0.23940  0.21900  0.42610  Biso   1.000  C
  C12      1.0000 0.76060  0.71900  0.07390  Biso   1.000  C
  H1       1.0000 0.80720  0.86090  0.64150  Biso   1.000  H
  H2       1.0000 0.19280  0.36090  0.85850  Biso   1.000  H
  H3       1.0000 0.19280  0.13910  0.35850  Biso   1.000  H
  H4       1.0000 0.80720  0.63910  0.14150  Biso   1.000  H
  C13      1.0000 0.68439  0.54030  0.40980  Biso   1.000  C
  C14      1.0000 0.31561  0.04030  0.09020  Biso   1.000  C
  C15      1.0000 0.31561  0.45970  0.59020  Biso   1.000  C
  C16      1.0000 0.68439  0.95970  0.90980  Biso   1.000  C
  H5       1.0000 0.67010  0.43750  0.35100  Biso   1.000  H
  H6       1.0000 0.32990  0.93750  0.14900  Biso   1.000  H
  H7       1.0000 0.32990  0.56250  0.64900  Biso   1.000  H
  H8       1.0000 0.67010  0.06250  0.85100  Biso   1.000  H
  O9       1.0000 0.13732  0.64684  0.13000  Biso   1.000  O
  O10      1.0000 0.86268  0.14684  0.37000  Biso   1.000  O
  O11      1.0000 0.86268  0.35316  0.87000  Biso   1.000  O
  O12      1.0000 0.13732  0.85316  0.63000  Biso   1.000  O
  H9       1.0000 0.21100  0.62900  0.15900  Biso   1.000  H
  H10      1.0000 0.78900  0.12900  0.34100  Biso   1.000  H
  H11      1.0000 0.78900  0.37100  0.84100  Biso   1.000  H
  H12      1.0000 0.21100  0.87100  0.65900  Biso   1.000  H
  H13      1.0000 0.09200  0.57200  0.15500  Biso   1.000  H
  H14      1.0000 0.90800  0.07200  0.34500  Biso   1.000  H
  H15      1.0000 0.90800  0.42800  0.84500  Biso   1.000  H
  H16      1.0000 0.09200  0.92800  0.65500  Biso   1.000  H
  O13      1.0000 0.95675  0.38290  0.17112  Biso   1.000  O
  O14      1.0000 0.04325  0.88290  0.32888  Biso   1.000  O
  O15      1.0000 0.04325  0.61710  0.82888  Biso   1.000  O
  O16      1.0000 0.95675  0.11710  0.67112  Biso   1.000  O
  H17      1.0000 0.91700  0.36100  0.09400  Biso   1.000  H
  H18      1.0000 0.08300  0.86100  0.40600  Biso   1.000  H
  H19      1.0000 0.08300  0.63900  0.90600  Biso   1.000  H
  H20      1.0000 0.91700  0.13900  0.59400  Biso   1.000  H
  H21      1.0000 0.93000  0.32200  0.22900  Biso   1.000  H
  H22      1.0000 0.07000  0.82200  0.27100  Biso   1.000  H
  H23      1.0000 0.07000  0.67800  0.77100  Biso   1.000  H
  H24      1.0000 0.93000  0.17800  0.72900  Biso   1.000  H
