data_image0
_cell_length_a       18.787
_cell_length_b       10.576
_cell_length_c       9.097
_cell_angle_alpha    90
_cell_angle_beta     95.51
_cell_angle_gamma    90

_symmetry_space_group_name_H-M    "P 1"
_symmetry_int_tables_number       1

loop_
  _symmetry_equiv_pos_as_xyz
  'x, y, z'

loop_
  _atom_site_label
  _atom_site_occupancy
  _atom_site_fract_x
  _atom_site_fract_y
  _atom_site_fract_z
  _atom_site_thermal_displace_type
  _atom_site_B_iso_or_equiv
  _atom_site_type_symbol
  Cu1      1.0000 0.00000  0.00000  0.00000  Biso   1.000  Cu
  Cu2      1.0000 0.00000  0.50000  0.50000  Biso   1.000  Cu
  F1       1.0000 0.48370  0.26840  0.13800  Biso   1.000  F
  F2       1.0000 0.48370  0.23160  0.63800  Biso   1.000  F
  F3       1.0000 0.51630  0.73160  0.86200  Biso   1.000  F
  F4       1.0000 0.51630  0.76840  0.36200  Biso   1.000  F
  F5       1.0000 0.54125  0.30350  0.34351  Biso   1.000  F
  F6       1.0000 0.54125  0.19650  0.84351  Biso   1.000  F
  F7       1.0000 0.45875  0.69650  0.65649  Biso   1.000  F
  F8       1.0000 0.45875  0.80350  0.15649  Biso   1.000  F
  F9       1.0000 0.51021  0.45670  0.20750  Biso   1.000  F
  F10      1.0000 0.51021  0.04330  0.70750  Biso   1.000  F
  F11      1.0000 0.48979  0.54330  0.79250  Biso   1.000  F
  F12      1.0000 0.48979  0.95670  0.29250  Biso   1.000  F
  F13      1.0000 0.47660  0.38190  0.11000  Biso   1.000  F
  F14      1.0000 0.47660  0.11810  0.61000  Biso   1.000  F
  F15      1.0000 0.52340  0.61810  0.89000  Biso   1.000  F
  F16      1.0000 0.52340  0.88190  0.39000  Biso   1.000  F
  F17      1.0000 0.51370  0.22870  0.25000  Biso   1.000  F
  F18      1.0000 0.51370  0.27130  0.75000  Biso   1.000  F
  F19      1.0000 0.48630  0.77130  0.75000  Biso   1.000  F
  F20      1.0000 0.48630  0.72870  0.25000  Biso   1.000  F
  F21      1.0000 0.54080  0.41400  0.30700  Biso   1.000  F
  F22      1.0000 0.54080  0.08600  0.80700  Biso   1.000  F
  F23      1.0000 0.45920  0.58600  0.69300  Biso   1.000  F
  F24      1.0000 0.45920  0.91400  0.19300  Biso   1.000  F
  O1       1.0000 0.09151  0.96057  0.11629  Biso   1.000  O
  O2       1.0000 0.09151  0.53943  0.61629  Biso   1.000  O
  O3       1.0000 0.90849  0.03943  0.88371  Biso   1.000  O
  O4       1.0000 0.90849  0.46057  0.38371  Biso   1.000  O
  O5       1.0000 0.13098  0.15435  0.18099  Biso   1.000  O
  O6       1.0000 0.13098  0.34565  0.68099  Biso   1.000  O
  O7       1.0000 0.86902  0.84565  0.81901  Biso   1.000  O
  O8       1.0000 0.86902  0.65435  0.31901  Biso   1.000  O
  O9       1.0000 0.01778  0.22508  0.99894  Biso   1.000  O
  O10      1.0000 0.01778  0.27492  0.49894  Biso   1.000  O
  O11      1.0000 0.98222  0.77492  0.00106  Biso   1.000  O
  O12      1.0000 0.98222  0.72508  0.50106  Biso   1.000  O
  H1       1.0000 0.05110  0.22600  0.06000  Biso   1.000  H
  H2       1.0000 0.05110  0.27400  0.56000  Biso   1.000  H
  H3       1.0000 0.94890  0.77400  0.94000  Biso   1.000  H
  H4       1.0000 0.94890  0.72600  0.44000  Biso   1.000  H
  N1       1.0000 0.94888  0.48857  0.68601  Biso   1.000  N
  N2       1.0000 0.94888  0.01143  0.18601  Biso   1.000  N
  N3       1.0000 0.05112  0.51143  0.31399  Biso   1.000  N
  N4       1.0000 0.05112  0.98857  0.81399  Biso   1.000  N
  N5       1.0000 0.25187  0.17328  0.35426  Biso   1.000  N
  N6       1.0000 0.25187  0.32672  0.85426  Biso   1.000  N
  N7       1.0000 0.74813  0.82672  0.64574  Biso   1.000  N
  N8       1.0000 0.74813  0.67328  0.14574  Biso   1.000  N
  H5       1.0000 0.20880  0.19990  0.35750  Biso   1.000  H
  H6       1.0000 0.20880  0.30010  0.85750  Biso   1.000  H
  H7       1.0000 0.79120  0.80010  0.64250  Biso   1.000  H
  H8       1.0000 0.79120  0.69990  0.14250  Biso   1.000  H
  C1       1.0000 0.88798  0.55209  0.69550  Biso   1.000  C
  C2       1.0000 0.88798  0.94791  0.19550  Biso   1.000  C
  C3       1.0000 0.11202  0.44791  0.30450  Biso   1.000  C
  C4       1.0000 0.11202  0.05209  0.80450  Biso   1.000  C
  H9       1.0000 0.87250  0.60760  0.61980  Biso   1.000  H
  H10      1.0000 0.87250  0.89240  0.11980  Biso   1.000  H
  H11      1.0000 0.12750  0.39240  0.38020  Biso   1.000  H
  H12      1.0000 0.12750  0.10760  0.88020  Biso   1.000  H
  C5       1.0000 0.84710  0.53881  0.81270  Biso   1.000  C
  C6       1.0000 0.84710  0.96119  0.31270  Biso   1.000  C
  C7       1.0000 0.15290  0.46119  0.18730  Biso   1.000  C
  C8       1.0000 0.15290  0.03881  0.68730  Biso   1.000  C
  H13      1.0000 0.80520  0.58510  0.81670  Biso   1.000  H
  H14      1.0000 0.80520  0.91490  0.31670  Biso   1.000  H
  H15      1.0000 0.19480  0.41490  0.18330  Biso   1.000  H
  H16      1.0000 0.19480  0.08510  0.68330  Biso   1.000  H
  C9       1.0000 0.86998  0.45455  0.92480  Biso   1.000  C
  C10      1.0000 0.86998  0.04545  0.42480  Biso   1.000  C
  C11      1.0000 0.13002  0.54545  0.07520  Biso   1.000  C
  C12      1.0000 0.13002  0.95455  0.57520  Biso   1.000  C
  H17      1.0000 0.84250  0.44130  0.00320  Biso   1.000  H
  H18      1.0000 0.84250  0.05870  0.50320  Biso   1.000  H
  H19      1.0000 0.15750  0.55870  0.99680  Biso   1.000  H
  H20      1.0000 0.15750  0.94130  0.49680  Biso   1.000  H
  C13      1.0000 0.93426  0.39022  0.91878  Biso   1.000  C
  C14      1.0000 0.93426  0.10978  0.41878  Biso   1.000  C
  C15      1.0000 0.06574  0.60978  0.08122  Biso   1.000  C
  C16      1.0000 0.06574  0.89022  0.58122  Biso   1.000  C
  C17      1.0000 0.97195  0.41004  0.79821  Biso   1.000  C
  C18      1.0000 0.97195  0.08996  0.29821  Biso   1.000  C
  C19      1.0000 0.02805  0.58996  0.20179  Biso   1.000  C
  C20      1.0000 0.02805  0.91004  0.70179  Biso   1.000  C
  H21      1.0000 0.01510  0.36770  0.79370  Biso   1.000  H
  H22      1.0000 0.01510  0.13230  0.29370  Biso   1.000  H
  H23      1.0000 0.98490  0.63230  0.20630  Biso   1.000  H
  H24      1.0000 0.98490  0.86770  0.70630  Biso   1.000  H
  C21      1.0000 0.95993  0.30018  0.04045  Biso   1.000  C
  C22      1.0000 0.95993  0.19982  0.54045  Biso   1.000  C
  C23      1.0000 0.04007  0.69982  0.95955  Biso   1.000  C
  C24      1.0000 0.04007  0.80018  0.45955  Biso   1.000  C
  H25      1.0000 0.92090  0.24550  0.06230  Biso   1.000  H
  H26      1.0000 0.92090  0.25450  0.56230  Biso   1.000  H
  H27      1.0000 0.07910  0.75450  0.93770  Biso   1.000  H
  H28      1.0000 0.07910  0.74550  0.43770  Biso   1.000  H
  H29      1.0000 0.97540  0.34760  0.12910  Biso   1.000  H
  H30      1.0000 0.97540  0.15240  0.62910  Biso   1.000  H
  H31      1.0000 0.02460  0.65240  0.87090  Biso   1.000  H
  H32      1.0000 0.02460  0.84760  0.37090  Biso   1.000  H
  C25      1.0000 0.13859  0.03582  0.17650  Biso   1.000  C
  C26      1.0000 0.13859  0.46418  0.67650  Biso   1.000  C
  C27      1.0000 0.86141  0.96418  0.82350  Biso   1.000  C
  C28      1.0000 0.86141  0.53582  0.32350  Biso   1.000  C
  C29      1.0000 0.20618  0.97552  0.24510  Biso   1.000  C
  C30      1.0000 0.20618  0.52448  0.74510  Biso   1.000  C
  C31      1.0000 0.79382  0.02448  0.75490  Biso   1.000  C
  C32      1.0000 0.79382  0.47552  0.25490  Biso   1.000  C
  C33      1.0000 0.21508  0.84523  0.22840  Biso   1.000  C
  C34      1.0000 0.21508  0.65477  0.72840  Biso   1.000  C
  C35      1.0000 0.78492  0.15477  0.77160  Biso   1.000  C
  C36      1.0000 0.78492  0.34523  0.27160  Biso   1.000  C
  H33      1.0000 0.17990  0.79960  0.17240  Biso   1.000  H
  H34      1.0000 0.17990  0.70040  0.67240  Biso   1.000  H
  H35      1.0000 0.82010  0.20040  0.82760  Biso   1.000  H
  H36      1.0000 0.82010  0.29960  0.32760  Biso   1.000  H
  C37      1.0000 0.27481  0.78190  0.29300  Biso   1.000  C
  C38      1.0000 0.27481  0.71810  0.79300  Biso   1.000  C
  C39      1.0000 0.72519  0.21810  0.70700  Biso   1.000  C
  C40      1.0000 0.72519  0.28190  0.20700  Biso   1.000  C
  H37      1.0000 0.27990  0.69530  0.28020  Biso   1.000  H
  H38      1.0000 0.27990  0.80470  0.78020  Biso   1.000  H
  H39      1.0000 0.72010  0.30470  0.71980  Biso   1.000  H
  H40      1.0000 0.72010  0.19530  0.21980  Biso   1.000  H
  C41      1.0000 0.32692  0.85100  0.37700  Biso   1.000  C
  C42      1.0000 0.32692  0.64900  0.87700  Biso   1.000  C
  C43      1.0000 0.67308  0.14900  0.62300  Biso   1.000  C
  C44      1.0000 0.67308  0.35100  0.12300  Biso   1.000  C
  H41      1.0000 0.36690  0.80950  0.42210  Biso   1.000  H
  H42      1.0000 0.36690  0.69050  0.92210  Biso   1.000  H
  H43      1.0000 0.63310  0.19050  0.57790  Biso   1.000  H
  H44      1.0000 0.63310  0.30950  0.07790  Biso   1.000  H
  C45      1.0000 0.32037  0.97985  0.39480  Biso   1.000  C
  C46      1.0000 0.32037  0.52015  0.89480  Biso   1.000  C
  C47      1.0000 0.67963  0.02015  0.60520  Biso   1.000  C
  C48      1.0000 0.67963  0.47985  0.10520  Biso   1.000  C
  H45      1.0000 0.35610  0.02390  0.45120  Biso   1.000  H
  H46      1.0000 0.35610  0.47610  0.95120  Biso   1.000  H
  H47      1.0000 0.64390  0.97610  0.54880  Biso   1.000  H
  H48      1.0000 0.64390  0.52390  0.04880  Biso   1.000  H
  C49      1.0000 0.26066  0.04548  0.32900  Biso   1.000  C
  C50      1.0000 0.26066  0.45452  0.82900  Biso   1.000  C
  C51      1.0000 0.73934  0.95452  0.67100  Biso   1.000  C
  C52      1.0000 0.73934  0.54548  0.17100  Biso   1.000  C
  C53      1.0000 0.30710  0.26434  0.37520  Biso   1.000  C
  C54      1.0000 0.30710  0.23566  0.87520  Biso   1.000  C
  C55      1.0000 0.69290  0.73566  0.62480  Biso   1.000  C
  C56      1.0000 0.69290  0.76434  0.12480  Biso   1.000  C
  C57      1.0000 0.29450  0.37133  0.45920  Biso   1.000  C
  C58      1.0000 0.29450  0.12867  0.95920  Biso   1.000  C
  C59      1.0000 0.70550  0.62867  0.54080  Biso   1.000  C
  C60      1.0000 0.70550  0.87133  0.04080  Biso   1.000  C
  H49      1.0000 0.25290  0.37640  0.50660  Biso   1.000  H
  H50      1.0000 0.25290  0.12360  0.00660  Biso   1.000  H
  H51      1.0000 0.74710  0.62360  0.49340  Biso   1.000  H
  H52      1.0000 0.74710  0.87640  0.99340  Biso   1.000  H
  C61      1.0000 0.34337  0.47003  0.47270  Biso   1.000  C
  C62      1.0000 0.34337  0.02997  0.97270  Biso   1.000  C
  C63      1.0000 0.65663  0.52997  0.52730  Biso   1.000  C
  C64      1.0000 0.65663  0.97003  0.02730  Biso   1.000  C
  H53      1.0000 0.33420  0.54100  0.52820  Biso   1.000  H
  H54      1.0000 0.33420  0.95900  0.02820  Biso   1.000  H
  H55      1.0000 0.66580  0.45900  0.47180  Biso   1.000  H
  H56      1.0000 0.66580  0.04100  0.97180  Biso   1.000  H
  C65      1.0000 0.40597  0.46290  0.40350  Biso   1.000  C
  C66      1.0000 0.40597  0.03710  0.90350  Biso   1.000  C
  C67      1.0000 0.59403  0.53710  0.59650  Biso   1.000  C
  C68      1.0000 0.59403  0.96290  0.09650  Biso   1.000  C
  H57      1.0000 0.43860  0.52920  0.41090  Biso   1.000  H
  H58      1.0000 0.43860  0.97080  0.91090  Biso   1.000  H
  H59      1.0000 0.56140  0.47080  0.58910  Biso   1.000  H
  H60      1.0000 0.56140  0.02920  0.08910  Biso   1.000  H
  C69      1.0000 0.41912  0.35490  0.32300  Biso   1.000  C
  C70      1.0000 0.41912  0.14510  0.82300  Biso   1.000  C
  C71      1.0000 0.58088  0.64510  0.67700  Biso   1.000  C
  C72      1.0000 0.58088  0.85490  0.17700  Biso   1.000  C
  C73      1.0000 0.37052  0.25563  0.30800  Biso   1.000  C
  C74      1.0000 0.37052  0.24437  0.80800  Biso   1.000  C
  C75      1.0000 0.62948  0.74437  0.69200  Biso   1.000  C
  C76      1.0000 0.62948  0.75563  0.19200  Biso   1.000  C
  H61      1.0000 0.38020  0.18420  0.25380  Biso   1.000  H
  H62      1.0000 0.38020  0.31580  0.75380  Biso   1.000  H
  H63      1.0000 0.61980  0.81580  0.74620  Biso   1.000  H
  H64      1.0000 0.61980  0.68420  0.24620  Biso   1.000  H
  C77      1.0000 0.48707  0.34580  0.25130  Biso   1.000  C
  C78      1.0000 0.48707  0.15420  0.75130  Biso   1.000  C
  C79      1.0000 0.51293  0.65420  0.74870  Biso   1.000  C
  C80      1.0000 0.51293  0.84580  0.24870  Biso   1.000  C
