data_image0
_cell_length_a       6.289
_cell_length_b       7.679
_cell_length_c       12.686
_cell_angle_alpha    76.147
_cell_angle_beta     88.002
_cell_angle_gamma    70.902

_symmetry_space_group_name_H-M    "P 1"
_symmetry_int_tables_number       1

loop_
  _symmetry_equiv_pos_as_xyz
  'x, y, z'

loop_
  _atom_site_label
  _atom_site_occupancy
  _atom_site_fract_x
  _atom_site_fract_y
  _atom_site_fract_z
  _atom_site_thermal_displace_type
  _atom_site_B_iso_or_equiv
  _atom_site_type_symbol
  Cu1      1.0000 0.00000  0.00000  0.00000  Biso   1.000  Cu
  O1       1.0000 0.09670  0.21880  0.96910  Biso   1.000  O
  O2       1.0000 0.90330  0.78120  0.03090  Biso   1.000  O
  O3       1.0000 0.34520  0.33500  0.87250  Biso   1.000  O
  O4       1.0000 0.65480  0.66500  0.12750  Biso   1.000  O
  O5       1.0000 0.57030  0.22310  0.66810  Biso   1.000  O
  O6       1.0000 0.42970  0.77690  0.33190  Biso   1.000  O
  H1       1.0000 0.64000  0.29510  0.64110  Biso   1.000  H
  H2       1.0000 0.36000  0.70490  0.35890  Biso   1.000  H
  O7       1.0000 0.82820  0.12860  0.80500  Biso   1.000  O
  O8       1.0000 0.17180  0.87140  0.19500  Biso   1.000  O
  O9       1.0000 0.70900  0.49770  0.59170  Biso   1.000  O
  O10      1.0000 0.29100  0.50230  0.40830  Biso   1.000  O
  N1       1.0000 0.26920  0.89110  0.92200  Biso   1.000  N
  N2       1.0000 0.73080  0.10890  0.07800  Biso   1.000  N
  N3       1.0000 0.63760  0.80560  0.79550  Biso   1.000  N
  N4       1.0000 0.36240  0.19440  0.20450  Biso   1.000  N
  N5       1.0000 0.94270  0.66650  0.59370  Biso   1.000  N
  N6       1.0000 0.05730  0.33350  0.40630  Biso   1.000  N
  C1       1.0000 0.26240  0.21020  0.90690  Biso   1.000  C
  C2       1.0000 0.73760  0.78980  0.09310  Biso   1.000  C
  C3       1.0000 0.36760  0.01970  0.87930  Biso   1.000  C
  C4       1.0000 0.63240  0.98030  0.12070  Biso   1.000  C
  C5       1.0000 0.54890  0.97860  0.81450  Biso   1.000  C
  C6       1.0000 0.45110  0.02140  0.18550  Biso   1.000  C
  C7       1.0000 0.66450  0.12060  0.76320  Biso   1.000  C
  C8       1.0000 0.33550  0.87940  0.23680  Biso   1.000  C
  C9       1.0000 0.35480  0.71670  0.90250  Biso   1.000  C
  C10      1.0000 0.64520  0.28330  0.09750  Biso   1.000  C
  H3       1.0000 0.28860  0.62430  0.93050  Biso   1.000  H
  H4       1.0000 0.71140  0.37570  0.06950  Biso   1.000  H
  C11      1.0000 0.53960  0.67720  0.84110  Biso   1.000  C
  C12      1.0000 0.46040  0.32280  0.15890  Biso   1.000  C
  H5       1.0000 0.60010  0.55510  0.83050  Biso   1.000  H
  H6       1.0000 0.39990  0.44490  0.16950  Biso   1.000  H
  C13      1.0000 0.81380  0.82390  0.50740  Biso   1.000  C
  C14      1.0000 0.18620  0.17610  0.49260  Biso   1.000  C
  H7       1.0000 0.70330  0.78800  0.47550  Biso   1.000  H
  H8       1.0000 0.29670  0.21200  0.52450  Biso   1.000  H
  H9       1.0000 0.91320  0.85650  0.45290  Biso   1.000  H
  H10      1.0000 0.08680  0.14350  0.54710  Biso   1.000  H
  H11      1.0000 0.73960  0.93150  0.53680  Biso   1.000  H
  H12      1.0000 0.26040  0.06850  0.46320  Biso   1.000  H
  C15      1.0000 0.13000  0.68600  0.64580  Biso   1.000  C
  C16      1.0000 0.87000  0.31400  0.35420  Biso   1.000  C
  H13      1.0000 0.18390  0.58250  0.70870  Biso   1.000  H
  H14      1.0000 0.81610  0.41750  0.29130  Biso   1.000  H
  H15      1.0000 0.08310  0.80390  0.66750  Biso   1.000  H
  H16      1.0000 0.91690  0.19610  0.33250  Biso   1.000  H
  H17      1.0000 0.24890  0.68450  0.59600  Biso   1.000  H
  H18      1.0000 0.75110  0.31550  0.40400  Biso   1.000  H
  C17      1.0000 0.87220  0.52010  0.62980  Biso   1.000  C
  C18      1.0000 0.12780  0.47990  0.37020  Biso   1.000  C
  H19      1.0000 0.95250  0.42630  0.68890  Biso   1.000  H
  H20      1.0000 0.04750  0.57370  0.31110  Biso   1.000  H
