data_image0
_cell_length_a       16.6884
_cell_length_b       10.9585
_cell_length_c       22.0082
_cell_angle_alpha    90
_cell_angle_beta     90
_cell_angle_gamma    90

_symmetry_space_group_name_H-M    "P 1"
_symmetry_int_tables_number       1

loop_
  _symmetry_equiv_pos_as_xyz
  'x, y, z'

loop_
  _atom_site_label
  _atom_site_occupancy
  _atom_site_fract_x
  _atom_site_fract_y
  _atom_site_fract_z
  _atom_site_thermal_displace_type
  _atom_site_B_iso_or_equiv
  _atom_site_type_symbol
  Cu1      1.0000 0.41822  0.26190  0.39912  Biso   1.000  Cu
  Cu2      1.0000 0.91822  0.26190  0.10088  Biso   1.000  Cu
  Cu3      1.0000 0.41822  0.23810  0.89912  Biso   1.000  Cu
  Cu4      1.0000 0.08178  0.76190  0.39912  Biso   1.000  Cu
  Cu5      1.0000 0.58178  0.73810  0.60088  Biso   1.000  Cu
  Cu6      1.0000 0.08178  0.73810  0.89912  Biso   1.000  Cu
  Cu7      1.0000 0.58178  0.76190  0.10088  Biso   1.000  Cu
  Cu8      1.0000 0.91822  0.23810  0.60088  Biso   1.000  Cu
  O1       1.0000 0.49952  0.14450  0.33070  Biso   1.000  O
  O2       1.0000 0.99952  0.14450  0.16930  Biso   1.000  O
  O3       1.0000 0.49952  0.35550  0.83070  Biso   1.000  O
  O4       1.0000 0.00048  0.64450  0.33070  Biso   1.000  O
  O5       1.0000 0.50048  0.85550  0.66930  Biso   1.000  O
  O6       1.0000 0.00048  0.85550  0.83070  Biso   1.000  O
  O7       1.0000 0.50048  0.64450  0.16930  Biso   1.000  O
  O8       1.0000 0.99952  0.35550  0.66930  Biso   1.000  O
  O9       1.0000 0.46905  0.34030  0.32717  Biso   1.000  O
  O10      1.0000 0.96905  0.34030  0.17283  Biso   1.000  O
  O11      1.0000 0.46905  0.15970  0.82717  Biso   1.000  O
  O12      1.0000 0.03095  0.84030  0.32717  Biso   1.000  O
  O13      1.0000 0.53095  0.65970  0.67283  Biso   1.000  O
  O14      1.0000 0.03095  0.65970  0.82717  Biso   1.000  O
  O15      1.0000 0.53095  0.84030  0.17283  Biso   1.000  O
  O16      1.0000 0.96905  0.15970  0.67283  Biso   1.000  O
  O17      1.0000 0.81839  0.22440  0.14099  Biso   1.000  O
  O18      1.0000 0.31839  0.22440  0.35901  Biso   1.000  O
  O19      1.0000 0.81839  0.27560  0.64099  Biso   1.000  O
  O20      1.0000 0.68161  0.72440  0.14099  Biso   1.000  O
  O21      1.0000 0.18161  0.77560  0.85901  Biso   1.000  O
  O22      1.0000 0.68161  0.77560  0.64099  Biso   1.000  O
  O23      1.0000 0.18161  0.72440  0.35901  Biso   1.000  O
  O24      1.0000 0.31839  0.27560  0.85901  Biso   1.000  O
  O25      1.0000 0.78026  0.40720  0.10991  Biso   1.000  O
  O26      1.0000 0.28026  0.40720  0.39009  Biso   1.000  O
  O27      1.0000 0.78026  0.09280  0.60991  Biso   1.000  O
  O28      1.0000 0.71974  0.90720  0.10991  Biso   1.000  O
  O29      1.0000 0.21974  0.59280  0.89009  Biso   1.000  O
  O30      1.0000 0.71974  0.59280  0.60991  Biso   1.000  O
  O31      1.0000 0.21974  0.90720  0.39009  Biso   1.000  O
  O32      1.0000 0.28026  0.09280  0.89009  Biso   1.000  O
  O33      1.0000 0.71640  0.84870  0.90270  Biso   1.000  O
  O34      1.0000 0.21640  0.84870  0.59730  Biso   1.000  O
  O35      1.0000 0.71640  0.65130  0.40270  Biso   1.000  O
  O36      1.0000 0.78360  0.34870  0.90270  Biso   1.000  O
  O37      1.0000 0.28360  0.15130  0.09730  Biso   1.000  O
  O38      1.0000 0.78360  0.15130  0.40270  Biso   1.000  O
  O39      1.0000 0.28360  0.34870  0.59730  Biso   1.000  O
  O40      1.0000 0.21640  0.65130  0.09730  Biso   1.000  O
  N1       1.0000 0.39766  0.15110  0.46937  Biso   1.000  N
  N2       1.0000 0.89766  0.15110  0.03063  Biso   1.000  N
  N3       1.0000 0.39766  0.34890  0.96937  Biso   1.000  N
  N4       1.0000 0.10234  0.65110  0.46937  Biso   1.000  N
  N5       1.0000 0.60234  0.84890  0.53063  Biso   1.000  N
  N6       1.0000 0.10234  0.84890  0.96937  Biso   1.000  N
  N7       1.0000 0.60234  0.65110  0.03063  Biso   1.000  N
  N8       1.0000 0.89766  0.34890  0.53063  Biso   1.000  N
  N9       1.0000 0.50492  0.31960  0.45545  Biso   1.000  N
  N10      1.0000 0.00492  0.31960  0.04455  Biso   1.000  N
  N11      1.0000 0.50492  0.18040  0.95545  Biso   1.000  N
  N12      1.0000 0.99508  0.81960  0.45545  Biso   1.000  N
  N13      1.0000 0.49508  0.68040  0.54455  Biso   1.000  N
  N14      1.0000 0.99508  0.68040  0.95545  Biso   1.000  N
  N15      1.0000 0.49508  0.81960  0.04455  Biso   1.000  N
  N16      1.0000 0.00492  0.18040  0.54455  Biso   1.000  N
  N17      1.0000 0.68710  0.72730  0.83360  Biso   1.000  N
  N18      1.0000 0.18710  0.72730  0.66640  Biso   1.000  N
  N19      1.0000 0.68710  0.77270  0.33360  Biso   1.000  N
  N20      1.0000 0.81290  0.22730  0.83360  Biso   1.000  N
  N21      1.0000 0.31290  0.27270  0.16640  Biso   1.000  N
  N22      1.0000 0.81290  0.27270  0.33360  Biso   1.000  N
  N23      1.0000 0.31290  0.22730  0.66640  Biso   1.000  N
  N24      1.0000 0.18710  0.77270  0.16640  Biso   1.000  N
  C1       1.0000 0.34510  0.05910  0.46880  Biso   1.000  C
  C2       1.0000 0.84510  0.05910  0.03120  Biso   1.000  C
  C3       1.0000 0.34510  0.44090  0.96880  Biso   1.000  C
  C4       1.0000 0.15490  0.55910  0.46880  Biso   1.000  C
  C5       1.0000 0.65490  0.94090  0.53120  Biso   1.000  C
  C6       1.0000 0.15490  0.94090  0.96880  Biso   1.000  C
  C7       1.0000 0.65490  0.55910  0.03120  Biso   1.000  C
  C8       1.0000 0.84510  0.44090  0.53120  Biso   1.000  C
  H1       1.0000 0.30920  0.05310  0.43660  Biso   1.000  H
  H2       1.0000 0.80920  0.05310  0.06340  Biso   1.000  H
  H3       1.0000 0.30920  0.44690  0.93660  Biso   1.000  H
  H4       1.0000 0.19080  0.55310  0.43660  Biso   1.000  H
  H5       1.0000 0.69080  0.94690  0.56340  Biso   1.000  H
  H6       1.0000 0.19080  0.94690  0.93660  Biso   1.000  H
  H7       1.0000 0.69080  0.55310  0.06340  Biso   1.000  H
  H8       1.0000 0.80920  0.44690  0.56340  Biso   1.000  H
  C9       1.0000 0.34240  0.97280  0.51434  Biso   1.000  C
  C10      1.0000 0.84240  0.97280  0.98566  Biso   1.000  C
  C11      1.0000 0.34240  0.52720  0.01434  Biso   1.000  C
  C12      1.0000 0.15760  0.47280  0.51434  Biso   1.000  C
  C13      1.0000 0.65760  0.02720  0.48566  Biso   1.000  C
  C14      1.0000 0.15760  0.02720  0.01434  Biso   1.000  C
  C15      1.0000 0.65760  0.47280  0.98566  Biso   1.000  C
  C16      1.0000 0.84240  0.52720  0.48566  Biso   1.000  C
  H9       1.0000 0.30580  0.90900  0.51280  Biso   1.000  H
  H10      1.0000 0.80580  0.90900  0.98720  Biso   1.000  H
  H11      1.0000 0.30580  0.59100  0.01280  Biso   1.000  H
  H12      1.0000 0.19420  0.40900  0.51280  Biso   1.000  H
  H13      1.0000 0.69420  0.09100  0.48720  Biso   1.000  H
  H14      1.0000 0.19420  0.09100  0.01280  Biso   1.000  H
  H15      1.0000 0.69420  0.40900  0.98720  Biso   1.000  H
  H16      1.0000 0.80580  0.59100  0.48720  Biso   1.000  H
  C17      1.0000 0.39490  0.98300  0.56199  Biso   1.000  C
  C18      1.0000 0.89490  0.98300  0.93801  Biso   1.000  C
  C19      1.0000 0.39490  0.51700  0.06199  Biso   1.000  C
  C20      1.0000 0.10510  0.48300  0.56199  Biso   1.000  C
  C21      1.0000 0.60510  0.01700  0.43801  Biso   1.000  C
  C22      1.0000 0.10510  0.01700  0.06199  Biso   1.000  C
  C23      1.0000 0.60510  0.48300  0.93801  Biso   1.000  C
  C24      1.0000 0.89490  0.51700  0.43801  Biso   1.000  C
  H17      1.0000 0.39380  0.92620  0.59340  Biso   1.000  H
  H18      1.0000 0.89380  0.92620  0.90660  Biso   1.000  H
  H19      1.0000 0.39380  0.57380  0.09340  Biso   1.000  H
  H20      1.0000 0.10620  0.42620  0.59340  Biso   1.000  H
  H21      1.0000 0.60620  0.07380  0.40660  Biso   1.000  H
  H22      1.0000 0.10620  0.07380  0.09340  Biso   1.000  H
  H23      1.0000 0.60620  0.42620  0.90660  Biso   1.000  H
  H24      1.0000 0.89380  0.57380  0.40660  Biso   1.000  H
  C25      1.0000 0.44900  0.07710  0.56332  Biso   1.000  C
  C26      1.0000 0.94900  0.07710  0.93668  Biso   1.000  C
  C27      1.0000 0.44900  0.42290  0.06332  Biso   1.000  C
  C28      1.0000 0.05100  0.57710  0.56332  Biso   1.000  C
  C29      1.0000 0.55100  0.92290  0.43668  Biso   1.000  C
  C30      1.0000 0.05100  0.92290  0.06332  Biso   1.000  C
  C31      1.0000 0.55100  0.57710  0.93668  Biso   1.000  C
  C32      1.0000 0.94900  0.42290  0.43668  Biso   1.000  C
  H25      1.0000 0.48480  0.08460  0.59550  Biso   1.000  H
  H26      1.0000 0.98480  0.08460  0.90450  Biso   1.000  H
  H27      1.0000 0.48480  0.41540  0.09550  Biso   1.000  H
  H28      1.0000 0.01520  0.58460  0.59550  Biso   1.000  H
  H29      1.0000 0.51520  0.91540  0.40450  Biso   1.000  H
  H30      1.0000 0.01520  0.91540  0.09550  Biso   1.000  H
  H31      1.0000 0.51520  0.58460  0.90450  Biso   1.000  H
  H32      1.0000 0.98480  0.41540  0.40450  Biso   1.000  H
  C33      1.0000 0.44960  0.16110  0.51598  Biso   1.000  C
  C34      1.0000 0.94960  0.16110  0.98402  Biso   1.000  C
  C35      1.0000 0.44960  0.33890  0.01598  Biso   1.000  C
  C36      1.0000 0.05040  0.66110  0.51598  Biso   1.000  C
  C37      1.0000 0.55040  0.83890  0.48402  Biso   1.000  C
  C38      1.0000 0.05040  0.83890  0.01598  Biso   1.000  C
  C39      1.0000 0.55040  0.66110  0.98402  Biso   1.000  C
  C40      1.0000 0.94960  0.33890  0.48402  Biso   1.000  C
  C41      1.0000 0.50680  0.26310  0.50989  Biso   1.000  C
  C42      1.0000 0.00680  0.26310  0.99011  Biso   1.000  C
  C43      1.0000 0.50680  0.23690  0.00989  Biso   1.000  C
  C44      1.0000 0.99320  0.76310  0.50989  Biso   1.000  C
  C45      1.0000 0.49320  0.73690  0.49011  Biso   1.000  C
  C46      1.0000 0.99320  0.73690  0.00989  Biso   1.000  C
  C47      1.0000 0.49320  0.76310  0.99011  Biso   1.000  C
  C48      1.0000 0.00680  0.23690  0.49011  Biso   1.000  C
  C49      1.0000 0.55980  0.29920  0.55500  Biso   1.000  C
  C50      1.0000 0.05980  0.29920  0.94500  Biso   1.000  C
  C51      1.0000 0.55980  0.20080  0.05500  Biso   1.000  C
  C52      1.0000 0.94020  0.79920  0.55500  Biso   1.000  C
  C53      1.0000 0.44020  0.70080  0.44500  Biso   1.000  C
  C54      1.0000 0.94020  0.70080  0.05500  Biso   1.000  C
  C55      1.0000 0.44020  0.79920  0.94500  Biso   1.000  C
  C56      1.0000 0.05980  0.20080  0.44500  Biso   1.000  C
  H33      1.0000 0.56000  0.26030  0.59260  Biso   1.000  H
  H34      1.0000 0.06000  0.26030  0.90740  Biso   1.000  H
  H35      1.0000 0.56000  0.23970  0.09260  Biso   1.000  H
  H36      1.0000 0.94000  0.76030  0.59260  Biso   1.000  H
  H37      1.0000 0.44000  0.73970  0.40740  Biso   1.000  H
  H38      1.0000 0.94000  0.73970  0.09260  Biso   1.000  H
  H39      1.0000 0.44000  0.76030  0.90740  Biso   1.000  H
  H40      1.0000 0.06000  0.23970  0.40740  Biso   1.000  H
  C57      1.0000 0.61200  0.39280  0.54340  Biso   1.000  C
  C58      1.0000 0.11200  0.39280  0.95660  Biso   1.000  C
  C59      1.0000 0.61200  0.10720  0.04340  Biso   1.000  C
  C60      1.0000 0.88800  0.89280  0.54340  Biso   1.000  C
  C61      1.0000 0.38800  0.60720  0.45660  Biso   1.000  C
  C62      1.0000 0.88800  0.60720  0.04340  Biso   1.000  C
  C63      1.0000 0.38800  0.89280  0.95660  Biso   1.000  C
  C64      1.0000 0.11200  0.10720  0.45660  Biso   1.000  C
  H41      1.0000 0.64790  0.41820  0.57310  Biso   1.000  H
  H42      1.0000 0.14790  0.41820  0.92690  Biso   1.000  H
  H43      1.0000 0.64790  0.08180  0.07310  Biso   1.000  H
  H44      1.0000 0.85210  0.91820  0.57310  Biso   1.000  H
  H45      1.0000 0.35210  0.58180  0.42690  Biso   1.000  H
  H46      1.0000 0.85210  0.58180  0.07310  Biso   1.000  H
  H47      1.0000 0.35210  0.91820  0.92690  Biso   1.000  H
  H48      1.0000 0.14790  0.08180  0.42690  Biso   1.000  H
  C65      1.0000 0.61090  0.44880  0.48790  Biso   1.000  C
  C66      1.0000 0.11090  0.44880  0.01210  Biso   1.000  C
  C67      1.0000 0.61090  0.05120  0.98790  Biso   1.000  C
  C68      1.0000 0.88910  0.94880  0.48790  Biso   1.000  C
  C69      1.0000 0.38910  0.55120  0.51210  Biso   1.000  C
  C70      1.0000 0.88910  0.55120  0.98790  Biso   1.000  C
  C71      1.0000 0.38910  0.94880  0.01210  Biso   1.000  C
  C72      1.0000 0.11090  0.05120  0.51210  Biso   1.000  C
  H49      1.0000 0.64630  0.51200  0.47930  Biso   1.000  H
  H50      1.0000 0.14630  0.51200  0.02070  Biso   1.000  H
  H51      1.0000 0.64630  0.98800  0.97930  Biso   1.000  H
  H52      1.0000 0.85370  0.01200  0.47930  Biso   1.000  H
  H53      1.0000 0.35370  0.48800  0.52070  Biso   1.000  H
  H54      1.0000 0.85370  0.48800  0.97930  Biso   1.000  H
  H55      1.0000 0.35370  0.01200  0.02070  Biso   1.000  H
  H56      1.0000 0.14630  0.98800  0.52070  Biso   1.000  H
  C73      1.0000 0.55630  0.41000  0.44470  Biso   1.000  C
  C74      1.0000 0.05630  0.41000  0.05530  Biso   1.000  C
  C75      1.0000 0.55630  0.09000  0.94470  Biso   1.000  C
  C76      1.0000 0.94370  0.91000  0.44470  Biso   1.000  C
  C77      1.0000 0.44370  0.59000  0.55530  Biso   1.000  C
  C78      1.0000 0.94370  0.59000  0.94470  Biso   1.000  C
  C79      1.0000 0.44370  0.91000  0.05530  Biso   1.000  C
  C80      1.0000 0.05630  0.09000  0.55530  Biso   1.000  C
  H57      1.0000 0.55550  0.44820  0.40700  Biso   1.000  H
  H58      1.0000 0.05550  0.44820  0.09300  Biso   1.000  H
  H59      1.0000 0.55550  0.05180  0.90700  Biso   1.000  H
  H60      1.0000 0.94450  0.94820  0.40700  Biso   1.000  H
  H61      1.0000 0.44450  0.55180  0.59300  Biso   1.000  H
  H62      1.0000 0.94450  0.55180  0.90700  Biso   1.000  H
  H63      1.0000 0.44450  0.94820  0.09300  Biso   1.000  H
  H64      1.0000 0.05550  0.05180  0.59300  Biso   1.000  H
  C81      1.0000 0.50750  0.24760  0.30768  Biso   1.000  C
  C82      1.0000 0.00750  0.24760  0.19232  Biso   1.000  C
  C83      1.0000 0.50750  0.25240  0.80768  Biso   1.000  C
  C84      1.0000 0.99250  0.74760  0.30768  Biso   1.000  C
  C85      1.0000 0.49250  0.75240  0.69232  Biso   1.000  C
  C86      1.0000 0.99250  0.75240  0.80768  Biso   1.000  C
  C87      1.0000 0.49250  0.74760  0.19232  Biso   1.000  C
  C88      1.0000 0.00750  0.25240  0.69232  Biso   1.000  C
  C89      1.0000 0.56690  0.26540  0.25712  Biso   1.000  C
  C90      1.0000 0.06690  0.26540  0.24288  Biso   1.000  C
  C91      1.0000 0.56690  0.23460  0.75712  Biso   1.000  C
  C92      1.0000 0.93310  0.76540  0.25712  Biso   1.000  C
  C93      1.0000 0.43310  0.73460  0.74288  Biso   1.000  C
  C94      1.0000 0.93310  0.73460  0.75712  Biso   1.000  C
  C95      1.0000 0.43310  0.76540  0.24288  Biso   1.000  C
  C96      1.0000 0.06690  0.23460  0.74288  Biso   1.000  C
  C97      1.0000 0.61150  0.16610  0.23774  Biso   1.000  C
  C98      1.0000 0.11150  0.16610  0.26226  Biso   1.000  C
  C99      1.0000 0.61150  0.33390  0.73774  Biso   1.000  C
  C100     1.0000 0.88850  0.66610  0.23774  Biso   1.000  C
  C101     1.0000 0.38850  0.83390  0.76226  Biso   1.000  C
  C102     1.0000 0.88850  0.83390  0.73774  Biso   1.000  C
  C103     1.0000 0.38850  0.66610  0.26226  Biso   1.000  C
  C104     1.0000 0.11150  0.33390  0.76226  Biso   1.000  C
  H65      1.0000 0.59830  0.08840  0.25140  Biso   1.000  H
  H66      1.0000 0.09830  0.08840  0.24860  Biso   1.000  H
  H67      1.0000 0.59830  0.41160  0.75140  Biso   1.000  H
  H68      1.0000 0.90170  0.58840  0.25140  Biso   1.000  H
  H69      1.0000 0.40170  0.91160  0.74860  Biso   1.000  H
  H70      1.0000 0.90170  0.91160  0.75140  Biso   1.000  H
  H71      1.0000 0.40170  0.58840  0.24860  Biso   1.000  H
  H72      1.0000 0.09830  0.41160  0.74860  Biso   1.000  H
  C105     1.0000 0.67540  0.18090  0.19830  Biso   1.000  C
  C106     1.0000 0.17540  0.18090  0.30170  Biso   1.000  C
  C107     1.0000 0.67540  0.31910  0.69830  Biso   1.000  C
  C108     1.0000 0.82460  0.68090  0.19830  Biso   1.000  C
  C109     1.0000 0.32460  0.81910  0.80170  Biso   1.000  C
  C110     1.0000 0.82460  0.81910  0.69830  Biso   1.000  C
  C111     1.0000 0.32460  0.68090  0.30170  Biso   1.000  C
  C112     1.0000 0.17540  0.31910  0.80170  Biso   1.000  C
  H73      1.0000 0.70570  0.11360  0.18670  Biso   1.000  H
  H74      1.0000 0.20570  0.11360  0.31330  Biso   1.000  H
  H75      1.0000 0.70570  0.38640  0.68670  Biso   1.000  H
  H76      1.0000 0.79430  0.61360  0.18670  Biso   1.000  H
  H77      1.0000 0.29430  0.88640  0.81330  Biso   1.000  H
  H78      1.0000 0.79430  0.88640  0.68670  Biso   1.000  H
  H79      1.0000 0.29430  0.61360  0.31330  Biso   1.000  H
  H80      1.0000 0.20570  0.38640  0.81330  Biso   1.000  H
  C113     1.0000 0.69430  0.29560  0.17616  Biso   1.000  C
  C114     1.0000 0.19430  0.29560  0.32384  Biso   1.000  C
  C115     1.0000 0.69430  0.20440  0.67616  Biso   1.000  C
  C116     1.0000 0.80570  0.79560  0.17616  Biso   1.000  C
  C117     1.0000 0.30570  0.70440  0.82384  Biso   1.000  C
  C118     1.0000 0.80570  0.70440  0.67616  Biso   1.000  C
  C119     1.0000 0.30570  0.79560  0.32384  Biso   1.000  C
  C120     1.0000 0.19430  0.20440  0.82384  Biso   1.000  C
  C121     1.0000 0.64620  0.39400  0.19151  Biso   1.000  C
  C122     1.0000 0.14620  0.39400  0.30849  Biso   1.000  C
  C123     1.0000 0.64620  0.10600  0.69151  Biso   1.000  C
  C124     1.0000 0.85380  0.89400  0.19151  Biso   1.000  C
  C125     1.0000 0.35380  0.60600  0.80849  Biso   1.000  C
  C126     1.0000 0.85380  0.60600  0.69151  Biso   1.000  C
  C127     1.0000 0.35380  0.89400  0.30849  Biso   1.000  C
  C128     1.0000 0.14620  0.10600  0.80849  Biso   1.000  C
  H81      1.0000 0.65600  0.47010  0.17440  Biso   1.000  H
  H82      1.0000 0.15600  0.47010  0.32560  Biso   1.000  H
  H83      1.0000 0.65600  0.02990  0.67440  Biso   1.000  H
  H84      1.0000 0.84400  0.97010  0.17440  Biso   1.000  H
  H85      1.0000 0.34400  0.52990  0.82560  Biso   1.000  H
  H86      1.0000 0.84400  0.52990  0.67440  Biso   1.000  H
  H87      1.0000 0.34400  0.97010  0.32560  Biso   1.000  H
  H88      1.0000 0.15600  0.02990  0.82560  Biso   1.000  H
  C129     1.0000 0.58310  0.37970  0.23249  Biso   1.000  C
  C130     1.0000 0.08310  0.37970  0.26751  Biso   1.000  C
  C131     1.0000 0.58310  0.12030  0.73249  Biso   1.000  C
  C132     1.0000 0.91690  0.87970  0.23249  Biso   1.000  C
  C133     1.0000 0.41690  0.62030  0.76751  Biso   1.000  C
  C134     1.0000 0.91690  0.62030  0.73249  Biso   1.000  C
  C135     1.0000 0.41690  0.87970  0.26751  Biso   1.000  C
  C136     1.0000 0.08310  0.12030  0.76751  Biso   1.000  C
  H89      1.0000 0.55190  0.44650  0.24330  Biso   1.000  H
  H90      1.0000 0.05190  0.44650  0.25670  Biso   1.000  H
  H91      1.0000 0.55190  0.05350  0.74330  Biso   1.000  H
  H92      1.0000 0.94810  0.94650  0.24330  Biso   1.000  H
  H93      1.0000 0.44810  0.55350  0.75670  Biso   1.000  H
  H94      1.0000 0.94810  0.55350  0.74330  Biso   1.000  H
  H95      1.0000 0.44810  0.94650  0.25670  Biso   1.000  H
  H96      1.0000 0.05190  0.05350  0.75670  Biso   1.000  H
  C137     1.0000 0.76920  0.31200  0.13845  Biso   1.000  C
  C138     1.0000 0.26920  0.31200  0.36155  Biso   1.000  C
  C139     1.0000 0.76920  0.18800  0.63845  Biso   1.000  C
  C140     1.0000 0.73080  0.81200  0.13845  Biso   1.000  C
  C141     1.0000 0.23080  0.68800  0.86155  Biso   1.000  C
  C142     1.0000 0.73080  0.68800  0.63845  Biso   1.000  C
  C143     1.0000 0.23080  0.81200  0.36155  Biso   1.000  C
  C144     1.0000 0.26920  0.18800  0.86155  Biso   1.000  C
  C145     1.0000 0.66920  0.62290  0.79670  Biso   1.000  C
  C146     1.0000 0.16920  0.62290  0.70330  Biso   1.000  C
  C147     1.0000 0.66920  0.87710  0.29670  Biso   1.000  C
  C148     1.0000 0.83080  0.12290  0.79670  Biso   1.000  C
  C149     1.0000 0.33080  0.37710  0.20330  Biso   1.000  C
  C150     1.0000 0.83080  0.37710  0.29670  Biso   1.000  C
  C151     1.0000 0.33080  0.12290  0.70330  Biso   1.000  C
  C152     1.0000 0.16920  0.87710  0.20330  Biso   1.000  C
  H97      1.0000 0.70670  0.55890  0.80560  Biso   1.000  H
  H98      1.0000 0.20670  0.55890  0.69440  Biso   1.000  H
  H99      1.0000 0.70670  0.94110  0.30560  Biso   1.000  H
  H100     1.0000 0.79330  0.05890  0.80560  Biso   1.000  H
  H101     1.0000 0.29330  0.44110  0.19440  Biso   1.000  H
  H102     1.0000 0.79330  0.44110  0.30560  Biso   1.000  H
  H103     1.0000 0.29330  0.05890  0.69440  Biso   1.000  H
  H104     1.0000 0.20670  0.94110  0.19440  Biso   1.000  H
  H105     1.0000 0.67320  0.64480  0.75460  Biso   1.000  H
  H106     1.0000 0.17320  0.64480  0.74540  Biso   1.000  H
  H107     1.0000 0.67320  0.85520  0.25460  Biso   1.000  H
  H108     1.0000 0.82680  0.14480  0.75460  Biso   1.000  H
  H109     1.0000 0.32680  0.35520  0.24540  Biso   1.000  H
  H110     1.0000 0.82680  0.35520  0.25460  Biso   1.000  H
  H111     1.0000 0.32680  0.14480  0.74540  Biso   1.000  H
  H112     1.0000 0.17320  0.85520  0.24540  Biso   1.000  H
  H113     1.0000 0.61580  0.59520  0.80530  Biso   1.000  H
  H114     1.0000 0.11580  0.59520  0.69470  Biso   1.000  H
  H115     1.0000 0.61580  0.90480  0.30530  Biso   1.000  H
  H116     1.0000 0.88420  0.09520  0.80530  Biso   1.000  H
  H117     1.0000 0.38420  0.40480  0.19470  Biso   1.000  H
  H118     1.0000 0.88420  0.40480  0.30530  Biso   1.000  H
  H119     1.0000 0.38420  0.09520  0.69470  Biso   1.000  H
  H120     1.0000 0.11580  0.90480  0.19470  Biso   1.000  H
  C153     1.0000 0.64210  0.83270  0.81900  Biso   1.000  C
  C154     1.0000 0.14210  0.83270  0.68100  Biso   1.000  C
  C155     1.0000 0.64210  0.66730  0.31900  Biso   1.000  C
  C156     1.0000 0.85790  0.33270  0.81900  Biso   1.000  C
  C157     1.0000 0.35790  0.16730  0.18100  Biso   1.000  C
  C158     1.0000 0.85790  0.16730  0.31900  Biso   1.000  C
  C159     1.0000 0.35790  0.33270  0.68100  Biso   1.000  C
  C160     1.0000 0.14210  0.66730  0.18100  Biso   1.000  C
  H121     1.0000 0.66090  0.90030  0.84280  Biso   1.000  H
  H122     1.0000 0.16090  0.90030  0.65720  Biso   1.000  H
  H123     1.0000 0.66090  0.59970  0.34280  Biso   1.000  H
  H124     1.0000 0.83910  0.40030  0.84280  Biso   1.000  H
  H125     1.0000 0.33910  0.09970  0.15720  Biso   1.000  H
  H126     1.0000 0.83910  0.09970  0.34280  Biso   1.000  H
  H127     1.0000 0.33910  0.40030  0.65720  Biso   1.000  H
  H128     1.0000 0.16090  0.59970  0.15720  Biso   1.000  H
  H129     1.0000 0.58650  0.81840  0.82770  Biso   1.000  H
  H130     1.0000 0.08650  0.81840  0.67230  Biso   1.000  H
  H131     1.0000 0.58650  0.68160  0.32770  Biso   1.000  H
  H132     1.0000 0.91350  0.31840  0.82770  Biso   1.000  H
  H133     1.0000 0.41350  0.18160  0.17230  Biso   1.000  H
  H134     1.0000 0.91350  0.18160  0.32770  Biso   1.000  H
  H135     1.0000 0.41350  0.31840  0.67230  Biso   1.000  H
  H136     1.0000 0.08650  0.68160  0.17230  Biso   1.000  H
  H137     1.0000 0.64840  0.85110  0.77660  Biso   1.000  H
  H138     1.0000 0.14840  0.85110  0.72340  Biso   1.000  H
  H139     1.0000 0.64840  0.64890  0.27660  Biso   1.000  H
  H140     1.0000 0.85160  0.35110  0.77660  Biso   1.000  H
  H141     1.0000 0.35160  0.14890  0.22340  Biso   1.000  H
  H142     1.0000 0.85160  0.14890  0.27660  Biso   1.000  H
  H143     1.0000 0.35160  0.35110  0.72340  Biso   1.000  H
  H144     1.0000 0.14840  0.64890  0.22340  Biso   1.000  H
  C161     1.0000 0.73640  0.72610  0.87710  Biso   1.000  C
  C162     1.0000 0.23640  0.72610  0.62290  Biso   1.000  C
  C163     1.0000 0.73640  0.77390  0.37710  Biso   1.000  C
  C164     1.0000 0.76360  0.22610  0.87710  Biso   1.000  C
  C165     1.0000 0.26360  0.27390  0.12290  Biso   1.000  C
  C166     1.0000 0.76360  0.27390  0.37710  Biso   1.000  C
  C167     1.0000 0.26360  0.22610  0.62290  Biso   1.000  C
  C168     1.0000 0.23640  0.77390  0.12290  Biso   1.000  C
  H145     1.0000 0.77330  0.66760  0.88940  Biso   1.000  H
  H146     1.0000 0.27330  0.66760  0.61060  Biso   1.000  H
  H147     1.0000 0.77330  0.83240  0.38940  Biso   1.000  H
  H148     1.0000 0.72670  0.16760  0.88940  Biso   1.000  H
  H149     1.0000 0.22670  0.33240  0.11060  Biso   1.000  H
  H150     1.0000 0.72670  0.33240  0.38940  Biso   1.000  H
  H151     1.0000 0.22670  0.16760  0.61060  Biso   1.000  H
  H152     1.0000 0.27330  0.83240  0.11060  Biso   1.000  H
