data_image0
_cell_length_a       12.7397
_cell_length_b       15.6191
_cell_length_c       25.0173
_cell_angle_alpha    90
_cell_angle_beta     90
_cell_angle_gamma    90

_symmetry_space_group_name_H-M    "P 1"
_symmetry_int_tables_number       1

loop_
  _symmetry_equiv_pos_as_xyz
  'x, y, z'

loop_
  _atom_site_label
  _atom_site_occupancy
  _atom_site_fract_x
  _atom_site_fract_y
  _atom_site_fract_z
  _atom_site_thermal_displace_type
  _atom_site_B_iso_or_equiv
  _atom_site_type_symbol
  Cu1      1.0000 0.25811  0.24656  0.88811  Biso   1.000  Cu
  Cu2      1.0000 0.75811  0.24656  0.61189  Biso   1.000  Cu
  Cu3      1.0000 0.24189  0.74656  0.88811  Biso   1.000  Cu
  Cu4      1.0000 0.25811  0.25344  0.38811  Biso   1.000  Cu
  Cu5      1.0000 0.74189  0.75344  0.11189  Biso   1.000  Cu
  Cu6      1.0000 0.24189  0.75344  0.38811  Biso   1.000  Cu
  Cu7      1.0000 0.75811  0.25344  0.11189  Biso   1.000  Cu
  Cu8      1.0000 0.74189  0.74656  0.61189  Biso   1.000  Cu
  Cl1      1.0000 0.12214  0.23207  0.94657  Biso   1.000  Cl
  Cl2      1.0000 0.62214  0.23207  0.55343  Biso   1.000  Cl
  Cl3      1.0000 0.37786  0.73207  0.94657  Biso   1.000  Cl
  Cl4      1.0000 0.12214  0.26793  0.44657  Biso   1.000  Cl
  Cl5      1.0000 0.87786  0.76793  0.05343  Biso   1.000  Cl
  Cl6      1.0000 0.37786  0.76793  0.44657  Biso   1.000  Cl
  Cl7      1.0000 0.62214  0.26793  0.05343  Biso   1.000  Cl
  Cl8      1.0000 0.87786  0.73207  0.55343  Biso   1.000  Cl
  Cl9      1.0000 0.41284  0.17983  0.88189  Biso   1.000  Cl
  Cl10     1.0000 0.91284  0.17983  0.61811  Biso   1.000  Cl
  Cl11     1.0000 0.08716  0.67983  0.88189  Biso   1.000  Cl
  Cl12     1.0000 0.41284  0.32017  0.38189  Biso   1.000  Cl
  Cl13     1.0000 0.58716  0.82017  0.11811  Biso   1.000  Cl
  Cl14     1.0000 0.08716  0.82017  0.38189  Biso   1.000  Cl
  Cl15     1.0000 0.91284  0.32017  0.11811  Biso   1.000  Cl
  Cl16     1.0000 0.58716  0.67983  0.61811  Biso   1.000  Cl
  N1       1.0000 0.31159  0.35134  0.92320  Biso   1.000  N
  N2       1.0000 0.81159  0.35134  0.57680  Biso   1.000  N
  N3       1.0000 0.18841  0.85134  0.92320  Biso   1.000  N
  N4       1.0000 0.31159  0.14866  0.42320  Biso   1.000  N
  N5       1.0000 0.68841  0.64866  0.07680  Biso   1.000  N
  N6       1.0000 0.18841  0.64866  0.42320  Biso   1.000  N
  N7       1.0000 0.81159  0.14866  0.07680  Biso   1.000  N
  N8       1.0000 0.68841  0.85134  0.57680  Biso   1.000  N
  N9       1.0000 0.13333  0.58478  0.62402  Biso   1.000  N
  N10      1.0000 0.63333  0.58478  0.87598  Biso   1.000  N
  N11      1.0000 0.36667  0.08478  0.62402  Biso   1.000  N
  N12      1.0000 0.13333  0.91522  0.12402  Biso   1.000  N
  N13      1.0000 0.86667  0.41522  0.37598  Biso   1.000  N
  N14      1.0000 0.36667  0.41522  0.12402  Biso   1.000  N
  N15      1.0000 0.63333  0.91522  0.37598  Biso   1.000  N
  N16      1.0000 0.86667  0.08478  0.87598  Biso   1.000  N
  N17      1.0000 0.68879  0.19506  0.67544  Biso   1.000  N
  N18      1.0000 0.18879  0.19506  0.82456  Biso   1.000  N
  N19      1.0000 0.81121  0.69506  0.67544  Biso   1.000  N
  N20      1.0000 0.68879  0.30494  0.17544  Biso   1.000  N
  N21      1.0000 0.31121  0.80494  0.32456  Biso   1.000  N
  N22      1.0000 0.81121  0.80494  0.17544  Biso   1.000  N
  N23      1.0000 0.18879  0.30494  0.32456  Biso   1.000  N
  N24      1.0000 0.31121  0.69506  0.82456  Biso   1.000  N
  O1       1.0000 0.20341  0.40468  0.86257  Biso   1.000  O
  O2       1.0000 0.70341  0.40468  0.63743  Biso   1.000  O
  O3       1.0000 0.29659  0.90468  0.86257  Biso   1.000  O
  O4       1.0000 0.20341  0.09532  0.36257  Biso   1.000  O
  O5       1.0000 0.79659  0.59532  0.13743  Biso   1.000  O
  O6       1.0000 0.29659  0.59532  0.36257  Biso   1.000  O
  O7       1.0000 0.70341  0.09532  0.13743  Biso   1.000  O
  O8       1.0000 0.79659  0.90468  0.63743  Biso   1.000  O
  O9       1.0000 0.21694  0.45370  0.63090  Biso   1.000  O
  O10      1.0000 0.71694  0.45370  0.86910  Biso   1.000  O
  O11      1.0000 0.28306  0.95370  0.63090  Biso   1.000  O
  O12      1.0000 0.21694  0.04630  0.13090  Biso   1.000  O
  O13      1.0000 0.78306  0.54630  0.36910  Biso   1.000  O
  O14      1.0000 0.28306  0.54630  0.13090  Biso   1.000  O
  O15      1.0000 0.71694  0.04630  0.36910  Biso   1.000  O
  O16      1.0000 0.78306  0.95370  0.86910  Biso   1.000  O
  O17      1.0000 0.80127  0.27730  0.72054  Biso   1.000  O
  O18      1.0000 0.30127  0.27730  0.77946  Biso   1.000  O
  O19      1.0000 0.69873  0.77730  0.72054  Biso   1.000  O
  O20      1.0000 0.80127  0.22270  0.22054  Biso   1.000  O
  O21      1.0000 0.19873  0.72270  0.27946  Biso   1.000  O
  O22      1.0000 0.69873  0.72270  0.22054  Biso   1.000  O
  O23      1.0000 0.30127  0.22270  0.27946  Biso   1.000  O
  O24      1.0000 0.19873  0.77730  0.77946  Biso   1.000  O
  C1       1.0000 0.09479  0.43670  0.78885  Biso   1.000  C
  C2       1.0000 0.59479  0.43670  0.71115  Biso   1.000  C
  C3       1.0000 0.40521  0.93670  0.78885  Biso   1.000  C
  C4       1.0000 0.09479  0.06330  0.28885  Biso   1.000  C
  C5       1.0000 0.90521  0.56330  0.21115  Biso   1.000  C
  C6       1.0000 0.40521  0.56330  0.28885  Biso   1.000  C
  C7       1.0000 0.59479  0.06330  0.21115  Biso   1.000  C
  C8       1.0000 0.90521  0.93670  0.71115  Biso   1.000  C
  C9       1.0000 0.13373  0.44433  0.73707  Biso   1.000  C
  C10      1.0000 0.63373  0.44433  0.76293  Biso   1.000  C
  C11      1.0000 0.36627  0.94433  0.73707  Biso   1.000  C
  C12      1.0000 0.13373  0.05567  0.23707  Biso   1.000  C
  C13      1.0000 0.86627  0.55567  0.26293  Biso   1.000  C
  C14      1.0000 0.36627  0.55567  0.23707  Biso   1.000  C
  C15      1.0000 0.63373  0.05567  0.26293  Biso   1.000  C
  C16      1.0000 0.86627  0.94433  0.76293  Biso   1.000  C
  H1       1.0000 0.19680  0.47510  0.73080  Biso   1.000  H
  H2       1.0000 0.69680  0.47510  0.76920  Biso   1.000  H
  H3       1.0000 0.30320  0.97510  0.73080  Biso   1.000  H
  H4       1.0000 0.19680  0.02490  0.23080  Biso   1.000  H
  H5       1.0000 0.80320  0.52490  0.26920  Biso   1.000  H
  H6       1.0000 0.30320  0.52490  0.23080  Biso   1.000  H
  H7       1.0000 0.69680  0.02490  0.26920  Biso   1.000  H
  H8       1.0000 0.80320  0.97510  0.76920  Biso   1.000  H
  C17      1.0000 0.08046  0.40698  0.69456  Biso   1.000  C
  C18      1.0000 0.58046  0.40698  0.80544  Biso   1.000  C
  C19      1.0000 0.41954  0.90698  0.69456  Biso   1.000  C
  C20      1.0000 0.08046  0.09302  0.19456  Biso   1.000  C
  C21      1.0000 0.91954  0.59302  0.30544  Biso   1.000  C
  C22      1.0000 0.41954  0.59302  0.19456  Biso   1.000  C
  C23      1.0000 0.58046  0.09302  0.30544  Biso   1.000  C
  C24      1.0000 0.91954  0.90698  0.80544  Biso   1.000  C
  C25      1.0000 0.98929  0.36012  0.70435  Biso   1.000  C
  C26      1.0000 0.48929  0.36012  0.79565  Biso   1.000  C
  C27      1.0000 0.51071  0.86012  0.70435  Biso   1.000  C
  C28      1.0000 0.98929  0.13988  0.20435  Biso   1.000  C
  C29      1.0000 0.01071  0.63988  0.29565  Biso   1.000  C
  C30      1.0000 0.51071  0.63988  0.20435  Biso   1.000  C
  C31      1.0000 0.48929  0.13988  0.29565  Biso   1.000  C
  C32      1.0000 0.01071  0.86012  0.79565  Biso   1.000  C
  H9       1.0000 0.95350  0.33350  0.67540  Biso   1.000  H
  H10      1.0000 0.45350  0.33350  0.82460  Biso   1.000  H
  H11      1.0000 0.54650  0.83350  0.67540  Biso   1.000  H
  H12      1.0000 0.95350  0.16650  0.17540  Biso   1.000  H
  H13      1.0000 0.04650  0.66650  0.32460  Biso   1.000  H
  H14      1.0000 0.54650  0.66650  0.17540  Biso   1.000  H
  H15      1.0000 0.45350  0.16650  0.32460  Biso   1.000  H
  H16      1.0000 0.04650  0.83350  0.82460  Biso   1.000  H
  C33      1.0000 0.95026  0.35195  0.75585  Biso   1.000  C
  C34      1.0000 0.45026  0.35195  0.74415  Biso   1.000  C
  C35      1.0000 0.54974  0.85195  0.75585  Biso   1.000  C
  C36      1.0000 0.95026  0.14805  0.25585  Biso   1.000  C
  C37      1.0000 0.04974  0.64805  0.24415  Biso   1.000  C
  C38      1.0000 0.54974  0.64805  0.25585  Biso   1.000  C
  C39      1.0000 0.45026  0.14805  0.24415  Biso   1.000  C
  C40      1.0000 0.04974  0.85195  0.74415  Biso   1.000  C
  C41      1.0000 0.00265  0.39152  0.79810  Biso   1.000  C
  C42      1.0000 0.50265  0.39152  0.70190  Biso   1.000  C
  C43      1.0000 0.49735  0.89152  0.79810  Biso   1.000  C
  C44      1.0000 0.00265  0.10848  0.29810  Biso   1.000  C
  C45      1.0000 0.99735  0.60848  0.20190  Biso   1.000  C
  C46      1.0000 0.49735  0.60848  0.29810  Biso   1.000  C
  C47      1.0000 0.50265  0.10848  0.20190  Biso   1.000  C
  C48      1.0000 0.99735  0.89152  0.70190  Biso   1.000  C
  H17      1.0000 0.97520  0.38760  0.83330  Biso   1.000  H
  H18      1.0000 0.47520  0.38760  0.66670  Biso   1.000  H
  H19      1.0000 0.52480  0.88760  0.83330  Biso   1.000  H
  H20      1.0000 0.97520  0.11240  0.33330  Biso   1.000  H
  H21      1.0000 0.02480  0.61240  0.16670  Biso   1.000  H
  H22      1.0000 0.52480  0.61240  0.33330  Biso   1.000  H
  H23      1.0000 0.47520  0.11240  0.16670  Biso   1.000  H
  H24      1.0000 0.02480  0.88760  0.66670  Biso   1.000  H
  C49      1.0000 0.15194  0.47514  0.83562  Biso   1.000  C
  C50      1.0000 0.65194  0.47514  0.66438  Biso   1.000  C
  C51      1.0000 0.34806  0.97514  0.83562  Biso   1.000  C
  C52      1.0000 0.15194  0.02486  0.33562  Biso   1.000  C
  C53      1.0000 0.84806  0.52486  0.16438  Biso   1.000  C
  C54      1.0000 0.34806  0.52486  0.33562  Biso   1.000  C
  C55      1.0000 0.65194  0.02486  0.16438  Biso   1.000  C
  C56      1.0000 0.84806  0.97514  0.66438  Biso   1.000  C
  H25      1.0000 0.20430  0.51760  0.82320  Biso   1.000  H
  H26      1.0000 0.70430  0.51760  0.67680  Biso   1.000  H
  H27      1.0000 0.29570  0.01760  0.82320  Biso   1.000  H
  H28      1.0000 0.20430  0.98240  0.32320  Biso   1.000  H
  H29      1.0000 0.79570  0.48240  0.17680  Biso   1.000  H
  H30      1.0000 0.29570  0.48240  0.32320  Biso   1.000  H
  H31      1.0000 0.70430  0.98240  0.17680  Biso   1.000  H
  H32      1.0000 0.79570  0.01760  0.67680  Biso   1.000  H
  H33      1.0000 0.10200  0.50400  0.86000  Biso   1.000  H
  H34      1.0000 0.60200  0.50400  0.64000  Biso   1.000  H
  H35      1.0000 0.39800  0.00400  0.86000  Biso   1.000  H
  H36      1.0000 0.10200  0.99600  0.36000  Biso   1.000  H
  H37      1.0000 0.89800  0.49600  0.14000  Biso   1.000  H
  H38      1.0000 0.39800  0.49600  0.36000  Biso   1.000  H
  H39      1.0000 0.60200  0.99600  0.14000  Biso   1.000  H
  H40      1.0000 0.89800  0.00400  0.64000  Biso   1.000  H
  C57      1.0000 0.26378  0.42215  0.90547  Biso   1.000  C
  C58      1.0000 0.76378  0.42215  0.59453  Biso   1.000  C
  C59      1.0000 0.23622  0.92215  0.90547  Biso   1.000  C
  C60      1.0000 0.26378  0.07785  0.40547  Biso   1.000  C
  C61      1.0000 0.73622  0.57785  0.09453  Biso   1.000  C
  C62      1.0000 0.23622  0.57785  0.40547  Biso   1.000  C
  C63      1.0000 0.76378  0.07785  0.09453  Biso   1.000  C
  C64      1.0000 0.73622  0.92215  0.59453  Biso   1.000  C
  C65      1.0000 0.27648  0.50153  0.92970  Biso   1.000  C
  C66      1.0000 0.77648  0.50153  0.57030  Biso   1.000  C
  C67      1.0000 0.22352  0.00153  0.92970  Biso   1.000  C
  C68      1.0000 0.27648  0.99847  0.42970  Biso   1.000  C
  C69      1.0000 0.72352  0.49847  0.07030  Biso   1.000  C
  C70      1.0000 0.22352  0.49847  0.42970  Biso   1.000  C
  C71      1.0000 0.77648  0.99847  0.07030  Biso   1.000  C
  C72      1.0000 0.72352  0.00153  0.57030  Biso   1.000  C
  H41      1.0000 0.24070  0.55080  0.91700  Biso   1.000  H
  H42      1.0000 0.74070  0.55080  0.58300  Biso   1.000  H
  H43      1.0000 0.25930  0.05080  0.91700  Biso   1.000  H
  H44      1.0000 0.24070  0.94920  0.41700  Biso   1.000  H
  H45      1.0000 0.75930  0.44920  0.08300  Biso   1.000  H
  H46      1.0000 0.25930  0.44920  0.41700  Biso   1.000  H
  H47      1.0000 0.74070  0.94920  0.08300  Biso   1.000  H
  H48      1.0000 0.75930  0.05080  0.58300  Biso   1.000  H
  C73      1.0000 0.34357  0.50577  0.97320  Biso   1.000  C
  C74      1.0000 0.84357  0.50577  0.52680  Biso   1.000  C
  C75      1.0000 0.15643  0.00577  0.97320  Biso   1.000  C
  C76      1.0000 0.34357  0.99423  0.47320  Biso   1.000  C
  C77      1.0000 0.65643  0.49423  0.02680  Biso   1.000  C
  C78      1.0000 0.15643  0.49423  0.47320  Biso   1.000  C
  C79      1.0000 0.84357  0.99423  0.02680  Biso   1.000  C
  C80      1.0000 0.65643  0.00577  0.52680  Biso   1.000  C
  H49      1.0000 0.35420  0.55880  0.99100  Biso   1.000  H
  H50      1.0000 0.85420  0.55880  0.50900  Biso   1.000  H
  H51      1.0000 0.14580  0.05880  0.99100  Biso   1.000  H
  H52      1.0000 0.35420  0.94120  0.49100  Biso   1.000  H
  H53      1.0000 0.64580  0.44120  0.00900  Biso   1.000  H
  H54      1.0000 0.14580  0.44120  0.49100  Biso   1.000  H
  H55      1.0000 0.85420  0.94120  0.00900  Biso   1.000  H
  H56      1.0000 0.64580  0.05880  0.50900  Biso   1.000  H
  C81      1.0000 0.39517  0.43303  0.99084  Biso   1.000  C
  C82      1.0000 0.89517  0.43303  0.50916  Biso   1.000  C
  C83      1.0000 0.10483  0.93303  0.99084  Biso   1.000  C
  C84      1.0000 0.39517  0.06697  0.49084  Biso   1.000  C
  C85      1.0000 0.60483  0.56697  0.00916  Biso   1.000  C
  C86      1.0000 0.10483  0.56697  0.49084  Biso   1.000  C
  C87      1.0000 0.89517  0.06697  0.00916  Biso   1.000  C
  C88      1.0000 0.60483  0.93303  0.50916  Biso   1.000  C
  H57      1.0000 0.44220  0.43580  0.02020  Biso   1.000  H
  H58      1.0000 0.94220  0.43580  0.47980  Biso   1.000  H
  H59      1.0000 0.05780  0.93580  0.02020  Biso   1.000  H
  H60      1.0000 0.44220  0.06420  0.52020  Biso   1.000  H
  H61      1.0000 0.55780  0.56420  0.97980  Biso   1.000  H
  H62      1.0000 0.05780  0.56420  0.52020  Biso   1.000  H
  H63      1.0000 0.94220  0.06420  0.97980  Biso   1.000  H
  H64      1.0000 0.55780  0.93580  0.47980  Biso   1.000  H
  C89      1.0000 0.37699  0.35674  0.96502  Biso   1.000  C
  C90      1.0000 0.87699  0.35674  0.53498  Biso   1.000  C
  C91      1.0000 0.12301  0.85674  0.96502  Biso   1.000  C
  C92      1.0000 0.37699  0.14326  0.46502  Biso   1.000  C
  C93      1.0000 0.62301  0.64326  0.03498  Biso   1.000  C
  C94      1.0000 0.12301  0.64326  0.46502  Biso   1.000  C
  C95      1.0000 0.87699  0.14326  0.03498  Biso   1.000  C
  C96      1.0000 0.62301  0.85674  0.53498  Biso   1.000  C
  H65      1.0000 0.41170  0.30650  0.97720  Biso   1.000  H
  H66      1.0000 0.91170  0.30650  0.52280  Biso   1.000  H
  H67      1.0000 0.08830  0.80650  0.97720  Biso   1.000  H
  H68      1.0000 0.41170  0.19350  0.47720  Biso   1.000  H
  H69      1.0000 0.58830  0.69350  0.02280  Biso   1.000  H
  H70      1.0000 0.08830  0.69350  0.47720  Biso   1.000  H
  H71      1.0000 0.91170  0.19350  0.02280  Biso   1.000  H
  H72      1.0000 0.58830  0.80650  0.52280  Biso   1.000  H
  C97      1.0000 0.11640  0.41382  0.63708  Biso   1.000  C
  C98      1.0000 0.61640  0.41382  0.86292  Biso   1.000  C
  C99      1.0000 0.38360  0.91382  0.63708  Biso   1.000  C
  C100     1.0000 0.11640  0.08618  0.13708  Biso   1.000  C
  C101     1.0000 0.88360  0.58618  0.36292  Biso   1.000  C
  C102     1.0000 0.38360  0.58618  0.13708  Biso   1.000  C
  C103     1.0000 0.61640  0.08618  0.36292  Biso   1.000  C
  C104     1.0000 0.88360  0.91382  0.86292  Biso   1.000  C
  H73      1.0000 0.11940  0.35560  0.62140  Biso   1.000  H
  H74      1.0000 0.61940  0.35560  0.87860  Biso   1.000  H
  H75      1.0000 0.38060  0.85560  0.62140  Biso   1.000  H
  H76      1.0000 0.11940  0.14440  0.12140  Biso   1.000  H
  H77      1.0000 0.88060  0.64440  0.37860  Biso   1.000  H
  H78      1.0000 0.38060  0.64440  0.12140  Biso   1.000  H
  H79      1.0000 0.61940  0.14440  0.37860  Biso   1.000  H
  H80      1.0000 0.88060  0.85560  0.87860  Biso   1.000  H
  H81      1.0000 0.06370  0.44710  0.61670  Biso   1.000  H
  H82      1.0000 0.56370  0.44710  0.88330  Biso   1.000  H
  H83      1.0000 0.43630  0.94710  0.61670  Biso   1.000  H
  H84      1.0000 0.06370  0.05290  0.11670  Biso   1.000  H
  H85      1.0000 0.93630  0.55290  0.38330  Biso   1.000  H
  H86      1.0000 0.43630  0.55290  0.11670  Biso   1.000  H
  H87      1.0000 0.56370  0.05290  0.38330  Biso   1.000  H
  H88      1.0000 0.93630  0.94710  0.88330  Biso   1.000  H
  C105     1.0000 0.21925  0.53869  0.61827  Biso   1.000  C
  C106     1.0000 0.71925  0.53869  0.88173  Biso   1.000  C
  C107     1.0000 0.28075  0.03869  0.61827  Biso   1.000  C
  C108     1.0000 0.21925  0.96131  0.11827  Biso   1.000  C
  C109     1.0000 0.78075  0.46131  0.38173  Biso   1.000  C
  C110     1.0000 0.28075  0.46131  0.11827  Biso   1.000  C
  C111     1.0000 0.71925  0.96131  0.38173  Biso   1.000  C
  C112     1.0000 0.78075  0.03869  0.88173  Biso   1.000  C
  C113     1.0000 0.31503  0.57044  0.59954  Biso   1.000  C
  C114     1.0000 0.81503  0.57044  0.90046  Biso   1.000  C
  C115     1.0000 0.18497  0.07044  0.59954  Biso   1.000  C
  C116     1.0000 0.31503  0.92956  0.09954  Biso   1.000  C
  C117     1.0000 0.68497  0.42956  0.40046  Biso   1.000  C
  C118     1.0000 0.18497  0.42956  0.09954  Biso   1.000  C
  C119     1.0000 0.81503  0.92956  0.40046  Biso   1.000  C
  C120     1.0000 0.68497  0.07044  0.90046  Biso   1.000  C
  H89      1.0000 0.37550  0.53500  0.59760  Biso   1.000  H
  H90      1.0000 0.87550  0.53500  0.90240  Biso   1.000  H
  H91      1.0000 0.12450  0.03500  0.59760  Biso   1.000  H
  H92      1.0000 0.37550  0.96500  0.09760  Biso   1.000  H
  H93      1.0000 0.62450  0.46500  0.40240  Biso   1.000  H
  H94      1.0000 0.12450  0.46500  0.09760  Biso   1.000  H
  H95      1.0000 0.87550  0.96500  0.40240  Biso   1.000  H
  H96      1.0000 0.62450  0.03500  0.90240  Biso   1.000  H
  C121     1.0000 0.31850  0.65475  0.58406  Biso   1.000  C
  C122     1.0000 0.81850  0.65475  0.91594  Biso   1.000  C
  C123     1.0000 0.18150  0.15475  0.58406  Biso   1.000  C
  C124     1.0000 0.31850  0.84525  0.08406  Biso   1.000  C
  C125     1.0000 0.68150  0.34525  0.41594  Biso   1.000  C
  C126     1.0000 0.18150  0.34525  0.08406  Biso   1.000  C
  C127     1.0000 0.81850  0.84525  0.41594  Biso   1.000  C
  C128     1.0000 0.68150  0.15475  0.91594  Biso   1.000  C
  H97      1.0000 0.38160  0.67850  0.57020  Biso   1.000  H
  H98      1.0000 0.88160  0.67850  0.92980  Biso   1.000  H
  H99      1.0000 0.11840  0.17850  0.57020  Biso   1.000  H
  H100     1.0000 0.38160  0.82150  0.07020  Biso   1.000  H
  H101     1.0000 0.61840  0.32150  0.42980  Biso   1.000  H
  H102     1.0000 0.11840  0.32150  0.07020  Biso   1.000  H
  H103     1.0000 0.88160  0.82150  0.42980  Biso   1.000  H
  H104     1.0000 0.61840  0.17850  0.92980  Biso   1.000  H
  C129     1.0000 0.22878  0.70507  0.58879  Biso   1.000  C
  C130     1.0000 0.72878  0.70507  0.91121  Biso   1.000  C
  C131     1.0000 0.27122  0.20507  0.58879  Biso   1.000  C
  C132     1.0000 0.22878  0.79493  0.08879  Biso   1.000  C
  C133     1.0000 0.77122  0.29493  0.41121  Biso   1.000  C
  C134     1.0000 0.27122  0.29493  0.08879  Biso   1.000  C
  C135     1.0000 0.72878  0.79493  0.41121  Biso   1.000  C
  C136     1.0000 0.77122  0.20507  0.91121  Biso   1.000  C
  H105     1.0000 0.22930  0.76350  0.57830  Biso   1.000  H
  H106     1.0000 0.72930  0.76350  0.92170  Biso   1.000  H
  H107     1.0000 0.27070  0.26350  0.57830  Biso   1.000  H
  H108     1.0000 0.22930  0.73650  0.07830  Biso   1.000  H
  H109     1.0000 0.77070  0.23650  0.42170  Biso   1.000  H
  H110     1.0000 0.27070  0.23650  0.07830  Biso   1.000  H
  H111     1.0000 0.72930  0.73650  0.42170  Biso   1.000  H
  H112     1.0000 0.77070  0.26350  0.92170  Biso   1.000  H
  C137     1.0000 0.13935  0.66797  0.60902  Biso   1.000  C
  C138     1.0000 0.63935  0.66797  0.89098  Biso   1.000  C
  C139     1.0000 0.36065  0.16797  0.60902  Biso   1.000  C
  C140     1.0000 0.13935  0.83203  0.10902  Biso   1.000  C
  C141     1.0000 0.86065  0.33203  0.39098  Biso   1.000  C
  C142     1.0000 0.36065  0.33203  0.10902  Biso   1.000  C
  C143     1.0000 0.63935  0.83203  0.39098  Biso   1.000  C
  C144     1.0000 0.86065  0.16797  0.89098  Biso   1.000  C
  H113     1.0000 0.07840  0.70260  0.61270  Biso   1.000  H
  H114     1.0000 0.57840  0.70260  0.88730  Biso   1.000  H
  H115     1.0000 0.42160  0.20260  0.61270  Biso   1.000  H
  H116     1.0000 0.07840  0.79740  0.11270  Biso   1.000  H
  H117     1.0000 0.92160  0.29740  0.38730  Biso   1.000  H
  H118     1.0000 0.42160  0.29740  0.11270  Biso   1.000  H
  H119     1.0000 0.57840  0.79740  0.38730  Biso   1.000  H
  H120     1.0000 0.92160  0.20260  0.88730  Biso   1.000  H
  C145     1.0000 0.85599  0.29807  0.76901  Biso   1.000  C
  C146     1.0000 0.35599  0.29807  0.73099  Biso   1.000  C
  C147     1.0000 0.64401  0.79807  0.76901  Biso   1.000  C
  C148     1.0000 0.85599  0.20193  0.26901  Biso   1.000  C
  C149     1.0000 0.14401  0.70193  0.23099  Biso   1.000  C
  C150     1.0000 0.64401  0.70193  0.26901  Biso   1.000  C
  C151     1.0000 0.35599  0.20193  0.23099  Biso   1.000  C
  C152     1.0000 0.14401  0.79807  0.73099  Biso   1.000  C
  H121     1.0000 0.87850  0.24490  0.78720  Biso   1.000  H
  H122     1.0000 0.37850  0.24490  0.71280  Biso   1.000  H
  H123     1.0000 0.62150  0.74490  0.78720  Biso   1.000  H
  H124     1.0000 0.87850  0.25510  0.28720  Biso   1.000  H
  H125     1.0000 0.12150  0.75510  0.21280  Biso   1.000  H
  H126     1.0000 0.62150  0.75510  0.28720  Biso   1.000  H
  H127     1.0000 0.37850  0.25510  0.21280  Biso   1.000  H
  H128     1.0000 0.12150  0.74490  0.71280  Biso   1.000  H
  H129     1.0000 0.80880  0.32990  0.79340  Biso   1.000  H
  H130     1.0000 0.30880  0.32990  0.70660  Biso   1.000  H
  H131     1.0000 0.69120  0.82990  0.79340  Biso   1.000  H
  H132     1.0000 0.80880  0.17010  0.29340  Biso   1.000  H
  H133     1.0000 0.19120  0.67010  0.20660  Biso   1.000  H
  H134     1.0000 0.69120  0.67010  0.29340  Biso   1.000  H
  H135     1.0000 0.30880  0.17010  0.20660  Biso   1.000  H
  H136     1.0000 0.19120  0.82990  0.70660  Biso   1.000  H
  C153     1.0000 0.72311  0.21950  0.72358  Biso   1.000  C
  C154     1.0000 0.22311  0.21950  0.77642  Biso   1.000  C
  C155     1.0000 0.77689  0.71950  0.72358  Biso   1.000  C
  C156     1.0000 0.72311  0.28050  0.22358  Biso   1.000  C
  C157     1.0000 0.27689  0.78050  0.27642  Biso   1.000  C
  C158     1.0000 0.77689  0.78050  0.22358  Biso   1.000  C
  C159     1.0000 0.22311  0.28050  0.27642  Biso   1.000  C
  C160     1.0000 0.27689  0.71950  0.77642  Biso   1.000  C
  C161     1.0000 0.68019  0.18844  0.77089  Biso   1.000  C
  C162     1.0000 0.18019  0.18844  0.72911  Biso   1.000  C
  C163     1.0000 0.81981  0.68844  0.77089  Biso   1.000  C
  C164     1.0000 0.68019  0.31156  0.27089  Biso   1.000  C
  C165     1.0000 0.31981  0.81156  0.22911  Biso   1.000  C
  C166     1.0000 0.81981  0.81156  0.27089  Biso   1.000  C
  C167     1.0000 0.18019  0.31156  0.22911  Biso   1.000  C
  C168     1.0000 0.31981  0.68844  0.72911  Biso   1.000  C
  H137     1.0000 0.70670  0.20620  0.80460  Biso   1.000  H
  H138     1.0000 0.20670  0.20620  0.69540  Biso   1.000  H
  H139     1.0000 0.79330  0.70620  0.80460  Biso   1.000  H
  H140     1.0000 0.70670  0.29380  0.30460  Biso   1.000  H
  H141     1.0000 0.29330  0.79380  0.19540  Biso   1.000  H
  H142     1.0000 0.79330  0.79380  0.30460  Biso   1.000  H
  H143     1.0000 0.20670  0.29380  0.19540  Biso   1.000  H
  H144     1.0000 0.29330  0.70620  0.69540  Biso   1.000  H
  C169     1.0000 0.59809  0.13107  0.76751  Biso   1.000  C
  C170     1.0000 0.09809  0.13107  0.73249  Biso   1.000  C
  C171     1.0000 0.90191  0.63107  0.76751  Biso   1.000  C
  C172     1.0000 0.59809  0.36893  0.26751  Biso   1.000  C
  C173     1.0000 0.40191  0.86893  0.23249  Biso   1.000  C
  C174     1.0000 0.90191  0.86893  0.26751  Biso   1.000  C
  C175     1.0000 0.09809  0.36893  0.23249  Biso   1.000  C
  C176     1.0000 0.40191  0.63107  0.73249  Biso   1.000  C
  H145     1.0000 0.56650  0.10930  0.79910  Biso   1.000  H
  H146     1.0000 0.06650  0.10930  0.70090  Biso   1.000  H
  H147     1.0000 0.93350  0.60930  0.79910  Biso   1.000  H
  H148     1.0000 0.56650  0.39070  0.29910  Biso   1.000  H
  H149     1.0000 0.43350  0.89070  0.20090  Biso   1.000  H
  H150     1.0000 0.93350  0.89070  0.29910  Biso   1.000  H
  H151     1.0000 0.06650  0.39070  0.20090  Biso   1.000  H
  H152     1.0000 0.43350  0.60930  0.70090  Biso   1.000  H
  C177     1.0000 0.56188  0.10525  0.71784  Biso   1.000  C
  C178     1.0000 0.06188  0.10525  0.78216  Biso   1.000  C
  C179     1.0000 0.93812  0.60525  0.71784  Biso   1.000  C
  C180     1.0000 0.56188  0.39475  0.21784  Biso   1.000  C
  C181     1.0000 0.43812  0.89475  0.28216  Biso   1.000  C
  C182     1.0000 0.93812  0.89475  0.21784  Biso   1.000  C
  C183     1.0000 0.06188  0.39475  0.28216  Biso   1.000  C
  C184     1.0000 0.43812  0.60525  0.78216  Biso   1.000  C
  H153     1.0000 0.50590  0.06530  0.71490  Biso   1.000  H
  H154     1.0000 0.00590  0.06530  0.78510  Biso   1.000  H
  H155     1.0000 0.99410  0.56530  0.71490  Biso   1.000  H
  H156     1.0000 0.50590  0.43470  0.21490  Biso   1.000  H
  H157     1.0000 0.49410  0.93470  0.28510  Biso   1.000  H
  H158     1.0000 0.99410  0.93470  0.21490  Biso   1.000  H
  H159     1.0000 0.00590  0.43470  0.28510  Biso   1.000  H
  H160     1.0000 0.49410  0.56530  0.78510  Biso   1.000  H
  C185     1.0000 0.60869  0.13861  0.67289  Biso   1.000  C
  C186     1.0000 0.10869  0.13861  0.82711  Biso   1.000  C
  C187     1.0000 0.89131  0.63861  0.67289  Biso   1.000  C
  C188     1.0000 0.60869  0.36139  0.17289  Biso   1.000  C
  C189     1.0000 0.39131  0.86139  0.32711  Biso   1.000  C
  C190     1.0000 0.89131  0.86139  0.17289  Biso   1.000  C
  C191     1.0000 0.10869  0.36139  0.32711  Biso   1.000  C
  C192     1.0000 0.39131  0.63861  0.82711  Biso   1.000  C
  H161     1.0000 0.58370  0.12130  0.63880  Biso   1.000  H
  H162     1.0000 0.08370  0.12130  0.86120  Biso   1.000  H
  H163     1.0000 0.91630  0.62130  0.63880  Biso   1.000  H
  H164     1.0000 0.58370  0.37870  0.13880  Biso   1.000  H
  H165     1.0000 0.41630  0.87870  0.36120  Biso   1.000  H
  H166     1.0000 0.91630  0.87870  0.13880  Biso   1.000  H
  H167     1.0000 0.08370  0.37870  0.36120  Biso   1.000  H
  H168     1.0000 0.41630  0.62130  0.86120  Biso   1.000  H
  C193     1.0000 0.92720  0.39986  0.98157  Biso   1.000  C
  C194     1.0000 0.42720  0.39986  0.51843  Biso   1.000  C
  C195     1.0000 0.57280  0.89986  0.98157  Biso   1.000  C
  C196     1.0000 0.92720  0.10014  0.48157  Biso   1.000  C
  C197     1.0000 0.07280  0.60014  0.01843  Biso   1.000  C
  C198     1.0000 0.57280  0.60014  0.48157  Biso   1.000  C
  C199     1.0000 0.42720  0.10014  0.01843  Biso   1.000  C
  C200     1.0000 0.07280  0.89986  0.51843  Biso   1.000  C
  H169     1.0000 0.97700  0.39730  0.01140  Biso   1.000  H
  H170     1.0000 0.47700  0.39730  0.48860  Biso   1.000  H
  H171     1.0000 0.52300  0.89730  0.01140  Biso   1.000  H
  H172     1.0000 0.97700  0.10270  0.51140  Biso   1.000  H
  H173     1.0000 0.02300  0.60270  0.98860  Biso   1.000  H
  H174     1.0000 0.52300  0.60270  0.51140  Biso   1.000  H
  H175     1.0000 0.47700  0.10270  0.98860  Biso   1.000  H
  H176     1.0000 0.02300  0.89730  0.48860  Biso   1.000  H
  H177     1.0000 0.88210  0.34910  0.98230  Biso   1.000  H
  H178     1.0000 0.38210  0.34910  0.51770  Biso   1.000  H
  H179     1.0000 0.61790  0.84910  0.98230  Biso   1.000  H
  H180     1.0000 0.88210  0.15090  0.48230  Biso   1.000  H
  H181     1.0000 0.11790  0.65090  0.01770  Biso   1.000  H
  H182     1.0000 0.61790  0.65090  0.48230  Biso   1.000  H
  H183     1.0000 0.38210  0.15090  0.01770  Biso   1.000  H
  H184     1.0000 0.11790  0.84910  0.51770  Biso   1.000  H
  H185     1.0000 0.88390  0.45140  0.98490  Biso   1.000  H
  H186     1.0000 0.38390  0.45140  0.51510  Biso   1.000  H
  H187     1.0000 0.61610  0.95140  0.98490  Biso   1.000  H
  H188     1.0000 0.88390  0.04860  0.48490  Biso   1.000  H
  H189     1.0000 0.11610  0.54860  0.01510  Biso   1.000  H
  H190     1.0000 0.61610  0.54860  0.48490  Biso   1.000  H
  H191     1.0000 0.38390  0.04860  0.01510  Biso   1.000  H
  H192     1.0000 0.11610  0.95140  0.51510  Biso   1.000  H
  O25      1.0000 0.98276  0.40236  0.93297  Biso   1.000  O
  O26      1.0000 0.48276  0.40236  0.56703  Biso   1.000  O
  O27      1.0000 0.51724  0.90236  0.93297  Biso   1.000  O
  O28      1.0000 0.98276  0.09764  0.43297  Biso   1.000  O
  O29      1.0000 0.01724  0.59764  0.06703  Biso   1.000  O
  O30      1.0000 0.51724  0.59764  0.43297  Biso   1.000  O
  O31      1.0000 0.48276  0.09764  0.06703  Biso   1.000  O
  O32      1.0000 0.01724  0.90236  0.56703  Biso   1.000  O
  H193     1.0000 0.02320  0.36450  0.92860  Biso   1.000  H
  H194     1.0000 0.52320  0.36450  0.57140  Biso   1.000  H
  H195     1.0000 0.47680  0.86450  0.92860  Biso   1.000  H
  H196     1.0000 0.02320  0.13550  0.42860  Biso   1.000  H
  H197     1.0000 0.97680  0.63550  0.07140  Biso   1.000  H
  H198     1.0000 0.47680  0.63550  0.42860  Biso   1.000  H
  H199     1.0000 0.52320  0.13550  0.07140  Biso   1.000  H
  H200     1.0000 0.97680  0.86450  0.57140  Biso   1.000  H
