data_image0
_cell_length_a       9.8567
_cell_length_b       16.1182
_cell_length_c       17.143
_cell_angle_alpha    64.346
_cell_angle_beta     74.728
_cell_angle_gamma    83.207

_symmetry_space_group_name_H-M    "P 1"
_symmetry_int_tables_number       1

loop_
  _symmetry_equiv_pos_as_xyz
  'x, y, z'

loop_
  _atom_site_label
  _atom_site_occupancy
  _atom_site_fract_x
  _atom_site_fract_y
  _atom_site_fract_z
  _atom_site_thermal_displace_type
  _atom_site_B_iso_or_equiv
  _atom_site_type_symbol
  Fe1      1.0000 0.58718  0.64664  0.65565  Biso   1.000  Fe
  Fe2      1.0000 0.41282  0.35336  0.34435  Biso   1.000  Fe
  C1       1.0000 0.63118  0.61287  0.76941  Biso   1.000  C
  C2       1.0000 0.36882  0.38713  0.23059  Biso   1.000  C
  N1       1.0000 0.65631  0.59170  0.83754  Biso   1.000  N
  N2       1.0000 0.34369  0.40830  0.16246  Biso   1.000  N
  C3       1.0000 0.78130  0.62515  0.60621  Biso   1.000  C
  C4       1.0000 0.21870  0.37485  0.39379  Biso   1.000  C
  N3       1.0000 0.89229  0.60756  0.57424  Biso   1.000  N
  N4       1.0000 0.10771  0.39244  0.42576  Biso   1.000  N
  C5       1.0000 0.61577  0.77592  0.62246  Biso   1.000  C
  C6       1.0000 0.38423  0.22408  0.37754  Biso   1.000  C
  N5       1.0000 0.62696  0.85367  0.60119  Biso   1.000  N
  N6       1.0000 0.37304  0.14633  0.39881  Biso   1.000  N
  C7       1.0000 0.38910  0.66215  0.70643  Biso   1.000  C
  C8       1.0000 0.61090  0.33785  0.29357  Biso   1.000  C
  N7       1.0000 0.27274  0.67012  0.73809  Biso   1.000  N
  N8       1.0000 0.72726  0.32988  0.26191  Biso   1.000  N
  C9       1.0000 0.55964  0.68318  0.53682  Biso   1.000  C
  C10      1.0000 0.44036  0.31682  0.46318  Biso   1.000  C
  N9       1.0000 0.55241  0.70628  0.46427  Biso   1.000  N
  N10      1.0000 0.44759  0.29372  0.53573  Biso   1.000  N
  C11      1.0000 0.55418  0.51818  0.68644  Biso   1.000  C
  C12      1.0000 0.44582  0.48182  0.31356  Biso   1.000  C
  N11      1.0000 0.53865  0.44236  0.70221  Biso   1.000  N
  N12      1.0000 0.46135  0.55764  0.29779  Biso   1.000  N
  Cu1      1.0000 0.50000  0.50000  0.00000  Biso   1.000  Cu
  N13      1.0000 0.66845  0.47210  0.05408  Biso   1.000  N
  N14      1.0000 0.33155  0.52790  0.94592  Biso   1.000  N
  H1       1.0000 0.63470  0.44340  0.11410  Biso   1.000  H
  H2       1.0000 0.36530  0.55660  0.88590  Biso   1.000  H
  N15      1.0000 0.49373  0.37337  0.00147  Biso   1.000  N
  N16      1.0000 0.50627  0.62663  0.99853  Biso   1.000  N
  H3       1.0000 0.44500  0.33860  0.05780  Biso   1.000  H
  H4       1.0000 0.55500  0.66140  0.94220  Biso   1.000  H
  C13      1.0000 0.88109  0.64695  0.07141  Biso   1.000  C
  C14      1.0000 0.11891  0.35305  0.92859  Biso   1.000  C
  H5       1.0000 0.94730  0.63980  0.10700  Biso   1.000  H
  H6       1.0000 0.05270  0.36020  0.89300  Biso   1.000  H
  H7       1.0000 0.92860  0.67860  0.00910  Biso   1.000  H
  H8       1.0000 0.07140  0.32140  0.99090  Biso   1.000  H
  C15      1.0000 0.83403  0.55235  0.08922  Biso   1.000  C
  C16      1.0000 0.16597  0.44765  0.91078  Biso   1.000  C
  H9       1.0000 0.79240  0.51900  0.15230  Biso   1.000  H
  H10      1.0000 0.20760  0.48100  0.84770  Biso   1.000  H
  H11      1.0000 0.91490  0.51760  0.07280  Biso   1.000  H
  H12      1.0000 0.08510  0.48240  0.92720  Biso   1.000  H
  C17      1.0000 0.72668  0.56162  0.03572  Biso   1.000  C
  C18      1.0000 0.27332  0.43838  0.96428  Biso   1.000  C
  H13      1.0000 0.77270  0.59140  0.97220  Biso   1.000  H
  H14      1.0000 0.22730  0.40860  0.02780  Biso   1.000  H
  C19      1.0000 0.77632  0.40983  0.02941  Biso   1.000  C
  C20      1.0000 0.22368  0.59017  0.97059  Biso   1.000  C
  H15      1.0000 0.84970  0.39890  0.06100  Biso   1.000  H
  H16      1.0000 0.15030  0.60110  0.93900  Biso   1.000  H
  H17      1.0000 0.81880  0.43910  0.96610  Biso   1.000  H
  H18      1.0000 0.18120  0.56090  0.03390  Biso   1.000  H
  C21      1.0000 0.71302  0.31848  0.05174  Biso   1.000  C
  C22      1.0000 0.28698  0.68152  0.94826  Biso   1.000  C
  H19      1.0000 0.65410  0.29660  0.11180  Biso   1.000  H
  H20      1.0000 0.34590  0.70340  0.88820  Biso   1.000  H
  H21      1.0000 0.78900  0.27430  0.05170  Biso   1.000  H
  H22      1.0000 0.21100  0.72570  0.94830  Biso   1.000  H
  C23      1.0000 0.62561  0.31911  0.99012  Biso   1.000  C
  C24      1.0000 0.37439  0.68089  0.00988  Biso   1.000  C
  H23      1.0000 0.59860  0.25550  0.00880  Biso   1.000  H
  H24      1.0000 0.40140  0.74450  0.99120  Biso   1.000  H
  C25      1.0000 0.70668  0.35500  0.89363  Biso   1.000  C
  C26      1.0000 0.29332  0.64500  0.10637  Biso   1.000  C
  H25      1.0000 0.65400  0.34380  0.85940  Biso   1.000  H
  H26      1.0000 0.34600  0.65620  0.14060  Biso   1.000  H
  H27      1.0000 0.79590  0.32400  0.88960  Biso   1.000  H
  H28      1.0000 0.20410  0.67600  0.11040  Biso   1.000  H
  H29      1.0000 0.72150  0.41990  0.87080  Biso   1.000  H
  H30      1.0000 0.27850  0.58010  0.12920  Biso   1.000  H
  C27      1.0000 0.60250  0.62083  0.05512  Biso   1.000  C
  C28      1.0000 0.39750  0.37917  0.94488  Biso   1.000  C
  H31      1.0000 0.55290  0.58900  0.11770  Biso   1.000  H
  H32      1.0000 0.44710  0.41100  0.88230  Biso   1.000  H
  C29      1.0000 0.64933  0.71466  0.04011  Biso   1.000  C
  C30      1.0000 0.35067  0.28534  0.95989  Biso   1.000  C
  H33      1.0000 0.69080  0.74950  0.97730  Biso   1.000  H
  H34      1.0000 0.30920  0.25050  0.02270  Biso   1.000  H
  H35      1.0000 0.56810  0.74860  0.05750  Biso   1.000  H
  H36      1.0000 0.43190  0.25140  0.94250  Biso   1.000  H
  C31      1.0000 0.75645  0.70413  0.09401  Biso   1.000  C
  C32      1.0000 0.24355  0.29587  0.90599  Biso   1.000  C
  H37      1.0000 0.71240  0.67460  0.15710  Biso   1.000  H
  H38      1.0000 0.28760  0.32540  0.84290  Biso   1.000  H
  H39      1.0000 0.78850  0.76440  0.08100  Biso   1.000  H
  H40      1.0000 0.21150  0.23560  0.91900  Biso   1.000  H
  Cu2      1.0000 0.00000  0.50000  0.50000  Biso   1.000  Cu
  N17      1.0000 0.15173  0.59479  0.42099  Biso   1.000  N
  N18      1.0000 0.84827  0.40521  0.57901  Biso   1.000  N
  H41      1.0000 0.21010  0.57290  0.38320  Biso   1.000  H
  H42      1.0000 0.78990  0.42710  0.61680  Biso   1.000  H
  N19      1.0000 0.88195  0.58102  0.41146  Biso   1.000  N
  N20      1.0000 0.11805  0.41898  0.58854  Biso   1.000  N
  H43      1.0000 0.82790  0.61490  0.43910  Biso   1.000  H
  H44      1.0000 0.17210  0.38510  0.56090  Biso   1.000  H
  C33      1.0000 0.31313  0.52848  0.52377  Biso   1.000  C
  C34      1.0000 0.68687  0.47152  0.47623  Biso   1.000  C
  H45      1.0000 0.39000  0.54770  0.53760  Biso   1.000  H
  H46      1.0000 0.61000  0.45230  0.46240  Biso   1.000  H
  H47      1.0000 0.35400  0.49640  0.48640  Biso   1.000  H
  H48      1.0000 0.64600  0.50360  0.51360  Biso   1.000  H
  C35      1.0000 0.23866  0.61401  0.47023  Biso   1.000  C
  C36      1.0000 0.76134  0.38599  0.52977  Biso   1.000  C
  H49      1.0000 0.17880  0.63870  0.51010  Biso   1.000  H
  H50      1.0000 0.82120  0.36130  0.48990  Biso   1.000  H
  H51      1.0000 0.30810  0.66030  0.42810  Biso   1.000  H
  H52      1.0000 0.69190  0.33970  0.57190  Biso   1.000  H
  C37      1.0000 0.08201  0.67939  0.36635  Biso   1.000  C
  C38      1.0000 0.91799  0.32061  0.63365  Biso   1.000  C
  H53      1.0000 0.03020  0.70800  0.40570  Biso   1.000  H
  H54      1.0000 0.96980  0.29200  0.59430  Biso   1.000  H
  C39      1.0000 0.18320  0.75120  0.28900  Biso   1.000  C
  C40      1.0000 0.81680  0.24880  0.71100  Biso   1.000  C
  H55      1.0000 0.24950  0.76930  0.31170  Biso   1.000  H
  H56      1.0000 0.75050  0.23070  0.68830  Biso   1.000  H
  H57      1.0000 0.23590  0.72490  0.24860  Biso   1.000  H
  H58      1.0000 0.76410  0.27510  0.75140  Biso   1.000  H
  C41      1.0000 0.10089  0.83556  0.23897  Biso   1.000  C
  C42      1.0000 0.89911  0.16444  0.76103  Biso   1.000  C
  H59      1.0000 0.05320  0.86400  0.27850  Biso   1.000  H
  H60      1.0000 0.94680  0.13600  0.72150  Biso   1.000  H
  H61      1.0000 0.16560  0.88020  0.18930  Biso   1.000  H
  H62      1.0000 0.83440  0.11980  0.81070  Biso   1.000  H
  C43      1.0000 0.99335  0.80888  0.20458  Biso   1.000  C
  C44      1.0000 0.00665  0.19112  0.79542  Biso   1.000  C
  H63      1.0000 0.04190  0.78690  0.16000  Biso   1.000  H
  H64      1.0000 0.95810  0.21310  0.84000  Biso   1.000  H
  H65      1.0000 0.93870  0.86270  0.17640  Biso   1.000  H
  H66      1.0000 0.06130  0.13730  0.82360  Biso   1.000  H
  C45      1.0000 0.89482  0.73417  0.27966  Biso   1.000  C
  C46      1.0000 0.10518  0.26583  0.72034  Biso   1.000  C
  H67      1.0000 0.83370  0.71470  0.25470  Biso   1.000  H
  H68      1.0000 0.16630  0.28530  0.74530  Biso   1.000  H
  H69      1.0000 0.83620  0.75940  0.31950  Biso   1.000  H
  H70      1.0000 0.16380  0.24060  0.68050  Biso   1.000  H
  C47      1.0000 0.97542  0.65064  0.33277  Biso   1.000  C
  C48      1.0000 0.02458  0.34936  0.66723  Biso   1.000  C
  H71      1.0000 0.02590  0.62160  0.29350  Biso   1.000  H
  H72      1.0000 0.97410  0.37840  0.70650  Biso   1.000  H
  C49      1.0000 0.22361  0.46070  0.61009  Biso   1.000  C
  C50      1.0000 0.77639  0.53930  0.38991  Biso   1.000  C
  H73      1.0000 0.28570  0.41110  0.63900  Biso   1.000  H
  H74      1.0000 0.71430  0.58890  0.36100  Biso   1.000  H
  C51      1.0000 0.15413  0.50306  0.67465  Biso   1.000  C
  C52      1.0000 0.84587  0.49694  0.32535  Biso   1.000  C
  H75      1.0000 0.11530  0.45520  0.73190  Biso   1.000  H
  H76      1.0000 0.88470  0.54480  0.26810  Biso   1.000  H
  H77      1.0000 0.22280  0.53670  0.68000  Biso   1.000  H
  H78      1.0000 0.77720  0.46330  0.32000  Biso   1.000  H
  H79      1.0000 0.08030  0.54410  0.65280  Biso   1.000  H
  H80      1.0000 0.91970  0.45590  0.34720  Biso   1.000  H
  Cu3      1.0000 0.50000  0.00000  0.50000  Biso   1.000  Cu
  N21      1.0000 0.70123  0.01860  0.42346  Biso   1.000  N
  N22      1.0000 0.29877  0.98140  0.57654  Biso   1.000  N
  H81      1.0000 0.74780  0.96850  0.45570  Biso   1.000  H
  H82      1.0000 0.25220  0.03150  0.54430  Biso   1.000  H
  N23      1.0000 0.44298  0.91755  0.45287  Biso   1.000  N
  N24      1.0000 0.55702  0.08245  0.54713  Biso   1.000  N
  H83      1.0000 0.47220  0.85990  0.48510  Biso   1.000  H
  H84      1.0000 0.52780  0.14010  0.51490  Biso   1.000  H
  C53      1.0000 0.92199  0.10283  0.39567  Biso   1.000  C
  C54      1.0000 0.07801  0.89717  0.60433  Biso   1.000  C
  H85      1.0000 0.94890  0.11480  0.33310  Biso   1.000  H
  H86      1.0000 0.05110  0.88520  0.66690  Biso   1.000  H
  H87      1.0000 0.96330  0.04440  0.42860  Biso   1.000  H
  H88      1.0000 0.03670  0.95560  0.57140  Biso   1.000  H
  C55      1.0000 0.76284  0.09663  0.42758  Biso   1.000  C
  C56      1.0000 0.23716  0.90337  0.57242  Biso   1.000  C
  H89      1.0000 0.72300  0.15410  0.38980  Biso   1.000  H
  H90      1.0000 0.27700  0.84590  0.61020  Biso   1.000  H
  C57      1.0000 0.73662  0.01797  0.33360  Biso   1.000  C
  C58      1.0000 0.26338  0.98203  0.66640  Biso   1.000  C
  H91      1.0000 0.83870  0.01000  0.31660  Biso   1.000  H
  H92      1.0000 0.16130  0.99000  0.68340  Biso   1.000  H
  C59      1.0000 0.66661  0.93519  0.33906  Biso   1.000  C
  C60      1.0000 0.33339  0.06481  0.66094  Biso   1.000  C
  H93      1.0000 0.70290  0.92980  0.28310  Biso   1.000  H
  H94      1.0000 0.29710  0.07020  0.71690  Biso   1.000  H
  H95      1.0000 0.69480  0.88010  0.38520  Biso   1.000  H
  H96      1.0000 0.30520  0.11990  0.61480  Biso   1.000  H
  C61      1.0000 0.50710  0.93736  0.35817  Biso   1.000  C
  C62      1.0000 0.49290  0.06264  0.64183  Biso   1.000  C
  H97      1.0000 0.47630  0.99760  0.32060  Biso   1.000  H
  H98      1.0000 0.52370  0.00240  0.67940  Biso   1.000  H
  H99      1.0000 0.47540  0.89220  0.34370  Biso   1.000  H
  H100     1.0000 0.52460  0.10780  0.65630  Biso   1.000  H
  C63      1.0000 0.71388  0.08564  0.52358  Biso   1.000  C
  C64      1.0000 0.28612  0.91436  0.47642  Biso   1.000  C
  H101     1.0000 0.74880  0.02640  0.56190  Biso   1.000  H
  H102     1.0000 0.25120  0.97360  0.43810  Biso   1.000  H
  C65      1.0000 0.77268  0.16169  0.53540  Biso   1.000  C
  C66      1.0000 0.22732  0.83831  0.46460  Biso   1.000  C
  H103     1.0000 0.73290  0.22040  0.50170  Biso   1.000  H
  H104     1.0000 0.26710  0.77960  0.49830  Biso   1.000  H
  H105     1.0000 0.74550  0.15060  0.59780  Biso   1.000  H
  H106     1.0000 0.25450  0.84940  0.40220  Biso   1.000  H
  C67      1.0000 0.93284  0.16598  0.50395  Biso   1.000  C
  C68      1.0000 0.06716  0.83402  0.49605  Biso   1.000  C
  H107     1.0000 0.97320  0.10950  0.54130  Biso   1.000  H
  H108     1.0000 0.02680  0.89050  0.45870  Biso   1.000  H
  H109     1.0000 0.96690  0.21670  0.50960  Biso   1.000  H
  H110     1.0000 0.03310  0.78330  0.49040  Biso   1.000  H
  C69      1.0000 0.97923  0.17895  0.40828  Biso   1.000  C
  C70      1.0000 0.02077  0.82105  0.59172  Biso   1.000  C
  H111     1.0000 0.94610  0.23820  0.37040  Biso   1.000  H
  H112     1.0000 0.05390  0.76180  0.62960  Biso   1.000  H
  H113     1.0000 0.08120  0.17870  0.39060  Biso   1.000  H
  H114     1.0000 0.91880  0.82130  0.60940  Biso   1.000  H
  C71      1.0000 0.69715  0.10852  0.26382  Biso   1.000  C
  C72      1.0000 0.30285  0.89148  0.73618  Biso   1.000  C
  H115     1.0000 0.60160  0.12410  0.28470  Biso   1.000  H
  H116     1.0000 0.39840  0.87590  0.71530  Biso   1.000  H
  H117     1.0000 0.70650  0.10250  0.20930  Biso   1.000  H
  H118     1.0000 0.29350  0.89750  0.79070  Biso   1.000  H
  H119     1.0000 0.75840  0.15620  0.25340  Biso   1.000  H
  H120     1.0000 0.24160  0.84380  0.74660  Biso   1.000  H
