data_image0
_cell_length_a       10.133
_cell_length_b       16.2955
_cell_length_c       17.4383
_cell_angle_alpha    65.009
_cell_angle_beta     76.164
_cell_angle_gamma    81.944

_symmetry_space_group_name_H-M    "P 1"
_symmetry_int_tables_number       1

loop_
  _symmetry_equiv_pos_as_xyz
  'x, y, z'

loop_
  _atom_site_label
  _atom_site_occupancy
  _atom_site_fract_x
  _atom_site_fract_y
  _atom_site_fract_z
  _atom_site_thermal_displace_type
  _atom_site_B_iso_or_equiv
  _atom_site_type_symbol
  Cr1      1.0000 0.58941  0.64417  0.15730  Biso   1.000  Cr
  Cr2      1.0000 0.41059  0.35583  0.84270  Biso   1.000  Cr
  C1       1.0000 0.63000  0.60900  0.27860  Biso   1.000  C
  C2       1.0000 0.37000  0.39100  0.72140  Biso   1.000  C
  N1       1.0000 0.64650  0.58650  0.34747  Biso   1.000  N
  N2       1.0000 0.35350  0.41350  0.65253  Biso   1.000  N
  C3       1.0000 0.79060  0.62062  0.10934  Biso   1.000  C
  C4       1.0000 0.20940  0.37938  0.89066  Biso   1.000  C
  N3       1.0000 0.89780  0.60485  0.07638  Biso   1.000  N
  N4       1.0000 0.10220  0.39515  0.92362  Biso   1.000  N
  C5       1.0000 0.62090  0.78040  0.12094  Biso   1.000  C
  C6       1.0000 0.37910  0.21960  0.87906  Biso   1.000  C
  N5       1.0000 0.63380  0.85634  0.09685  Biso   1.000  N
  N6       1.0000 0.36620  0.14366  0.90315  Biso   1.000  N
  C7       1.0000 0.55870  0.68096  0.03280  Biso   1.000  C
  C8       1.0000 0.44130  0.31904  0.96720  Biso   1.000  C
  N7       1.0000 0.55100  0.70379  0.96203  Biso   1.000  N
  N8       1.0000 0.44900  0.29621  0.03797  Biso   1.000  N
  C9       1.0000 0.38580  0.66406  0.20693  Biso   1.000  C
  C10      1.0000 0.61420  0.33594  0.79307  Biso   1.000  C
  N9       1.0000 0.27530  0.67394  0.23833  Biso   1.000  N
  N10      1.0000 0.72470  0.32606  0.76167  Biso   1.000  N
  C11      1.0000 0.55730  0.50990  0.18988  Biso   1.000  C
  C12      1.0000 0.44270  0.49010  0.81012  Biso   1.000  C
  N11      1.0000 0.54390  0.43439  0.20697  Biso   1.000  N
  N12      1.0000 0.45610  0.56561  0.79303  Biso   1.000  N
  Cu1      1.0000 0.50000  0.00000  0.00000  Biso   1.000  Cu
  N13      1.0000 0.30670  0.98205  0.07093  Biso   1.000  N
  N14      1.0000 0.69330  0.01795  0.92907  Biso   1.000  N
  H1       1.0000 0.25950  0.03190  0.03950  Biso   1.000  H
  H2       1.0000 0.74050  0.96810  0.96050  Biso   1.000  H
  N15      1.0000 0.54880  0.08271  0.04795  Biso   1.000  N
  N16      1.0000 0.45120  0.91729  0.95205  Biso   1.000  N
  H3       1.0000 0.51880  0.13950  0.01580  Biso   1.000  H
  H4       1.0000 0.48120  0.86050  0.98420  Biso   1.000  H
  C13      1.0000 0.91000  0.15760  0.01770  Biso   1.000  C
  C14      1.0000 0.09000  0.84240  0.98230  Biso   1.000  C
  H5       1.0000 0.94190  0.20670  0.02520  Biso   1.000  H
  H6       1.0000 0.05810  0.79330  0.97480  Biso   1.000  H
  H7       1.0000 0.94830  0.10110  0.05530  Biso   1.000  H
  H8       1.0000 0.05170  0.89890  0.94470  Biso   1.000  H
  C15      1.0000 0.75560  0.15740  0.04320  Biso   1.000  C
  C16      1.0000 0.24440  0.84260  0.95680  Biso   1.000  C
  H9       1.0000 0.71750  0.21610  0.00920  Biso   1.000  H
  H10      1.0000 0.28250  0.78390  0.99080  Biso   1.000  H
  H11      1.0000 0.72780  0.14750  0.10360  Biso   1.000  H
  H12      1.0000 0.27220  0.85250  0.89640  Biso   1.000  H
  C17      1.0000 0.70030  0.08390  0.02900  Biso   1.000  C
  C18      1.0000 0.29970  0.91610  0.97100  Biso   1.000  C
  H13      1.0000 0.73510  0.02500  0.06690  Biso   1.000  H
  H14      1.0000 0.26490  0.97500  0.93310  Biso   1.000  H
  C19      1.0000 0.48650  0.06500  0.13920  Biso   1.000  C
  C20      1.0000 0.51350  0.93500  0.86080  Biso   1.000  C
  H15      1.0000 0.51290  0.11080  0.15370  Biso   1.000  H
  H16      1.0000 0.48710  0.88920  0.84630  Biso   1.000  H
  H17      1.0000 0.52040  0.00650  0.17650  Biso   1.000  H
  H18      1.0000 0.47960  0.99350  0.82350  Biso   1.000  H
  C21      1.0000 0.33310  0.06580  0.15510  Biso   1.000  C
  C22      1.0000 0.66690  0.93420  0.84490  Biso   1.000  C
  H19      1.0000 0.30220  0.11900  0.10960  Biso   1.000  H
  H20      1.0000 0.69780  0.88100  0.89040  Biso   1.000  H
  H21      1.0000 0.29640  0.07200  0.20910  Biso   1.000  H
  H22      1.0000 0.70360  0.92800  0.79090  Biso   1.000  H
  C23      1.0000 0.27350  0.98320  0.15900  Biso   1.000  C
  C24      1.0000 0.72650  0.01680  0.84100  Biso   1.000  C
  H23      1.0000 0.17430  0.99030  0.17460  Biso   1.000  H
  H24      1.0000 0.82570  0.00970  0.82540  Biso   1.000  H
  C25      1.0000 0.31700  0.89500  0.22670  Biso   1.000  C
  C26      1.0000 0.68300  0.10500  0.77330  Biso   1.000  C
  H25      1.0000 0.26180  0.84750  0.23500  Biso   1.000  H
  H26      1.0000 0.73820  0.15250  0.76500  Biso   1.000  H
  H27      1.0000 0.30620  0.90130  0.28020  Biso   1.000  H
  H28      1.0000 0.69380  0.09870  0.71980  Biso   1.000  H
  H29      1.0000 0.41080  0.88010  0.20790  Biso   1.000  H
  H30      1.0000 0.58920  0.11990  0.79210  Biso   1.000  H
  C27      1.0000 0.25010  0.90620  0.06390  Biso   1.000  C
  C28      1.0000 0.74990  0.09380  0.93610  Biso   1.000  C
  H31      1.0000 0.28900  0.84900  0.10160  Biso   1.000  H
  H32      1.0000 0.71100  0.15100  0.89840  Biso   1.000  H
  C29      1.0000 0.09730  0.90330  0.09030  Biso   1.000  C
  C30      1.0000 0.90270  0.09670  0.90970  Biso   1.000  C
  H33      1.0000 0.05720  0.96210  0.05810  Biso   1.000  H
  H34      1.0000 0.94280  0.03790  0.94190  Biso   1.000  H
  H35      1.0000 0.07040  0.89120  0.15120  Biso   1.000  H
  H36      1.0000 0.92960  0.10880  0.84880  Biso   1.000  H
  C31      1.0000 0.95760  0.16890  0.92600  Biso   1.000  C
  C32      1.0000 0.04240  0.83110  0.07400  Biso   1.000  C
  H37      1.0000 0.92770  0.22840  0.88800  Biso   1.000  H
  H38      1.0000 0.07230  0.77160  0.11200  Biso   1.000  H
  H39      1.0000 0.05630  0.16500  0.91260  Biso   1.000  H
  H40      1.0000 0.94370  0.83500  0.08740  Biso   1.000  H
  Cu2      1.0000 0.50000  0.50000  0.50000  Biso   1.000  Cu
  N17      1.0000 0.49720  0.37615  0.49911  Biso   1.000  N
  N18      1.0000 0.50280  0.62385  0.50089  Biso   1.000  N
  H41      1.0000 0.45110  0.34310  0.55320  Biso   1.000  H
  H42      1.0000 0.54890  0.65690  0.44680  Biso   1.000  H
  N19      1.0000 0.33760  0.53012  0.44322  Biso   1.000  N
  N20      1.0000 0.66240  0.46988  0.55678  Biso   1.000  N
  H43      1.0000 0.37050  0.55770  0.38540  Biso   1.000  H
  H44      1.0000 0.62950  0.44230  0.61460  Biso   1.000  H
  C33      1.0000 0.40280  0.38200  0.44288  Biso   1.000  C
  C34      1.0000 0.59720  0.61800  0.55712  Biso   1.000  C
  H45      1.0000 0.45010  0.41060  0.38260  Biso   1.000  H
  H46      1.0000 0.54990  0.58940  0.61740  Biso   1.000  H
  C35      1.0000 0.35700  0.29030  0.45790  Biso   1.000  C
  C36      1.0000 0.64300  0.70970  0.54210  Biso   1.000  C
  H47      1.0000 0.31650  0.25850  0.51840  Biso   1.000  H
  H48      1.0000 0.68350  0.74150  0.48160  Biso   1.000  H
  H49      1.0000 0.43530  0.25400  0.44340  Biso   1.000  H
  H50      1.0000 0.56470  0.74600  0.55660  Biso   1.000  H
  C37      1.0000 0.25310  0.30250  0.40230  Biso   1.000  C
  C38      1.0000 0.74690  0.69750  0.59770  Biso   1.000  C
  H51      1.0000 0.29660  0.32880  0.34170  Biso   1.000  H
  H52      1.0000 0.70340  0.67120  0.65830  Biso   1.000  H
  H53      1.0000 0.22150  0.24380  0.41490  Biso   1.000  H
  H54      1.0000 0.77850  0.75620  0.58510  Biso   1.000  H
  C39      1.0000 0.13300  0.36310  0.41930  Biso   1.000  C
  C40      1.0000 0.86700  0.63690  0.58070  Biso   1.000  C
  H55      1.0000 0.08510  0.33450  0.47860  Biso   1.000  H
  H56      1.0000 0.91490  0.66550  0.52140  Biso   1.000  H
  H57      1.0000 0.07070  0.37130  0.38190  Biso   1.000  H
  H58      1.0000 0.92930  0.62870  0.61810  Biso   1.000  H
  C41      1.0000 0.17870  0.45480  0.40310  Biso   1.000  C
  C42      1.0000 0.82130  0.54520  0.59690  Biso   1.000  C
  H59      1.0000 0.10050  0.49130  0.41720  Biso   1.000  H
  H60      1.0000 0.89950  0.50870  0.58280  Biso   1.000  H
  H61      1.0000 0.21890  0.48600  0.34240  Biso   1.000  H
  H62      1.0000 0.78110  0.51400  0.65760  Biso   1.000  H
  C43      1.0000 0.28310  0.44400  0.45802  Biso   1.000  C
  C44      1.0000 0.71690  0.55600  0.54198  Biso   1.000  C
  H63      1.0000 0.23800  0.41610  0.51890  Biso   1.000  H
  H64      1.0000 0.76200  0.58390  0.48110  Biso   1.000  H
  C45      1.0000 0.23270  0.59380  0.46510  Biso   1.000  C
  C46      1.0000 0.76730  0.40620  0.53490  Biso   1.000  C
  H65      1.0000 0.19160  0.56600  0.52600  Biso   1.000  H
  H66      1.0000 0.80840  0.43400  0.47400  Biso   1.000  H
  H67      1.0000 0.16190  0.60540  0.43250  Biso   1.000  H
  H68      1.0000 0.83810  0.39460  0.56750  Biso   1.000  H
  C47      1.0000 0.62550  0.31990  0.49110  Biso   1.000  C
  C48      1.0000 0.37450  0.68010  0.50890  Biso   1.000  C
  H69      1.0000 0.59930  0.25790  0.50850  Biso   1.000  H
  H70      1.0000 0.40070  0.74210  0.49150  Biso   1.000  H
  C49      1.0000 0.70350  0.35150  0.39920  Biso   1.000  C
  C50      1.0000 0.29650  0.64850  0.60080  Biso   1.000  C
  H71      1.0000 0.65270  0.34070  0.36470  Biso   1.000  H
  H72      1.0000 0.34730  0.65930  0.63530  Biso   1.000  H
  H73      1.0000 0.78990  0.31890  0.39750  Biso   1.000  H
  H74      1.0000 0.21010  0.68110  0.60250  Biso   1.000  H
  H75      1.0000 0.71760  0.41520  0.37680  Biso   1.000  H
  H76      1.0000 0.28240  0.58480  0.62320  Biso   1.000  H
  C51      1.0000 0.29040  0.68330  0.44590  Biso   1.000  C
  C52      1.0000 0.70960  0.31670  0.55410  Biso   1.000  C
  H77      1.0000 0.34670  0.70460  0.38830  Biso   1.000  H
  H78      1.0000 0.65330  0.29540  0.61170  Biso   1.000  H
  H79      1.0000 0.21540  0.72750  0.44550  Biso   1.000  H
  H80      1.0000 0.78460  0.27250  0.55450  Biso   1.000  H
  Cu3      1.0000 0.00000  0.50000  0.00000  Biso   1.000  Cu
  N21      1.0000 0.12596  0.42267  0.08278  Biso   1.000  N
  N22      1.0000 0.87404  0.57733  0.91722  Biso   1.000  N
  H81      1.0000 0.17610  0.38800  0.05580  Biso   1.000  H
  H82      1.0000 0.82390  0.61200  0.94420  Biso   1.000  H
  N23      1.0000 0.86133  0.40759  0.07898  Biso   1.000  N
  N24      1.0000 0.13867  0.59241  0.92102  Biso   1.000  N
  H83      1.0000 0.80800  0.43080  0.11580  Biso   1.000  H
  H84      1.0000 0.19200  0.56920  0.88420  Biso   1.000  H
  C53      1.0000 0.04290  0.35571  0.16074  Biso   1.000  C
  C54      1.0000 0.95710  0.64429  0.83926  Biso   1.000  C
  H85      1.0000 0.99630  0.38680  0.19780  Biso   1.000  H
  H86      1.0000 0.00370  0.61320  0.80220  Biso   1.000  H
  C55      1.0000 0.12570  0.27487  0.21357  Biso   1.000  C
  C56      1.0000 0.87430  0.72513  0.78643  Biso   1.000  C
  H87      1.0000 0.17850  0.24600  0.17680  Biso   1.000  H
  H88      1.0000 0.82150  0.75400  0.82320  Biso   1.000  H
  H89      1.0000 0.18870  0.29600  0.23460  Biso   1.000  H
  H90      1.0000 0.81130  0.70400  0.76540  Biso   1.000  H
  C57      1.0000 0.03630  0.20640  0.28920  Biso   1.000  C
  C58      1.0000 0.96370  0.79360  0.71080  Biso   1.000  C
  H91      1.0000 0.99260  0.23280  0.33000  Biso   1.000  H
  H92      1.0000 0.00740  0.76720  0.67000  Biso   1.000  H
  H93      1.0000 0.09200  0.15400  0.31830  Biso   1.000  H
  H94      1.0000 0.90800  0.84600  0.68170  Biso   1.000  H
  C59      1.0000 0.92860  0.17650  0.26070  Biso   1.000  C
  C60      1.0000 0.07140  0.82350  0.73930  Biso   1.000  C
  H95      1.0000 0.86900  0.13580  0.31110  Biso   1.000  H
  H96      1.0000 0.13100  0.86420  0.68890  Biso   1.000  H
  H97      1.0000 0.97180  0.14360  0.22550  Biso   1.000  H
  H98      1.0000 0.02820  0.85640  0.77450  Biso   1.000  H
  C61      1.0000 0.84480  0.25738  0.20921  Biso   1.000  C
  C62      1.0000 0.15520  0.74262  0.79079  Biso   1.000  C
  H99      1.0000 0.77980  0.23660  0.18920  Biso   1.000  H
  H100     1.0000 0.22020  0.76340  0.81080  Biso   1.000  H
  H101     1.0000 0.79430  0.28670  0.24620  Biso   1.000  H
  H102     1.0000 0.20570  0.71330  0.75380  Biso   1.000  H
  C63      1.0000 0.93510  0.32499  0.13238  Biso   1.000  C
  C64      1.0000 0.06490  0.67501  0.86762  Biso   1.000  C
  H103     1.0000 0.98200  0.29430  0.09510  Biso   1.000  H
  H104     1.0000 0.01800  0.70570  0.90490  Biso   1.000  H
  C65      1.0000 0.76880  0.38676  0.03510  Biso   1.000  C
  C66      1.0000 0.23120  0.61324  0.96490  Biso   1.000  C
  H105     1.0000 0.70560  0.34210  0.07810  Biso   1.000  H
  H106     1.0000 0.29440  0.65790  0.92190  Biso   1.000  H
  H107     1.0000 0.82230  0.36060  0.99610  Biso   1.000  H
  H108     1.0000 0.17770  0.63940  0.00390  Biso   1.000  H
  C67      1.0000 0.23230  0.46430  0.10081  Biso   1.000  C
  C68      1.0000 0.76770  0.53570  0.89919  Biso   1.000  C
  H109     1.0000 0.29660  0.41540  0.12730  Biso   1.000  H
  H110     1.0000 0.70340  0.58460  0.87270  Biso   1.000  H
  C69      1.0000 0.68960  0.47026  0.98479  Biso   1.000  C
  C70      1.0000 0.31040  0.52974  0.01521  Biso   1.000  C
  H111     1.0000 0.61270  0.45080  0.97350  Biso   1.000  H
  H112     1.0000 0.38730  0.54920  0.02650  Biso   1.000  H
  H113     1.0000 0.65340  0.50310  0.02110  Biso   1.000  H
  H114     1.0000 0.34660  0.49690  0.97890  Biso   1.000  H
  C71      1.0000 0.17270  0.50780  0.16356  Biso   1.000  C
  C72      1.0000 0.82730  0.49220  0.83644  Biso   1.000  C
  H115     1.0000 0.10000  0.55020  0.14310  Biso   1.000  H
  H116     1.0000 0.90000  0.44980  0.85690  Biso   1.000  H
  H117     1.0000 0.24200  0.53910  0.16820  Biso   1.000  H
  H118     1.0000 0.75800  0.46090  0.83180  Biso   1.000  H
  H119     1.0000 0.13810  0.46190  0.21920  Biso   1.000  H
  H120     1.0000 0.86190  0.53810  0.78080  Biso   1.000  H
