data_image0
_cell_length_a       8.4827
_cell_length_b       17.7308
_cell_length_c       14.8769
_cell_angle_alpha    90
_cell_angle_beta     90
_cell_angle_gamma    90

_symmetry_space_group_name_H-M    "P 1"
_symmetry_int_tables_number       1

loop_
  _symmetry_equiv_pos_as_xyz
  'x, y, z'

loop_
  _atom_site_label
  _atom_site_occupancy
  _atom_site_fract_x
  _atom_site_fract_y
  _atom_site_fract_z
  _atom_site_thermal_displace_type
  _atom_site_B_iso_or_equiv
  _atom_site_type_symbol
  Cu1      1.0000 0.90661  0.44182  0.65808  Biso   1.000  Cu
  Cu2      1.0000 0.09339  0.55818  0.15808  Biso   1.000  Cu
  Cu3      1.0000 0.40661  0.05818  0.65808  Biso   1.000  Cu
  Cu4      1.0000 0.59339  0.94182  0.15808  Biso   1.000  Cu
  Br1      1.0000 0.21700  0.59145  0.40796  Biso   1.000  Br
  Br2      1.0000 0.78300  0.40855  0.90796  Biso   1.000  Br
  Br3      1.0000 0.71700  0.90855  0.40796  Biso   1.000  Br
  Br4      1.0000 0.28300  0.09145  0.90796  Biso   1.000  Br
  Br5      1.0000 0.80992  0.69027  0.53506  Biso   1.000  Br
  Br6      1.0000 0.19008  0.30973  0.03506  Biso   1.000  Br
  Br7      1.0000 0.30992  0.80973  0.53506  Biso   1.000  Br
  Br8      1.0000 0.69008  0.19027  0.03506  Biso   1.000  Br
  N1       1.0000 0.70230  0.31763  0.67770  Biso   1.000  N
  N2       1.0000 0.29770  0.68237  0.17770  Biso   1.000  N
  N3       1.0000 0.20230  0.18237  0.67770  Biso   1.000  N
  N4       1.0000 0.79770  0.81763  0.17770  Biso   1.000  N
  N5       1.0000 0.70940  0.38946  0.63953  Biso   1.000  N
  N6       1.0000 0.29060  0.61054  0.13953  Biso   1.000  N
  N7       1.0000 0.20940  0.11054  0.63953  Biso   1.000  N
  N8       1.0000 0.79060  0.88946  0.13953  Biso   1.000  N
  N9       1.0000 0.09790  0.49663  0.70479  Biso   1.000  N
  N10      1.0000 0.90210  0.50337  0.20479  Biso   1.000  N
  N11      1.0000 0.59790  0.00337  0.70479  Biso   1.000  N
  N12      1.0000 0.40210  0.99663  0.20479  Biso   1.000  N
  N13      1.0000 0.96770  0.61110  0.03543  Biso   1.000  N
  N14      1.0000 0.03230  0.38890  0.53543  Biso   1.000  N
  N15      1.0000 0.46770  0.88890  0.03543  Biso   1.000  N
  N16      1.0000 0.53230  0.11110  0.53543  Biso   1.000  N
  O1       1.0000 0.94800  0.35274  0.73141  Biso   1.000  O
  O2       1.0000 0.05200  0.64726  0.23141  Biso   1.000  O
  O3       1.0000 0.44800  0.14726  0.73141  Biso   1.000  O
  O4       1.0000 0.55200  0.85274  0.23141  Biso   1.000  O
  O5       1.0000 0.83060  0.53150  0.60014  Biso   1.000  O
  O6       1.0000 0.16940  0.46850  0.10014  Biso   1.000  O
  O7       1.0000 0.33060  0.96850  0.60014  Biso   1.000  O
  O8       1.0000 0.66940  0.03150  0.10014  Biso   1.000  O
  C1       1.0000 0.83170  0.30597  0.72457  Biso   1.000  C
  C2       1.0000 0.16830  0.69403  0.22457  Biso   1.000  C
  C3       1.0000 0.33170  0.19403  0.72457  Biso   1.000  C
  C4       1.0000 0.66830  0.80597  0.22457  Biso   1.000  C
  C5       1.0000 0.58850  0.41108  0.59360  Biso   1.000  C
  C6       1.0000 0.41150  0.58892  0.09360  Biso   1.000  C
  C7       1.0000 0.08850  0.08892  0.59360  Biso   1.000  C
  C8       1.0000 0.91150  0.91108  0.09360  Biso   1.000  C
  H1       1.0000 0.50380  0.37660  0.58610  Biso   1.000  H
  H2       1.0000 0.49620  0.62340  0.08610  Biso   1.000  H
  H3       1.0000 0.00380  0.12340  0.58610  Biso   1.000  H
  H4       1.0000 0.99620  0.87660  0.08610  Biso   1.000  H
  C9       1.0000 0.57450  0.48472  0.55282  Biso   1.000  C
  C10      1.0000 0.42550  0.51528  0.05282  Biso   1.000  C
  C11      1.0000 0.07450  0.01528  0.55282  Biso   1.000  C
  C12      1.0000 0.92550  0.98472  0.05282  Biso   1.000  C
  C13      1.0000 0.43310  0.50092  0.50830  Biso   1.000  C
  C14      1.0000 0.56690  0.49908  0.00830  Biso   1.000  C
  C15      1.0000 0.93310  0.99908  0.50830  Biso   1.000  C
  C16      1.0000 0.06690  0.00092  0.00830  Biso   1.000  C
  H5       1.0000 0.35460  0.46300  0.50350  Biso   1.000  H
  H6       1.0000 0.64540  0.53700  0.00350  Biso   1.000  H
  H7       1.0000 0.85460  0.03700  0.50350  Biso   1.000  H
  H8       1.0000 0.14540  0.96300  0.00350  Biso   1.000  H
  C17      1.0000 0.40600  0.57109  0.47150  Biso   1.000  C
  C18      1.0000 0.59400  0.42891  0.97150  Biso   1.000  C
  C19      1.0000 0.90600  0.92891  0.47150  Biso   1.000  C
  C20      1.0000 0.09400  0.07109  0.97150  Biso   1.000  C
  C21      1.0000 0.51770  0.62757  0.47920  Biso   1.000  C
  C22      1.0000 0.48230  0.37243  0.97920  Biso   1.000  C
  C23      1.0000 0.01770  0.87243  0.47920  Biso   1.000  C
  C24      1.0000 0.98230  0.12757  0.97920  Biso   1.000  C
  H9       1.0000 0.49840  0.67610  0.45450  Biso   1.000  H
  H10      1.0000 0.50160  0.32390  0.95450  Biso   1.000  H
  H11      1.0000 0.99840  0.82390  0.45450  Biso   1.000  H
  H12      1.0000 0.00160  0.17610  0.95450  Biso   1.000  H
  C25      1.0000 0.65770  0.61247  0.52320  Biso   1.000  C
  C26      1.0000 0.34230  0.38753  0.02320  Biso   1.000  C
  C27      1.0000 0.15770  0.88753  0.52320  Biso   1.000  C
  C28      1.0000 0.84230  0.11247  0.02320  Biso   1.000  C
  C29      1.0000 0.69490  0.54116  0.56063  Biso   1.000  C
  C30      1.0000 0.30510  0.45884  0.06063  Biso   1.000  C
  C31      1.0000 0.19490  0.95884  0.56063  Biso   1.000  C
  C32      1.0000 0.80510  0.04116  0.06063  Biso   1.000  C
  C33      1.0000 0.18740  0.46577  0.76940  Biso   1.000  C
  C34      1.0000 0.81260  0.53423  0.26940  Biso   1.000  C
  C35      1.0000 0.68740  0.03423  0.76940  Biso   1.000  C
  C36      1.0000 0.31260  0.96577  0.26940  Biso   1.000  C
  H13      1.0000 0.15100  0.42140  0.79870  Biso   1.000  H
  H14      1.0000 0.84900  0.57860  0.29870  Biso   1.000  H
  H15      1.0000 0.65100  0.07860  0.79870  Biso   1.000  H
  H16      1.0000 0.34900  0.92140  0.29870  Biso   1.000  H
  C37      1.0000 0.33170  0.49648  0.79500  Biso   1.000  C
  C38      1.0000 0.66830  0.50352  0.29500  Biso   1.000  C
  C39      1.0000 0.83170  0.00352  0.79500  Biso   1.000  C
  C40      1.0000 0.16830  0.99648  0.29500  Biso   1.000  C
  H17      1.0000 0.39190  0.47280  0.84090  Biso   1.000  H
  H18      1.0000 0.60810  0.52720  0.34090  Biso   1.000  H
  H19      1.0000 0.89190  0.02720  0.84090  Biso   1.000  H
  H20      1.0000 0.10810  0.97280  0.34090  Biso   1.000  H
  C41      1.0000 0.38800  0.56104  0.75430  Biso   1.000  C
  C42      1.0000 0.61200  0.43896  0.25430  Biso   1.000  C
  C43      1.0000 0.88800  0.93896  0.75430  Biso   1.000  C
  C44      1.0000 0.11200  0.06104  0.25430  Biso   1.000  C
  C45      1.0000 0.29110  0.59416  0.68920  Biso   1.000  C
  C46      1.0000 0.70890  0.40584  0.18920  Biso   1.000  C
  C47      1.0000 0.79110  0.90584  0.68920  Biso   1.000  C
  C48      1.0000 0.20890  0.09416  0.18920  Biso   1.000  C
  H21      1.0000 0.32280  0.63960  0.66060  Biso   1.000  H
  H22      1.0000 0.67720  0.36040  0.16060  Biso   1.000  H
  H23      1.0000 0.82280  0.86040  0.66060  Biso   1.000  H
  H24      1.0000 0.17720  0.13960  0.16060  Biso   1.000  H
  C49      1.0000 0.14910  0.56081  0.66660  Biso   1.000  C
  C50      1.0000 0.85090  0.43919  0.16660  Biso   1.000  C
  C51      1.0000 0.64910  0.93919  0.66660  Biso   1.000  C
  C52      1.0000 0.35090  0.06081  0.16660  Biso   1.000  C
  H25      1.0000 0.08500  0.58420  0.62230  Biso   1.000  H
  H26      1.0000 0.91500  0.41580  0.12230  Biso   1.000  H
  H27      1.0000 0.58500  0.91580  0.62230  Biso   1.000  H
  H28      1.0000 0.41500  0.08420  0.12230  Biso   1.000  H
  C53      1.0000 0.54880  0.59327  0.77650  Biso   1.000  C
  C54      1.0000 0.45120  0.40673  0.27650  Biso   1.000  C
  C55      1.0000 0.04880  0.90673  0.77650  Biso   1.000  C
  C56      1.0000 0.95120  0.09327  0.27650  Biso   1.000  C
  H29      1.0000 0.61730  0.58900  0.72280  Biso   1.000  H
  H30      1.0000 0.38270  0.41100  0.22280  Biso   1.000  H
  H31      1.0000 0.11730  0.91100  0.72280  Biso   1.000  H
  H32      1.0000 0.88270  0.08900  0.22280  Biso   1.000  H
  H33      1.0000 0.59690  0.56280  0.82500  Biso   1.000  H
  H34      1.0000 0.40310  0.43720  0.32500  Biso   1.000  H
  H35      1.0000 0.09690  0.93720  0.82500  Biso   1.000  H
  H36      1.0000 0.90310  0.06280  0.32500  Biso   1.000  H
  C57      1.0000 0.54350  0.67541  0.80610  Biso   1.000  C
  C58      1.0000 0.45650  0.32459  0.30610  Biso   1.000  C
  C59      1.0000 0.04350  0.82459  0.80610  Biso   1.000  C
  C60      1.0000 0.95650  0.17541  0.30610  Biso   1.000  C
  H37      1.0000 0.48820  0.67880  0.86460  Biso   1.000  H
  H38      1.0000 0.51180  0.32120  0.36460  Biso   1.000  H
  H39      1.0000 0.98820  0.82120  0.86460  Biso   1.000  H
  H40      1.0000 0.01180  0.17880  0.36460  Biso   1.000  H
  H41      1.0000 0.48220  0.70480  0.76170  Biso   1.000  H
  H42      1.0000 0.51780  0.29520  0.26170  Biso   1.000  H
  H43      1.0000 0.98220  0.79520  0.76170  Biso   1.000  H
  H44      1.0000 0.01780  0.20480  0.26170  Biso   1.000  H
  C61      1.0000 0.70830  0.71040  0.81560  Biso   1.000  C
  C62      1.0000 0.29170  0.28960  0.31560  Biso   1.000  C
  C63      1.0000 0.20830  0.78960  0.81560  Biso   1.000  C
  C64      1.0000 0.79170  0.21040  0.31560  Biso   1.000  C
  H45      1.0000 0.76700  0.70310  0.75880  Biso   1.000  H
  H46      1.0000 0.23300  0.29690  0.25880  Biso   1.000  H
  H47      1.0000 0.26700  0.79690  0.75880  Biso   1.000  H
  H48      1.0000 0.73300  0.20310  0.25880  Biso   1.000  H
  H49      1.0000 0.69730  0.76540  0.82570  Biso   1.000  H
  H50      1.0000 0.30270  0.23460  0.32570  Biso   1.000  H
  H51      1.0000 0.19730  0.73460  0.82570  Biso   1.000  H
  H52      1.0000 0.80270  0.26540  0.32570  Biso   1.000  H
  C65      1.0000 0.80230  0.67656  0.89230  Biso   1.000  C
  C66      1.0000 0.19770  0.32344  0.39230  Biso   1.000  C
  C67      1.0000 0.30230  0.82344  0.89230  Biso   1.000  C
  C68      1.0000 0.69770  0.17656  0.39230  Biso   1.000  C
  C69      1.0000 0.78560  0.70356  0.97900  Biso   1.000  C
  C70      1.0000 0.21440  0.29644  0.47900  Biso   1.000  C
  C71      1.0000 0.28560  0.79644  0.97900  Biso   1.000  C
  C72      1.0000 0.71440  0.20356  0.47900  Biso   1.000  C
  H53      1.0000 0.71720  0.74470  0.99110  Biso   1.000  H
  H54      1.0000 0.28280  0.25530  0.49110  Biso   1.000  H
  H55      1.0000 0.21720  0.75530  0.99110  Biso   1.000  H
  H56      1.0000 0.78280  0.24470  0.49110  Biso   1.000  H
  C73      1.0000 0.87010  0.66976  0.04820  Biso   1.000  C
  C74      1.0000 0.12990  0.33024  0.54820  Biso   1.000  C
  C75      1.0000 0.37010  0.83024  0.04820  Biso   1.000  C
  C76      1.0000 0.62990  0.16976  0.54820  Biso   1.000  C
  H57      1.0000 0.85830  0.68910  0.10730  Biso   1.000  H
  H58      1.0000 0.14170  0.31090  0.60730  Biso   1.000  H
  H59      1.0000 0.35830  0.81090  0.10730  Biso   1.000  H
  H60      1.0000 0.64170  0.18910  0.60730  Biso   1.000  H
  C77      1.0000 0.98470  0.58567  0.95180  Biso   1.000  C
  C78      1.0000 0.01530  0.41433  0.45180  Biso   1.000  C
  C79      1.0000 0.48470  0.91433  0.95180  Biso   1.000  C
  C80      1.0000 0.51530  0.08567  0.45180  Biso   1.000  C
  H61      1.0000 0.05330  0.54420  0.94150  Biso   1.000  H
  H62      1.0000 0.94670  0.45580  0.44150  Biso   1.000  H
  H63      1.0000 0.55330  0.95580  0.94150  Biso   1.000  H
  H64      1.0000 0.44670  0.04420  0.44150  Biso   1.000  H
  C81      1.0000 0.90640  0.61721  0.87890  Biso   1.000  C
  C82      1.0000 0.09360  0.38279  0.37890  Biso   1.000  C
  C83      1.0000 0.40640  0.88279  0.87890  Biso   1.000  C
  C84      1.0000 0.59360  0.11721  0.37890  Biso   1.000  C
  H65      1.0000 0.92410  0.59820  0.82010  Biso   1.000  H
  H66      1.0000 0.07590  0.40180  0.32010  Biso   1.000  H
  H67      1.0000 0.42410  0.90180  0.82010  Biso   1.000  H
  H68      1.0000 0.57590  0.09820  0.32010  Biso   1.000  H
  C85      1.0000 0.84250  0.23347  0.77520  Biso   1.000  C
  C86      1.0000 0.15750  0.76653  0.27520  Biso   1.000  C
  C87      1.0000 0.34250  0.26653  0.77520  Biso   1.000  C
  C88      1.0000 0.65750  0.73347  0.27520  Biso   1.000  C
  H69      1.0000 0.93820  0.20650  0.75710  Biso   1.000  H
  H70      1.0000 0.06180  0.79350  0.25710  Biso   1.000  H
  H71      1.0000 0.43820  0.29350  0.75710  Biso   1.000  H
  H72      1.0000 0.56180  0.70650  0.25710  Biso   1.000  H
  H73      1.0000 0.74990  0.20240  0.76190  Biso   1.000  H
  H74      1.0000 0.25010  0.79760  0.26190  Biso   1.000  H
  H75      1.0000 0.24990  0.29760  0.76190  Biso   1.000  H
  H76      1.0000 0.75010  0.70240  0.26190  Biso   1.000  H
  H77      1.0000 0.84660  0.24400  0.83980  Biso   1.000  H
  H78      1.0000 0.15340  0.75600  0.33980  Biso   1.000  H
  H79      1.0000 0.34660  0.25600  0.83980  Biso   1.000  H
  H80      1.0000 0.65340  0.74400  0.33980  Biso   1.000  H
