data_image0
_cell_length_a       8.4779
_cell_length_b       13.2607
_cell_length_c       14.348
_cell_angle_alpha    90
_cell_angle_beta     90
_cell_angle_gamma    90

_symmetry_space_group_name_H-M    "P 1"
_symmetry_int_tables_number       1

loop_
  _symmetry_equiv_pos_as_xyz
  'x, y, z'

loop_
  _atom_site_label
  _atom_site_occupancy
  _atom_site_fract_x
  _atom_site_fract_y
  _atom_site_fract_z
  _atom_site_thermal_displace_type
  _atom_site_B_iso_or_equiv
  _atom_site_type_symbol
  C1       1.0000 0.65900  0.28790  0.33560  Biso   1.000  C
  C2       1.0000 0.84100  0.71210  0.83560  Biso   1.000  C
  C3       1.0000 0.15900  0.21210  0.66440  Biso   1.000  C
  C4       1.0000 0.34100  0.78790  0.16440  Biso   1.000  C
  H1       1.0000 0.63350  0.22090  0.35820  Biso   1.000  H
  H2       1.0000 0.86650  0.77910  0.85820  Biso   1.000  H
  H3       1.0000 0.13350  0.27910  0.64180  Biso   1.000  H
  H4       1.0000 0.36650  0.72090  0.14180  Biso   1.000  H
  H5       1.0000 0.68240  0.28330  0.26960  Biso   1.000  H
  H6       1.0000 0.81760  0.71670  0.76960  Biso   1.000  H
  H7       1.0000 0.18240  0.21670  0.73040  Biso   1.000  H
  H8       1.0000 0.31760  0.78330  0.23040  Biso   1.000  H
  C5       1.0000 0.52090  0.35830  0.35130  Biso   1.000  C
  C6       1.0000 0.97910  0.64170  0.85130  Biso   1.000  C
  C7       1.0000 0.02090  0.14170  0.64870  Biso   1.000  C
  C8       1.0000 0.47910  0.85830  0.14870  Biso   1.000  C
  H9       1.0000 0.43240  0.33930  0.31230  Biso   1.000  H
  H10      1.0000 0.06760  0.66070  0.81230  Biso   1.000  H
  H11      1.0000 0.93240  0.16070  0.68770  Biso   1.000  H
  H12      1.0000 0.56760  0.83930  0.18770  Biso   1.000  H
  H13      1.0000 0.48770  0.35650  0.41600  Biso   1.000  H
  H14      1.0000 0.01230  0.64350  0.91600  Biso   1.000  H
  H15      1.0000 0.98770  0.14350  0.58400  Biso   1.000  H
  H16      1.0000 0.51230  0.85650  0.08400  Biso   1.000  H
  C9       1.0000 0.47360  0.54070  0.34790  Biso   1.000  C
  C10      1.0000 0.02640  0.45930  0.84790  Biso   1.000  C
  C11      1.0000 0.97360  0.95930  0.65210  Biso   1.000  C
  C12      1.0000 0.52640  0.04070  0.15210  Biso   1.000  C
  H17      1.0000 0.42940  0.53330  0.40990  Biso   1.000  H
  H18      1.0000 0.07060  0.46670  0.90990  Biso   1.000  H
  H19      1.0000 0.92940  0.96670  0.59010  Biso   1.000  H
  H20      1.0000 0.57060  0.03330  0.09010  Biso   1.000  H
  H21      1.0000 0.38780  0.54370  0.30330  Biso   1.000  H
  H22      1.0000 0.11220  0.45630  0.80330  Biso   1.000  H
  H23      1.0000 0.88780  0.95630  0.69670  Biso   1.000  H
  H24      1.0000 0.61220  0.04370  0.19670  Biso   1.000  H
  C13      1.0000 0.57320  0.63440  0.34220  Biso   1.000  C
  C14      1.0000 0.92680  0.36560  0.84220  Biso   1.000  C
  C15      1.0000 0.07320  0.86560  0.65780  Biso   1.000  C
  C16      1.0000 0.42680  0.13440  0.15780  Biso   1.000  C
  H25      1.0000 0.60340  0.64700  0.27800  Biso   1.000  H
  H26      1.0000 0.89660  0.35300  0.77800  Biso   1.000  H
  H27      1.0000 0.10340  0.85300  0.72200  Biso   1.000  H
  H28      1.0000 0.39660  0.14700  0.22200  Biso   1.000  H
  H29      1.0000 0.51380  0.69210  0.36450  Biso   1.000  H
  H30      1.0000 0.98620  0.30790  0.86450  Biso   1.000  H
  H31      1.0000 0.01380  0.80790  0.63550  Biso   1.000  H
  H32      1.0000 0.48620  0.19210  0.13550  Biso   1.000  H
  C17      1.0000 0.99570  0.53450  0.55010  Biso   1.000  C
  C18      1.0000 0.50430  0.46550  0.05010  Biso   1.000  C
  C19      1.0000 0.49570  0.96550  0.44990  Biso   1.000  C
  C20      1.0000 0.00430  0.03450  0.94990  Biso   1.000  C
  H33      1.0000 0.94500  0.48340  0.58810  Biso   1.000  H
  H34      1.0000 0.55500  0.51660  0.08810  Biso   1.000  H
  H35      1.0000 0.44500  0.01660  0.41190  Biso   1.000  H
  H36      1.0000 0.05500  0.98340  0.91190  Biso   1.000  H
  H37      1.0000 0.93140  0.59490  0.55280  Biso   1.000  H
  H38      1.0000 0.56860  0.40510  0.05280  Biso   1.000  H
  H39      1.0000 0.43140  0.90510  0.44720  Biso   1.000  H
  H40      1.0000 0.06860  0.09490  0.94720  Biso   1.000  H
  C21      1.0000 0.15660  0.55740  0.59030  Biso   1.000  C
  C22      1.0000 0.34340  0.44260  0.09030  Biso   1.000  C
  C23      1.0000 0.65660  0.94260  0.40970  Biso   1.000  C
  C24      1.0000 0.84340  0.05740  0.90970  Biso   1.000  C
  H41      1.0000 0.21140  0.60560  0.55110  Biso   1.000  H
  H42      1.0000 0.28860  0.39440  0.05110  Biso   1.000  H
  H43      1.0000 0.71140  0.89440  0.44890  Biso   1.000  H
  H44      1.0000 0.78860  0.10560  0.94890  Biso   1.000  H
  H45      1.0000 0.14590  0.58610  0.65210  Biso   1.000  H
  H46      1.0000 0.35410  0.41390  0.15210  Biso   1.000  H
  H47      1.0000 0.64590  0.91390  0.34790  Biso   1.000  H
  H48      1.0000 0.85410  0.08610  0.84790  Biso   1.000  H
  C25      1.0000 0.40710  0.47900  0.61360  Biso   1.000  C
  C26      1.0000 0.09290  0.52100  0.11360  Biso   1.000  C
  C27      1.0000 0.90710  0.02100  0.38640  Biso   1.000  C
  C28      1.0000 0.59290  0.97900  0.88640  Biso   1.000  C
  H49      1.0000 0.44760  0.53300  0.57480  Biso   1.000  H
  H50      1.0000 0.05240  0.46700  0.07480  Biso   1.000  H
  H51      1.0000 0.94760  0.96700  0.42520  Biso   1.000  H
  H52      1.0000 0.55240  0.03300  0.92520  Biso   1.000  H
  H53      1.0000 0.46230  0.41760  0.59660  Biso   1.000  H
  H54      1.0000 0.03770  0.58240  0.09660  Biso   1.000  H
  H55      1.0000 0.96230  0.08240  0.40340  Biso   1.000  H
  H56      1.0000 0.53770  0.91760  0.90340  Biso   1.000  H
  C29      1.0000 0.44250  0.50300  0.71430  Biso   1.000  C
  C30      1.0000 0.05750  0.49700  0.21430  Biso   1.000  C
  C31      1.0000 0.94250  0.99700  0.28570  Biso   1.000  C
  C32      1.0000 0.55750  0.00300  0.78570  Biso   1.000  C
  H57      1.0000 0.40330  0.57000  0.72850  Biso   1.000  H
  H58      1.0000 0.09670  0.43000  0.22850  Biso   1.000  H
  H59      1.0000 0.90330  0.93000  0.27150  Biso   1.000  H
  H60      1.0000 0.59670  0.07000  0.77150  Biso   1.000  H
  H61      1.0000 0.38700  0.45550  0.75390  Biso   1.000  H
  H62      1.0000 0.11300  0.54450  0.25390  Biso   1.000  H
  H63      1.0000 0.88700  0.04450  0.24610  Biso   1.000  H
  H64      1.0000 0.61300  0.95550  0.74610  Biso   1.000  H
  Cu1      1.0000 0.80322  0.47950  0.37936  Biso   1.000  Cu
  Cu2      1.0000 0.69678  0.52050  0.87936  Biso   1.000  Cu
  Cu3      1.0000 0.30322  0.02050  0.62064  Biso   1.000  Cu
  Cu4      1.0000 0.19678  0.97950  0.12064  Biso   1.000  Cu
  N1       1.0000 0.61160  0.49865  0.73552  Biso   1.000  N
  N2       1.0000 0.88840  0.50135  0.23552  Biso   1.000  N
  N3       1.0000 0.11160  0.00135  0.26448  Biso   1.000  N
  N4       1.0000 0.38840  0.99865  0.76448  Biso   1.000  N
  H65      1.0000 0.65940  0.54530  0.69980  Biso   1.000  H
  H66      1.0000 0.84060  0.45470  0.19980  Biso   1.000  H
  H67      1.0000 0.15940  0.95470  0.30020  Biso   1.000  H
  H68      1.0000 0.34060  0.04530  0.80020  Biso   1.000  H
  H69      1.0000 0.64670  0.43810  0.71630  Biso   1.000  H
  H70      1.0000 0.85330  0.56190  0.21630  Biso   1.000  H
  H71      1.0000 0.14670  0.06190  0.28370  Biso   1.000  H
  H72      1.0000 0.35330  0.93810  0.78370  Biso   1.000  H
  N5       1.0000 0.00360  0.49863  0.45221  Biso   1.000  N
  N6       1.0000 0.49640  0.50137  0.95221  Biso   1.000  N
  N7       1.0000 0.50360  0.00137  0.54779  Biso   1.000  N
  N8       1.0000 0.99640  0.99863  0.04779  Biso   1.000  N
  H73      1.0000 0.05490  0.43920  0.45240  Biso   1.000  H
  H74      1.0000 0.44510  0.56080  0.95240  Biso   1.000  H
  H75      1.0000 0.55490  0.06080  0.54760  Biso   1.000  H
  H76      1.0000 0.94510  0.93920  0.04760  Biso   1.000  H
  H77      1.0000 0.06410  0.54240  0.42040  Biso   1.000  H
  H78      1.0000 0.43590  0.45760  0.92040  Biso   1.000  H
  H79      1.0000 0.56410  0.95760  0.57960  Biso   1.000  H
  H80      1.0000 0.93590  0.04240  0.07960  Biso   1.000  H
  N9       1.0000 0.79770  0.32844  0.38668  Biso   1.000  N
  N10      1.0000 0.70230  0.67156  0.88668  Biso   1.000  N
  N11      1.0000 0.29770  0.17156  0.61332  Biso   1.000  N
  N12      1.0000 0.20230  0.82844  0.11332  Biso   1.000  N
  H81      1.0000 0.88680  0.30300  0.36200  Biso   1.000  H
  H82      1.0000 0.61320  0.69700  0.86200  Biso   1.000  H
  H83      1.0000 0.38680  0.19700  0.63800  Biso   1.000  H
  H84      1.0000 0.11320  0.80300  0.13800  Biso   1.000  H
  H85      1.0000 0.79280  0.30920  0.44680  Biso   1.000  H
  H86      1.0000 0.70720  0.69080  0.94680  Biso   1.000  H
  H87      1.0000 0.29280  0.19080  0.55320  Biso   1.000  H
  H88      1.0000 0.20720  0.80920  0.05320  Biso   1.000  H
  N13      1.0000 0.71640  0.61957  0.40056  Biso   1.000  N
  N14      1.0000 0.78360  0.38043  0.90056  Biso   1.000  N
  N15      1.0000 0.21640  0.88043  0.59944  Biso   1.000  N
  N16      1.0000 0.28360  0.11957  0.09944  Biso   1.000  N
  H89      1.0000 0.69180  0.62760  0.46110  Biso   1.000  H
  H90      1.0000 0.80820  0.37240  0.96110  Biso   1.000  H
  H91      1.0000 0.19180  0.87240  0.53890  Biso   1.000  H
  H92      1.0000 0.30820  0.12760  0.03890  Biso   1.000  H
  H93      1.0000 0.78980  0.66580  0.38540  Biso   1.000  H
  H94      1.0000 0.71020  0.33420  0.88540  Biso   1.000  H
  H95      1.0000 0.28980  0.83420  0.61460  Biso   1.000  H
  H96      1.0000 0.21020  0.16580  0.11460  Biso   1.000  H
  O1       1.0000 0.57730  0.45728  0.32677  Biso   1.000  O
  O2       1.0000 0.92270  0.54272  0.82677  Biso   1.000  O
  O3       1.0000 0.07730  0.04272  0.67323  Biso   1.000  O
  O4       1.0000 0.42270  0.95728  0.17323  Biso   1.000  O
  O5       1.0000 0.24270  0.46622  0.59473  Biso   1.000  O
  O6       1.0000 0.25730  0.53378  0.09473  Biso   1.000  O
  O7       1.0000 0.74270  0.03378  0.40527  Biso   1.000  O
  O8       1.0000 0.75730  0.96622  0.90527  Biso   1.000  O
  N17      1.0000 0.68340  0.26580  0.61967  Biso   1.000  N
  N18      1.0000 0.81660  0.73420  0.11967  Biso   1.000  N
  N19      1.0000 0.18340  0.23420  0.38033  Biso   1.000  N
  N20      1.0000 0.31660  0.76580  0.88033  Biso   1.000  N
  O9       1.0000 0.64510  0.21270  0.55194  Biso   1.000  O
  O10      1.0000 0.85490  0.78730  0.05194  Biso   1.000  O
  O11      1.0000 0.14510  0.28730  0.44806  Biso   1.000  O
  O12      1.0000 0.35490  0.71270  0.94806  Biso   1.000  O
  O13      1.0000 0.61860  0.25410  0.69727  Biso   1.000  O
  O14      1.0000 0.88140  0.74590  0.19727  Biso   1.000  O
  O15      1.0000 0.11860  0.24590  0.30273  Biso   1.000  O
  O16      1.0000 0.38140  0.75410  0.80273  Biso   1.000  O
  O17      1.0000 0.78740  0.33241  0.60950  Biso   1.000  O
  O18      1.0000 0.71260  0.66759  0.10950  Biso   1.000  O
  O19      1.0000 0.28740  0.16759  0.39050  Biso   1.000  O
  O20      1.0000 0.21260  0.83241  0.89050  Biso   1.000  O
  N21      1.0000 0.11610  0.75319  0.39812  Biso   1.000  N
  N22      1.0000 0.38390  0.24681  0.89812  Biso   1.000  N
  N23      1.0000 0.61610  0.74681  0.60188  Biso   1.000  N
  N24      1.0000 0.88390  0.25319  0.10188  Biso   1.000  N
  O21      1.0000 0.99110  0.75670  0.44434  Biso   1.000  O
  O22      1.0000 0.50890  0.24330  0.94434  Biso   1.000  O
  O23      1.0000 0.49110  0.74330  0.55566  Biso   1.000  O
  O24      1.0000 0.00890  0.25670  0.05566  Biso   1.000  O
  O25      1.0000 0.15700  0.67401  0.35851  Biso   1.000  O
  O26      1.0000 0.34300  0.32599  0.85851  Biso   1.000  O
  O27      1.0000 0.65700  0.82599  0.64149  Biso   1.000  O
  O28      1.0000 0.84300  0.17401  0.14149  Biso   1.000  O
  O29      1.0000 0.20280  0.82962  0.39294  Biso   1.000  O
  O30      1.0000 0.29720  0.17038  0.89294  Biso   1.000  O
  O31      1.0000 0.70280  0.67038  0.60706  Biso   1.000  O
  O32      1.0000 0.79720  0.32962  0.10706  Biso   1.000  O
