data_image0
_cell_length_a       8.6806
_cell_length_b       8.7442
_cell_length_c       9.632
_cell_angle_alpha    86.592
_cell_angle_beta     72.793
_cell_angle_gamma    76.428

_symmetry_space_group_name_H-M    "P 1"
_symmetry_int_tables_number       1

loop_
  _symmetry_equiv_pos_as_xyz
  'x, y, z'

loop_
  _atom_site_label
  _atom_site_occupancy
  _atom_site_fract_x
  _atom_site_fract_y
  _atom_site_fract_z
  _atom_site_thermal_displace_type
  _atom_site_B_iso_or_equiv
  _atom_site_type_symbol
  Cu1      1.0000 0.00000  0.50000  0.00000  Biso   1.000  Cu
  O1       1.0000 0.88350  0.45820  0.20240  Biso   1.000  O
  O2       1.0000 0.11650  0.54180  0.79760  Biso   1.000  O
  O3       1.0000 0.68200  0.55700  0.10400  Biso   1.000  O
  O4       1.0000 0.31800  0.44300  0.89600  Biso   1.000  O
  N1       1.0000 0.95880  0.73030  0.04510  Biso   1.000  N
  N2       1.0000 0.04120  0.26970  0.95490  Biso   1.000  N
  N3       1.0000 0.79960  0.96590  0.02740  Biso   1.000  N
  N4       1.0000 0.20040  0.03410  0.97260  Biso   1.000  N
  C1       1.0000 0.89190  0.83030  0.96070  Biso   1.000  C
  C2       1.0000 0.10810  0.16970  0.03930  Biso   1.000  C
  H1       1.0000 0.90710  0.80920  0.86340  Biso   1.000  H
  H2       1.0000 0.09290  0.19080  0.13660  Biso   1.000  H
  C3       1.0000 0.80490  0.95350  0.17050  Biso   1.000  C
  C4       1.0000 0.19510  0.04650  0.82950  Biso   1.000  C
  C5       1.0000 0.72780  0.05390  0.29040  Biso   1.000  C
  C6       1.0000 0.27220  0.94610  0.70960  Biso   1.000  C
  H3       1.0000 0.65930  0.15120  0.28270  Biso   1.000  H
  H4       1.0000 0.34070  0.84880  0.71730  Biso   1.000  H
  C7       1.0000 0.75650  0.00440  0.42080  Biso   1.000  C
  C8       1.0000 0.24350  0.99560  0.57920  Biso   1.000  C
  C9       1.0000 0.86570  0.85760  0.43020  Biso   1.000  C
  C10      1.0000 0.13430  0.14240  0.56980  Biso   1.000  C
  C11      1.0000 0.94090  0.75910  0.31050  Biso   1.000  C
  C12      1.0000 0.05910  0.24090  0.68950  Biso   1.000  C
  H5       1.0000 0.01280  0.66330  0.31660  Biso   1.000  H
  H6       1.0000 0.98720  0.33670  0.68340  Biso   1.000  H
  C13      1.0000 0.90620  0.80680  0.18050  Biso   1.000  C
  C14      1.0000 0.09380  0.19320  0.81950  Biso   1.000  C
  C15      1.0000 0.66970  0.10580  0.55560  Biso   1.000  C
  C16      1.0000 0.33030  0.89420  0.44440  Biso   1.000  C
  H7       1.0000 0.59940  0.19940  0.53180  Biso   1.000  H
  H8       1.0000 0.40060  0.80060  0.46820  Biso   1.000  H
  H9       1.0000 0.75060  0.13390  0.59270  Biso   1.000  H
  H10      1.0000 0.24940  0.86610  0.40730  Biso   1.000  H
  H11      1.0000 0.60390  0.04830  0.62800  Biso   1.000  H
  H12      1.0000 0.39610  0.95170  0.37200  Biso   1.000  H
  C17      1.0000 0.89990  0.80780  0.57210  Biso   1.000  C
  C18      1.0000 0.10010  0.19220  0.42790  Biso   1.000  C
  H13      1.0000 0.97920  0.70880  0.55910  Biso   1.000  H
  H14      1.0000 0.02080  0.29120  0.44090  Biso   1.000  H
  H15      1.0000 0.79900  0.79710  0.64320  Biso   1.000  H
  H16      1.0000 0.20100  0.20290  0.35680  Biso   1.000  H
  H17      1.0000 0.94350  0.88570  0.60460  Biso   1.000  H
  H18      1.0000 0.05650  0.11430  0.39540  Biso   1.000  H
  C19      1.0000 0.69300  0.09120  0.96870  Biso   1.000  C
  C20      1.0000 0.30700  0.90880  0.03130  Biso   1.000  C
  H19      1.0000 0.73200  0.08630  0.86340  Biso   1.000  H
  H20      1.0000 0.26800  0.91370  0.13660  Biso   1.000  H
  H21      1.0000 0.70040  0.19230  0.99930  Biso   1.000  H
  H22      1.0000 0.29960  0.80770  0.00070  Biso   1.000  H
  C21      1.0000 0.51230  0.07850  0.01910  Biso   1.000  C
  C22      1.0000 0.48770  0.92150  0.98090  Biso   1.000  C
  H23      1.0000 0.47060  0.09390  0.12360  Biso   1.000  H
  H24      1.0000 0.52940  0.90610  0.87640  Biso   1.000  H
  H25      1.0000 0.44760  0.16210  0.97510  Biso   1.000  H
  H26      1.0000 0.55240  0.83790  0.02490  Biso   1.000  H
  C23      1.0000 0.60920  0.49940  0.35770  Biso   1.000  C
  C24      1.0000 0.39080  0.50060  0.64230  Biso   1.000  C
  C25      1.0000 0.73110  0.50540  0.20850  Biso   1.000  C
  C26      1.0000 0.26890  0.49460  0.79150  Biso   1.000  C
  Cl1      1.0000 0.37182  0.46148  0.23652  Biso   1.000  Cl
  Cl2      1.0000 0.62818  0.53852  0.76348  Biso   1.000  Cl
  C27      1.0000 0.65930  0.51600  0.47980  Biso   1.000  C
  C28      1.0000 0.34070  0.48400  0.52020  Biso   1.000  C
  H27      1.0000 0.76650  0.52690  0.46750  Biso   1.000  H
  H28      1.0000 0.23350  0.47310  0.53250  Biso   1.000  H
  C29      1.0000 0.44800  0.48350  0.38000  Biso   1.000  C
  C30      1.0000 0.55200  0.51650  0.62000  Biso   1.000  C
