data_image0
_cell_length_a       10.2916
_cell_length_b       10.799
_cell_length_c       11.199
_cell_angle_alpha    111.566
_cell_angle_beta     94.742
_cell_angle_gamma    96.7

_symmetry_space_group_name_H-M    "P 1"
_symmetry_int_tables_number       1

loop_
  _symmetry_equiv_pos_as_xyz
  'x, y, z'

loop_
  _atom_site_label
  _atom_site_occupancy
  _atom_site_fract_x
  _atom_site_fract_y
  _atom_site_fract_z
  _atom_site_thermal_displace_type
  _atom_site_B_iso_or_equiv
  _atom_site_type_symbol
  Cu1      1.0000 0.51963  0.13928  0.00226  Biso   1.000  Cu
  Cu2      1.0000 0.48037  0.86072  0.99774  Biso   1.000  Cu
  Cu3      1.0000 0.34313  0.87702  0.73083  Biso   1.000  Cu
  Cu4      1.0000 0.65687  0.12298  0.26917  Biso   1.000  Cu
  S1       1.0000 0.25326  0.19039  0.33463  Biso   1.000  S
  S2       1.0000 0.74674  0.80961  0.66537  Biso   1.000  S
  O1       1.0000 0.49160  0.21740  0.87480  Biso   1.000  O
  O2       1.0000 0.50840  0.78260  0.12520  Biso   1.000  O
  O3       1.0000 0.32420  0.06280  0.74000  Biso   1.000  O
  O4       1.0000 0.67580  0.93720  0.26000  Biso   1.000  O
  O5       1.0000 0.38430  0.69200  0.68330  Biso   1.000  O
  O6       1.0000 0.61570  0.30800  0.31670  Biso   1.000  O
  O7       1.0000 0.47380  0.68000  0.86840  Biso   1.000  O
  O8       1.0000 0.52620  0.32000  0.13160  Biso   1.000  O
  O9       1.0000 0.12160  0.12430  0.33600  Biso   1.000  O
  O10      1.0000 0.87840  0.87570  0.66400  Biso   1.000  O
  O11      1.0000 0.33800  0.08900  0.28470  Biso   1.000  O
  O12      1.0000 0.66200  0.91100  0.71530  Biso   1.000  O
  O13      1.0000 0.25450  0.28600  0.27420  Biso   1.000  O
  O14      1.0000 0.74550  0.71400  0.72580  Biso   1.000  O
  O15      1.0000 0.48540  0.95020  0.87430  Biso   1.000  O
  O16      1.0000 0.51460  0.04980  0.12570  Biso   1.000  O
  H1       1.0000 0.54900  0.93800  0.82600  Biso   1.000  H
  H2       1.0000 0.45100  0.06200  0.17400  Biso   1.000  H
  N1       1.0000 0.24120  0.81380  0.55320  Biso   1.000  N
  N2       1.0000 0.75880  0.18620  0.44680  Biso   1.000  N
  N3       1.0000 0.29470  0.77230  0.44050  Biso   1.000  N
  N4       1.0000 0.70530  0.22770  0.55950  Biso   1.000  N
  N5       1.0000 0.10570  0.81060  0.39300  Biso   1.000  N
  N6       1.0000 0.89430  0.18940  0.60700  Biso   1.000  N
  N7       1.0000 0.19540  0.85330  0.86730  Biso   1.000  N
  N8       1.0000 0.80460  0.14670  0.13270  Biso   1.000  N
  N9       1.0000 0.26160  0.86510  0.98460  Biso   1.000  N
  N10      1.0000 0.73840  0.13490  0.01540  Biso   1.000  N
  N11      1.0000 0.05080  0.84130  0.99770  Biso   1.000  N
  N12      1.0000 0.94920  0.15870  0.00230  Biso   1.000  N
  C1       1.0000 0.93350  0.70490  0.20140  Biso   1.000  C
  C2       1.0000 0.06650  0.29510  0.79860  Biso   1.000  C
  C3       1.0000 0.89530  0.70670  0.07910  Biso   1.000  C
  C4       1.0000 0.10470  0.29330  0.92090  Biso   1.000  C
  C5       1.0000 0.82710  0.58960  0.98100  Biso   1.000  C
  C6       1.0000 0.17290  0.41040  0.01900  Biso   1.000  C
  H3       1.0000 0.80040  0.59100  0.90010  Biso   1.000  H
  H4       1.0000 0.19960  0.40900  0.09990  Biso   1.000  H
  C7       1.0000 0.79860  0.47240  0.00150  Biso   1.000  C
  C8       1.0000 0.20140  0.52760  0.99850  Biso   1.000  C
  H5       1.0000 0.75250  0.39510  0.93550  Biso   1.000  H
  H6       1.0000 0.24750  0.60490  0.06450  Biso   1.000  H
  C9       1.0000 0.83910  0.47020  0.12160  Biso   1.000  C
  C10      1.0000 0.16090  0.52980  0.87840  Biso   1.000  C
  H7       1.0000 0.82140  0.39080  0.13610  Biso   1.000  H
  H8       1.0000 0.17860  0.60920  0.86390  Biso   1.000  H
  C11      1.0000 0.90550  0.58530  0.21950  Biso   1.000  C
  C12      1.0000 0.09450  0.41470  0.78050  Biso   1.000  C
  H9       1.0000 0.93220  0.58260  0.29970  Biso   1.000  H
  H10      1.0000 0.06780  0.41740  0.70030  Biso   1.000  H
  C13      1.0000 0.99420  0.83050  0.31700  Biso   1.000  C
  C14      1.0000 0.00580  0.16950  0.68300  Biso   1.000  C
  H11      1.0000 0.02320  0.90140  0.28700  Biso   1.000  H
  H12      1.0000 0.97680  0.09860  0.71300  Biso   1.000  H
  H13      1.0000 0.92710  0.86040  0.37240  Biso   1.000  H
  H14      1.0000 0.07290  0.13960  0.62760  Biso   1.000  H
  C15      1.0000 0.92240  0.83040  0.04770  Biso   1.000  C
  C16      1.0000 0.07760  0.16960  0.95230  Biso   1.000  C
  H15      1.0000 0.85200  0.82800  0.98330  Biso   1.000  H
  H16      1.0000 0.14800  0.17200  0.01670  Biso   1.000  H
  H17      1.0000 0.92250  0.90980  0.12520  Biso   1.000  H
  H18      1.0000 0.07750  0.09020  0.87480  Biso   1.000  H
  C17      1.0000 0.21440  0.77060  0.34130  Biso   1.000  C
  C18      1.0000 0.78560  0.22940  0.65870  Biso   1.000  C
  H19      1.0000 0.22960  0.74710  0.25560  Biso   1.000  H
  H20      1.0000 0.77040  0.25290  0.74440  Biso   1.000  H
  C19      1.0000 0.12400  0.83610  0.51870  Biso   1.000  C
  C20      1.0000 0.87600  0.16390  0.48130  Biso   1.000  C
  H21      1.0000 0.06240  0.86560  0.57470  Biso   1.000  H
  H22      1.0000 0.93760  0.13440  0.42530  Biso   1.000  H
  C21      1.0000 0.06920  0.83750  0.87790  Biso   1.000  C
  C22      1.0000 0.93080  0.16250  0.12210  Biso   1.000  C
  H23      1.0000 0.00160  0.82530  0.81220  Biso   1.000  H
  H24      1.0000 0.99840  0.17470  0.18780  Biso   1.000  H
  C23      1.0000 0.17290  0.85810  0.05980  Biso   1.000  C
  C24      1.0000 0.82710  0.14190  0.94020  Biso   1.000  C
  H25      1.0000 0.19170  0.86390  0.14450  Biso   1.000  H
  H26      1.0000 0.80830  0.13610  0.85550  Biso   1.000  H
  C25      1.0000 0.38940  0.26040  0.70220  Biso   1.000  C
  C26      1.0000 0.61060  0.73960  0.29780  Biso   1.000  C
  C27      1.0000 0.42740  0.40020  0.75830  Biso   1.000  C
  C28      1.0000 0.57260  0.59980  0.24170  Biso   1.000  C
  H27      1.0000 0.46690  0.44110  0.84400  Biso   1.000  H
  H28      1.0000 0.53310  0.55890  0.15600  Biso   1.000  H
  C29      1.0000 0.40610  0.47830  0.68560  Biso   1.000  C
  C30      1.0000 0.59390  0.52170  0.31440  Biso   1.000  C
  C31      1.0000 0.35420  0.41650  0.55530  Biso   1.000  C
  C32      1.0000 0.64580  0.58350  0.44470  Biso   1.000  C
  H29      1.0000 0.34200  0.46810  0.50580  Biso   1.000  H
  H30      1.0000 0.65800  0.53190  0.49420  Biso   1.000  H
  C33      1.0000 0.32070  0.27720  0.49980  Biso   1.000  C
  C34      1.0000 0.67930  0.72280  0.50020  Biso   1.000  C
  C35      1.0000 0.33630  0.20080  0.57360  Biso   1.000  C
  C36      1.0000 0.66370  0.79920  0.42640  Biso   1.000  C
  H31      1.0000 0.31070  0.10780  0.53590  Biso   1.000  H
  H32      1.0000 0.68930  0.89220  0.46410  Biso   1.000  H
  C37      1.0000 0.40270  0.17300  0.77850  Biso   1.000  C
  C38      1.0000 0.59730  0.82700  0.22150  Biso   1.000  C
  C39      1.0000 0.42490  0.63030  0.75040  Biso   1.000  C
  C40      1.0000 0.57510  0.36970  0.24960  Biso   1.000  C
