data_image0
_cell_length_a       12.6916
_cell_length_b       13.6709
_cell_length_c       11.7914
_cell_angle_alpha    90
_cell_angle_beta     107.794
_cell_angle_gamma    90

_symmetry_space_group_name_H-M    "P 1"
_symmetry_int_tables_number       1

loop_
  _symmetry_equiv_pos_as_xyz
  'x, y, z'

loop_
  _atom_site_label
  _atom_site_occupancy
  _atom_site_fract_x
  _atom_site_fract_y
  _atom_site_fract_z
  _atom_site_thermal_displace_type
  _atom_site_B_iso_or_equiv
  _atom_site_type_symbol
  Cu1      1.0000 0.36280  0.85052  0.09271  Biso   1.000  Cu
  Cu2      1.0000 0.63720  0.35052  0.40729  Biso   1.000  Cu
  Cu3      1.0000 0.63720  0.14948  0.90729  Biso   1.000  Cu
  Cu4      1.0000 0.36280  0.64948  0.59271  Biso   1.000  Cu
  Cl1      1.0000 0.62286  0.92063  0.43684  Biso   1.000  Cl
  Cl2      1.0000 0.37714  0.42063  0.06316  Biso   1.000  Cl
  Cl3      1.0000 0.37714  0.07937  0.56316  Biso   1.000  Cl
  Cl4      1.0000 0.62286  0.57937  0.93684  Biso   1.000  Cl
  Cl5      1.0000 0.82214  0.62140  0.71077  Biso   1.000  Cl
  Cl6      1.0000 0.17786  0.12140  0.78923  Biso   1.000  Cl
  Cl7      1.0000 0.17786  0.37860  0.28923  Biso   1.000  Cl
  Cl8      1.0000 0.82214  0.87860  0.21077  Biso   1.000  Cl
  O1       1.0000 0.42808  0.81419  0.25929  Biso   1.000  O
  O2       1.0000 0.57192  0.31419  0.24071  Biso   1.000  O
  O3       1.0000 0.57192  0.18581  0.74071  Biso   1.000  O
  O4       1.0000 0.42808  0.68581  0.75929  Biso   1.000  O
  O5       1.0000 0.28683  0.87057  0.92358  Biso   1.000  O
  O6       1.0000 0.71317  0.37057  0.57642  Biso   1.000  O
  O7       1.0000 0.71317  0.12943  0.07642  Biso   1.000  O
  O8       1.0000 0.28683  0.62943  0.42358  Biso   1.000  O
  O9       1.0000 0.79706  0.88900  0.92390  Biso   1.000  O
  O10      1.0000 0.20294  0.38900  0.57610  Biso   1.000  O
  O11      1.0000 0.20294  0.11100  0.07610  Biso   1.000  O
  O12      1.0000 0.79706  0.61100  0.42390  Biso   1.000  O
  O13      1.0000 0.77477  0.91240  0.73680  Biso   1.000  O
  O14      1.0000 0.22523  0.41240  0.76320  Biso   1.000  O
  O15      1.0000 0.22523  0.08760  0.26320  Biso   1.000  O
  O16      1.0000 0.77477  0.58760  0.23680  Biso   1.000  O
  O17      1.0000 0.41123  0.00986  0.12050  Biso   1.000  O
  O18      1.0000 0.58877  0.50986  0.37950  Biso   1.000  O
  O19      1.0000 0.58877  0.99014  0.87950  Biso   1.000  O
  O20      1.0000 0.41123  0.49014  0.62050  Biso   1.000  O
  H1       1.0000 0.34730  0.04250  0.11430  Biso   1.000  H
  H2       1.0000 0.65270  0.54250  0.38570  Biso   1.000  H
  H3       1.0000 0.65270  0.95750  0.88570  Biso   1.000  H
  H4       1.0000 0.34730  0.45750  0.61430  Biso   1.000  H
  H5       1.0000 0.47300  0.03420  0.17400  Biso   1.000  H
  H6       1.0000 0.52700  0.53420  0.32600  Biso   1.000  H
  H7       1.0000 0.52700  0.96580  0.82600  Biso   1.000  H
  H8       1.0000 0.47300  0.46580  0.67400  Biso   1.000  H
  N1       1.0000 0.33150  0.83460  0.50610  Biso   1.000  N
  N2       1.0000 0.66850  0.33460  0.99390  Biso   1.000  N
  N3       1.0000 0.66850  0.16540  0.49390  Biso   1.000  N
  N4       1.0000 0.33150  0.66540  0.00610  Biso   1.000  N
  N5       1.0000 0.41320  0.81960  0.45030  Biso   1.000  N
  N6       1.0000 0.58680  0.31960  0.04970  Biso   1.000  N
  N7       1.0000 0.58680  0.18040  0.54970  Biso   1.000  N
  N8       1.0000 0.41320  0.68040  0.95030  Biso   1.000  N
  N9       1.0000 0.18060  0.87130  0.20170  Biso   1.000  N
  N10      1.0000 0.81940  0.37130  0.29830  Biso   1.000  N
  N11      1.0000 0.81940  0.12870  0.79830  Biso   1.000  N
  N12      1.0000 0.18060  0.62870  0.70170  Biso   1.000  N
  N13      1.0000 0.21340  0.86680  0.10930  Biso   1.000  N
  N14      1.0000 0.78660  0.36680  0.39070  Biso   1.000  N
  N15      1.0000 0.78660  0.13320  0.89070  Biso   1.000  N
  N16      1.0000 0.21340  0.63320  0.60930  Biso   1.000  N
  N17      1.0000 0.50870  0.69390  0.57200  Biso   1.000  N
  N18      1.0000 0.49130  0.19390  0.92800  Biso   1.000  N
  N19      1.0000 0.49130  0.30610  0.42800  Biso   1.000  N
  N20      1.0000 0.50870  0.80610  0.07200  Biso   1.000  N
  N21      1.0000 0.83410  0.89710  0.83860  Biso   1.000  N
  N22      1.0000 0.16590  0.39710  0.66140  Biso   1.000  N
  N23      1.0000 0.16590  0.10290  0.16140  Biso   1.000  N
  N24      1.0000 0.83410  0.60290  0.33860  Biso   1.000  N
  C1       1.0000 0.37210  0.83120  0.32890  Biso   1.000  C
  C2       1.0000 0.62790  0.33120  0.17110  Biso   1.000  C
  C3       1.0000 0.62790  0.16880  0.67110  Biso   1.000  C
  C4       1.0000 0.37210  0.66880  0.82890  Biso   1.000  C
  C5       1.0000 0.25910  0.85780  0.30770  Biso   1.000  C
  C6       1.0000 0.74090  0.35780  0.19230  Biso   1.000  C
  C7       1.0000 0.74090  0.14220  0.69230  Biso   1.000  C
  C8       1.0000 0.25910  0.64220  0.80770  Biso   1.000  C
  C9       1.0000 0.24200  0.85830  0.42160  Biso   1.000  C
  C10      1.0000 0.75800  0.35830  0.07840  Biso   1.000  C
  C11      1.0000 0.75800  0.14170  0.57840  Biso   1.000  C
  C12      1.0000 0.24200  0.64170  0.92160  Biso   1.000  C
  C13      1.0000 0.13270  0.87570  0.99700  Biso   1.000  C
  C14      1.0000 0.86730  0.37570  0.50300  Biso   1.000  C
  C15      1.0000 0.86730  0.12430  0.00300  Biso   1.000  C
  C16      1.0000 0.13270  0.62430  0.49700  Biso   1.000  C
  C17      1.0000 0.17950  0.87650  0.90240  Biso   1.000  C
  C18      1.0000 0.82050  0.37650  0.59760  Biso   1.000  C
  C19      1.0000 0.82050  0.12350  0.09760  Biso   1.000  C
  C20      1.0000 0.17950  0.62350  0.40240  Biso   1.000  C
  C21      1.0000 0.10620  0.88250  0.78460  Biso   1.000  C
  C22      1.0000 0.89380  0.38250  0.71540  Biso   1.000  C
  C23      1.0000 0.89380  0.11750  0.21540  Biso   1.000  C
  C24      1.0000 0.10620  0.61750  0.28460  Biso   1.000  C
  H9       1.0000 0.13410  0.88190  0.72030  Biso   1.000  H
  H10      1.0000 0.86590  0.38190  0.77970  Biso   1.000  H
  H11      1.0000 0.86590  0.11810  0.27970  Biso   1.000  H
  H12      1.0000 0.13410  0.61810  0.22030  Biso   1.000  H
  C25      1.0000 0.99450  0.88940  0.76530  Biso   1.000  C
  C26      1.0000 0.00550  0.38940  0.73470  Biso   1.000  C
  C27      1.0000 0.00550  0.11060  0.23470  Biso   1.000  C
  C28      1.0000 0.99450  0.61060  0.26530  Biso   1.000  C
  H13      1.0000 0.94680  0.89430  0.68800  Biso   1.000  H
  H14      1.0000 0.05320  0.39430  0.81200  Biso   1.000  H
  H15      1.0000 0.05320  0.10570  0.31200  Biso   1.000  H
  H16      1.0000 0.94680  0.60570  0.18800  Biso   1.000  H
  C29      1.0000 0.95230  0.88910  0.86090  Biso   1.000  C
  C30      1.0000 0.04770  0.38910  0.63910  Biso   1.000  C
  C31      1.0000 0.04770  0.11090  0.13910  Biso   1.000  C
  C32      1.0000 0.95230  0.61090  0.36090  Biso   1.000  C
  C33      1.0000 0.02000  0.88170  0.97790  Biso   1.000  C
  C34      1.0000 0.98000  0.38170  0.52210  Biso   1.000  C
  C35      1.0000 0.98000  0.11830  0.02210  Biso   1.000  C
  C36      1.0000 0.02000  0.61830  0.47790  Biso   1.000  C
  H17      1.0000 0.99060  0.88090  0.04110  Biso   1.000  H
  H18      1.0000 0.00940  0.38090  0.45890  Biso   1.000  H
  H19      1.0000 0.00940  0.11910  0.95890  Biso   1.000  H
  H20      1.0000 0.99060  0.61910  0.54110  Biso   1.000  H
  C37      1.0000 0.51360  0.77480  0.50990  Biso   1.000  C
  C38      1.0000 0.48640  0.27480  0.99010  Biso   1.000  C
  C39      1.0000 0.48640  0.22520  0.49010  Biso   1.000  C
  C40      1.0000 0.51360  0.72520  0.00990  Biso   1.000  C
  C41      1.0000 0.61520  0.81200  0.50590  Biso   1.000  C
  C42      1.0000 0.38480  0.31200  0.99410  Biso   1.000  C
  C43      1.0000 0.38480  0.18800  0.49410  Biso   1.000  C
  C44      1.0000 0.61520  0.68800  0.00590  Biso   1.000  C
  C45      1.0000 0.71070  0.76280  0.56310  Biso   1.000  C
  C46      1.0000 0.28930  0.26280  0.93690  Biso   1.000  C
  C47      1.0000 0.28930  0.23720  0.43690  Biso   1.000  C
  C48      1.0000 0.71070  0.73720  0.06310  Biso   1.000  C
  H21      1.0000 0.77870  0.78380  0.55760  Biso   1.000  H
  H22      1.0000 0.22130  0.28380  0.94240  Biso   1.000  H
  H23      1.0000 0.22130  0.21620  0.44240  Biso   1.000  H
  H24      1.0000 0.77870  0.71620  0.05760  Biso   1.000  H
  C49      1.0000 0.70350  0.68090  0.62920  Biso   1.000  C
  C50      1.0000 0.29650  0.18090  0.87080  Biso   1.000  C
  C51      1.0000 0.29650  0.31910  0.37080  Biso   1.000  C
  C52      1.0000 0.70350  0.81910  0.12920  Biso   1.000  C
  C53      1.0000 0.60150  0.64890  0.63280  Biso   1.000  C
  C54      1.0000 0.39850  0.14890  0.86720  Biso   1.000  C
  C55      1.0000 0.39850  0.35110  0.36720  Biso   1.000  C
  C56      1.0000 0.60150  0.85110  0.13280  Biso   1.000  C
  H25      1.0000 0.59770  0.59460  0.67890  Biso   1.000  H
  H26      1.0000 0.40230  0.09460  0.82110  Biso   1.000  H
  H27      1.0000 0.40230  0.40540  0.32110  Biso   1.000  H
  H28      1.0000 0.59770  0.90540  0.17890  Biso   1.000  H
  C57      1.0000 0.13760  0.88430  0.44720  Biso   1.000  C
  C58      1.0000 0.86240  0.38430  0.05280  Biso   1.000  C
  C59      1.0000 0.86240  0.11570  0.55280  Biso   1.000  C
  C60      1.0000 0.13760  0.61570  0.94720  Biso   1.000  C
  H29      1.0000 0.08130  0.89950  0.37400  Biso   1.000  H
  H30      1.0000 0.91870  0.39950  0.12600  Biso   1.000  H
  H31      1.0000 0.91870  0.10050  0.62600  Biso   1.000  H
  H32      1.0000 0.08130  0.60050  0.87400  Biso   1.000  H
  H33      1.0000 0.11400  0.83010  0.48510  Biso   1.000  H
  H34      1.0000 0.88600  0.33010  0.01490  Biso   1.000  H
  H35      1.0000 0.88600  0.16990  0.51490  Biso   1.000  H
  H36      1.0000 0.11400  0.66990  0.98510  Biso   1.000  H
  H37      1.0000 0.15020  0.94020  0.49890  Biso   1.000  H
  H38      1.0000 0.84980  0.44020  0.00110  Biso   1.000  H
  H39      1.0000 0.84980  0.05980  0.50110  Biso   1.000  H
  H40      1.0000 0.15020  0.55980  0.99890  Biso   1.000  H
  O21      1.0000 0.38541  0.92209  0.75240  Biso   1.000  O
  O22      1.0000 0.61459  0.42209  0.74760  Biso   1.000  O
  O23      1.0000 0.61459  0.07791  0.24760  Biso   1.000  O
  O24      1.0000 0.38541  0.57791  0.25240  Biso   1.000  O
  H41      1.0000 0.35120  0.90630  0.80760  Biso   1.000  H
  H42      1.0000 0.64880  0.40630  0.69240  Biso   1.000  H
  H43      1.0000 0.64880  0.09370  0.19240  Biso   1.000  H
  H44      1.0000 0.35120  0.59370  0.30760  Biso   1.000  H
  H45      1.0000 0.37440  0.87640  0.69460  Biso   1.000  H
  H46      1.0000 0.62560  0.37640  0.80540  Biso   1.000  H
  H47      1.0000 0.62560  0.12360  0.30540  Biso   1.000  H
  H48      1.0000 0.37440  0.62360  0.19460  Biso   1.000  H
