data_image0
_cell_length_a       17.783
_cell_length_b       11.131
_cell_length_c       12.594
_cell_angle_alpha    90
_cell_angle_beta     117.616
_cell_angle_gamma    90

_symmetry_space_group_name_H-M    "P 1"
_symmetry_int_tables_number       1

loop_
  _symmetry_equiv_pos_as_xyz
  'x, y, z'

loop_
  _atom_site_label
  _atom_site_occupancy
  _atom_site_fract_x
  _atom_site_fract_y
  _atom_site_fract_z
  _atom_site_thermal_displace_type
  _atom_site_B_iso_or_equiv
  _atom_site_type_symbol
  Cu1      1.0000 0.23821  0.38026  0.76725  Biso   1.000  Cu
  Cu2      1.0000 0.76179  0.38026  0.73275  Biso   1.000  Cu
  Cu3      1.0000 0.73821  0.88026  0.76725  Biso   1.000  Cu
  Cu4      1.0000 0.26179  0.88026  0.73275  Biso   1.000  Cu
  Cu5      1.0000 0.76179  0.61974  0.23275  Biso   1.000  Cu
  Cu6      1.0000 0.23821  0.61974  0.26725  Biso   1.000  Cu
  Cu7      1.0000 0.26179  0.11974  0.23275  Biso   1.000  Cu
  Cu8      1.0000 0.73821  0.11974  0.26725  Biso   1.000  Cu
  O1       1.0000 0.07143  0.86813  0.64470  Biso   1.000  O
  O2       1.0000 0.92857  0.86813  0.85530  Biso   1.000  O
  O3       1.0000 0.57143  0.36813  0.64470  Biso   1.000  O
  O4       1.0000 0.42857  0.36813  0.85530  Biso   1.000  O
  O5       1.0000 0.92857  0.13187  0.35530  Biso   1.000  O
  O6       1.0000 0.07143  0.13187  0.14470  Biso   1.000  O
  O7       1.0000 0.42857  0.63187  0.35530  Biso   1.000  O
  O8       1.0000 0.57143  0.63187  0.14470  Biso   1.000  O
  N1       1.0000 0.18150  0.74221  0.70073  Biso   1.000  N
  N2       1.0000 0.81850  0.74221  0.79927  Biso   1.000  N
  N3       1.0000 0.68150  0.24221  0.70073  Biso   1.000  N
  N4       1.0000 0.31850  0.24221  0.79927  Biso   1.000  N
  N5       1.0000 0.81850  0.25779  0.29927  Biso   1.000  N
  N6       1.0000 0.18150  0.25779  0.20073  Biso   1.000  N
  N7       1.0000 0.31850  0.75779  0.29927  Biso   1.000  N
  N8       1.0000 0.68150  0.75779  0.20073  Biso   1.000  N
  O9       1.0000 0.08588  0.21635  0.91626  Biso   1.000  O
  O10      1.0000 0.91412  0.21635  0.58374  Biso   1.000  O
  O11      1.0000 0.58588  0.71635  0.91626  Biso   1.000  O
  O12      1.0000 0.41412  0.71635  0.58374  Biso   1.000  O
  O13      1.0000 0.91412  0.78365  0.08374  Biso   1.000  O
  O14      1.0000 0.08588  0.78365  0.41626  Biso   1.000  O
  O15      1.0000 0.41412  0.28365  0.08374  Biso   1.000  O
  O16      1.0000 0.58588  0.28365  0.41626  Biso   1.000  O
  C1       1.0000 0.21310  0.63218  0.72660  Biso   1.000  C
  C2       1.0000 0.78690  0.63218  0.77340  Biso   1.000  C
  C3       1.0000 0.71310  0.13218  0.72660  Biso   1.000  C
  C4       1.0000 0.28690  0.13218  0.77340  Biso   1.000  C
  C5       1.0000 0.78690  0.36782  0.27340  Biso   1.000  C
  C6       1.0000 0.21310  0.36782  0.22660  Biso   1.000  C
  C7       1.0000 0.28690  0.86782  0.27340  Biso   1.000  C
  C8       1.0000 0.71310  0.86782  0.22660  Biso   1.000  C
  H1       1.0000 0.27270  0.62430  0.75710  Biso   1.000  H
  H2       1.0000 0.72730  0.62430  0.74290  Biso   1.000  H
  H3       1.0000 0.77270  0.12430  0.75710  Biso   1.000  H
  H4       1.0000 0.22730  0.12430  0.74290  Biso   1.000  H
  H5       1.0000 0.72730  0.37570  0.24290  Biso   1.000  H
  H6       1.0000 0.27270  0.37570  0.25710  Biso   1.000  H
  H7       1.0000 0.22730  0.87570  0.24290  Biso   1.000  H
  H8       1.0000 0.77270  0.87570  0.25710  Biso   1.000  H
  O17      1.0000 0.15674  0.25544  0.81903  Biso   1.000  O
  O18      1.0000 0.84326  0.25544  0.68097  Biso   1.000  O
  O19      1.0000 0.65674  0.75544  0.81903  Biso   1.000  O
  O20      1.0000 0.34326  0.75544  0.68097  Biso   1.000  O
  O21      1.0000 0.84326  0.74456  0.18097  Biso   1.000  O
  O22      1.0000 0.15674  0.74456  0.31903  Biso   1.000  O
  O23      1.0000 0.34326  0.24456  0.18097  Biso   1.000  O
  O24      1.0000 0.65674  0.24456  0.31903  Biso   1.000  O
  N9       1.0000 0.16926  0.53145  0.71398  Biso   1.000  N
  N10      1.0000 0.83074  0.53145  0.78602  Biso   1.000  N
  N11      1.0000 0.66926  0.03145  0.71398  Biso   1.000  N
  N12      1.0000 0.33074  0.03145  0.78602  Biso   1.000  N
  N13      1.0000 0.83074  0.46855  0.28602  Biso   1.000  N
  N14      1.0000 0.16926  0.46855  0.21398  Biso   1.000  N
  N15      1.0000 0.33074  0.96855  0.28602  Biso   1.000  N
  N16      1.0000 0.66926  0.96855  0.21398  Biso   1.000  N
  O25      1.0000 0.13919  0.39409  0.92635  Biso   1.000  O
  O26      1.0000 0.86081  0.39409  0.57365  Biso   1.000  O
  O27      1.0000 0.63919  0.89409  0.92635  Biso   1.000  O
  O28      1.0000 0.36081  0.89409  0.57365  Biso   1.000  O
  O29      1.0000 0.86081  0.60591  0.07365  Biso   1.000  O
  O30      1.0000 0.13919  0.60591  0.42635  Biso   1.000  O
  O31      1.0000 0.36081  0.10591  0.07365  Biso   1.000  O
  O32      1.0000 0.63919  0.10591  0.42635  Biso   1.000  O
  N17      1.0000 0.03733  0.44170  0.64403  Biso   1.000  N
  N18      1.0000 0.96267  0.44170  0.85597  Biso   1.000  N
  N19      1.0000 0.53733  0.94170  0.64403  Biso   1.000  N
  N20      1.0000 0.46267  0.94170  0.85597  Biso   1.000  N
  N21      1.0000 0.96267  0.55830  0.35597  Biso   1.000  N
  N22      1.0000 0.03733  0.55830  0.14403  Biso   1.000  N
  N23      1.0000 0.46267  0.05830  0.35597  Biso   1.000  N
  N24      1.0000 0.53733  0.05830  0.14403  Biso   1.000  N
  H9       1.0000 0.06250  0.37110  0.66000  Biso   1.000  H
  H10      1.0000 0.93750  0.37110  0.84000  Biso   1.000  H
  H11      1.0000 0.56250  0.87110  0.66000  Biso   1.000  H
  H12      1.0000 0.43750  0.87110  0.84000  Biso   1.000  H
  H13      1.0000 0.93750  0.62890  0.34000  Biso   1.000  H
  H14      1.0000 0.06250  0.62890  0.16000  Biso   1.000  H
  H15      1.0000 0.43750  0.12890  0.34000  Biso   1.000  H
  H16      1.0000 0.56250  0.12890  0.16000  Biso   1.000  H
  H17      1.0000 0.98180  0.44620  0.61330  Biso   1.000  H
  H18      1.0000 0.01820  0.44620  0.88670  Biso   1.000  H
  H19      1.0000 0.48180  0.94620  0.61330  Biso   1.000  H
  H20      1.0000 0.51820  0.94620  0.88670  Biso   1.000  H
  H21      1.0000 0.01820  0.55380  0.38670  Biso   1.000  H
  H22      1.0000 0.98180  0.55380  0.11330  Biso   1.000  H
  H23      1.0000 0.51820  0.05380  0.38670  Biso   1.000  H
  H24      1.0000 0.48180  0.05380  0.11330  Biso   1.000  H
  C9       1.0000 0.08328  0.54154  0.66638  Biso   1.000  C
  C10      1.0000 0.91672  0.54154  0.83362  Biso   1.000  C
  C11      1.0000 0.58328  0.04154  0.66638  Biso   1.000  C
  C12      1.0000 0.41672  0.04154  0.83362  Biso   1.000  C
  C13      1.0000 0.91672  0.45846  0.33362  Biso   1.000  C
  C14      1.0000 0.08328  0.45846  0.16638  Biso   1.000  C
  C15      1.0000 0.41672  0.95846  0.33362  Biso   1.000  C
  C16      1.0000 0.58328  0.95846  0.16638  Biso   1.000  C
  O33      1.0000 0.16951  0.31424  0.60216  Biso   1.000  O
  O34      1.0000 0.83049  0.31424  0.89784  Biso   1.000  O
  O35      1.0000 0.66951  0.81424  0.60216  Biso   1.000  O
  O36      1.0000 0.33049  0.81424  0.89784  Biso   1.000  O
  O37      1.0000 0.83049  0.68576  0.39784  Biso   1.000  O
  O38      1.0000 0.16951  0.68576  0.10216  Biso   1.000  O
  O39      1.0000 0.33049  0.18576  0.39784  Biso   1.000  O
  O40      1.0000 0.66951  0.18576  0.10216  Biso   1.000  O
  N25      1.0000 0.12761  0.28926  0.88822  Biso   1.000  N
  N26      1.0000 0.87239  0.28926  0.61178  Biso   1.000  N
  N27      1.0000 0.62761  0.78926  0.88822  Biso   1.000  N
  N28      1.0000 0.37239  0.78926  0.61178  Biso   1.000  N
  N29      1.0000 0.87239  0.71074  0.11178  Biso   1.000  N
  N30      1.0000 0.12761  0.71074  0.38822  Biso   1.000  N
  N31      1.0000 0.37239  0.21074  0.11178  Biso   1.000  N
  N32      1.0000 0.62761  0.21074  0.38822  Biso   1.000  N
  C17      1.0000 0.04450  0.65563  0.64090  Biso   1.000  C
  C18      1.0000 0.95550  0.65563  0.85910  Biso   1.000  C
  C19      1.0000 0.54450  0.15563  0.64090  Biso   1.000  C
  C20      1.0000 0.45550  0.15563  0.85910  Biso   1.000  C
  C21      1.0000 0.95550  0.34437  0.35910  Biso   1.000  C
  C22      1.0000 0.04450  0.34437  0.14090  Biso   1.000  C
  C23      1.0000 0.45550  0.84437  0.35910  Biso   1.000  C
  C24      1.0000 0.54450  0.84437  0.14090  Biso   1.000  C
  H25      1.0000 0.98500  0.66430  0.61110  Biso   1.000  H
  H26      1.0000 0.01500  0.66430  0.88890  Biso   1.000  H
  H27      1.0000 0.48500  0.16430  0.61110  Biso   1.000  H
  H28      1.0000 0.51500  0.16430  0.88890  Biso   1.000  H
  H29      1.0000 0.01500  0.33570  0.38890  Biso   1.000  H
  H30      1.0000 0.98500  0.33570  0.11110  Biso   1.000  H
  H31      1.0000 0.51500  0.83570  0.38890  Biso   1.000  H
  H32      1.0000 0.48500  0.83570  0.11110  Biso   1.000  H
  O41      1.0000 0.16746  0.33205  0.42888  Biso   1.000  O
  O42      1.0000 0.83254  0.33205  0.07112  Biso   1.000  O
  O43      1.0000 0.66746  0.83205  0.42888  Biso   1.000  O
  O44      1.0000 0.33254  0.83205  0.07112  Biso   1.000  O
  O45      1.0000 0.83254  0.66795  0.57112  Biso   1.000  O
  O46      1.0000 0.16746  0.66795  0.92888  Biso   1.000  O
  O47      1.0000 0.33254  0.16795  0.57112  Biso   1.000  O
  O48      1.0000 0.66746  0.16795  0.92888  Biso   1.000  O
  N33      1.0000 0.20107  0.35799  0.53587  Biso   1.000  N
  N34      1.0000 0.79893  0.35799  0.96413  Biso   1.000  N
  N35      1.0000 0.70107  0.85799  0.53587  Biso   1.000  N
  N36      1.0000 0.29893  0.85799  0.96413  Biso   1.000  N
  N37      1.0000 0.79893  0.64201  0.46413  Biso   1.000  N
  N38      1.0000 0.20107  0.64201  0.03587  Biso   1.000  N
  N39      1.0000 0.29893  0.14201  0.46413  Biso   1.000  N
  N40      1.0000 0.70107  0.14201  0.03587  Biso   1.000  N
  C25      1.0000 0.09624  0.75376  0.66088  Biso   1.000  C
  C26      1.0000 0.90376  0.75376  0.83912  Biso   1.000  C
  C27      1.0000 0.59624  0.25376  0.66088  Biso   1.000  C
  C28      1.0000 0.40376  0.25376  0.83912  Biso   1.000  C
  C29      1.0000 0.90376  0.24624  0.33912  Biso   1.000  C
  C30      1.0000 0.09624  0.24624  0.16088  Biso   1.000  C
  C31      1.0000 0.40376  0.74624  0.33912  Biso   1.000  C
  C32      1.0000 0.59624  0.74624  0.16088  Biso   1.000  C
  O49      1.0000 0.26459  0.42442  0.58479  Biso   1.000  O
  O50      1.0000 0.73541  0.42442  0.91521  Biso   1.000  O
  O51      1.0000 0.76459  0.92442  0.58479  Biso   1.000  O
  O52      1.0000 0.23541  0.92442  0.91521  Biso   1.000  O
  O53      1.0000 0.73541  0.57558  0.41521  Biso   1.000  O
  O54      1.0000 0.26459  0.57558  0.08479  Biso   1.000  O
  O55      1.0000 0.23541  0.07558  0.41521  Biso   1.000  O
  O56      1.0000 0.76459  0.07558  0.08479  Biso   1.000  O
  C33      1.0000 0.98162  0.89236  0.59320  Biso   1.000  C
  C34      1.0000 0.01838  0.89236  0.90680  Biso   1.000  C
  C35      1.0000 0.48162  0.39236  0.59320  Biso   1.000  C
  C36      1.0000 0.51838  0.39236  0.90680  Biso   1.000  C
  C37      1.0000 0.01838  0.10764  0.40680  Biso   1.000  C
  C38      1.0000 0.98162  0.10764  0.09320  Biso   1.000  C
  C39      1.0000 0.51838  0.60764  0.40680  Biso   1.000  C
  C40      1.0000 0.48162  0.60764  0.09320  Biso   1.000  C
  H33      1.0000 0.95310  0.86220  0.51070  Biso   1.000  H
  H34      1.0000 0.04690  0.86220  0.98930  Biso   1.000  H
  H35      1.0000 0.45310  0.36220  0.51070  Biso   1.000  H
  H36      1.0000 0.54690  0.36220  0.98930  Biso   1.000  H
  H37      1.0000 0.04690  0.13780  0.48930  Biso   1.000  H
  H38      1.0000 0.95310  0.13780  0.01070  Biso   1.000  H
  H39      1.0000 0.54690  0.63780  0.48930  Biso   1.000  H
  H40      1.0000 0.45310  0.63780  0.01070  Biso   1.000  H
  H41      1.0000 0.97250  0.97920  0.59320  Biso   1.000  H
  H42      1.0000 0.02750  0.97920  0.90680  Biso   1.000  H
  H43      1.0000 0.47250  0.47920  0.59320  Biso   1.000  H
  H44      1.0000 0.52750  0.47920  0.90680  Biso   1.000  H
  H45      1.0000 0.02750  0.02080  0.40680  Biso   1.000  H
  H46      1.0000 0.97250  0.02080  0.09320  Biso   1.000  H
  H47      1.0000 0.52750  0.52080  0.40680  Biso   1.000  H
  H48      1.0000 0.47250  0.52080  0.09320  Biso   1.000  H
  H49      1.0000 0.95830  0.85210  0.64070  Biso   1.000  H
  H50      1.0000 0.04170  0.85210  0.85930  Biso   1.000  H
  H51      1.0000 0.45830  0.35210  0.64070  Biso   1.000  H
  H52      1.0000 0.54170  0.35210  0.85930  Biso   1.000  H
  H53      1.0000 0.04170  0.14790  0.35930  Biso   1.000  H
  H54      1.0000 0.95830  0.14790  0.14070  Biso   1.000  H
  H55      1.0000 0.54170  0.64790  0.35930  Biso   1.000  H
  H56      1.0000 0.45830  0.64790  0.14070  Biso   1.000  H
  O57      1.0000 0.30669  0.45212  0.92689  Biso   1.000  O
  O58      1.0000 0.69331  0.45212  0.57311  Biso   1.000  O
  O59      1.0000 0.80669  0.95212  0.92689  Biso   1.000  O
  O60      1.0000 0.19331  0.95212  0.57311  Biso   1.000  O
  O61      1.0000 0.69331  0.54788  0.07311  Biso   1.000  O
  O62      1.0000 0.30669  0.54788  0.42689  Biso   1.000  O
  O63      1.0000 0.19331  0.04788  0.07311  Biso   1.000  O
  O64      1.0000 0.80669  0.04788  0.42689  Biso   1.000  O
  H57      1.0000 0.33930  0.40600  0.97800  Biso   1.000  H
  H58      1.0000 0.66070  0.40600  0.52200  Biso   1.000  H
  H59      1.0000 0.83930  0.90600  0.97800  Biso   1.000  H
  H60      1.0000 0.16070  0.90600  0.52200  Biso   1.000  H
  H61      1.0000 0.66070  0.59400  0.02200  Biso   1.000  H
  H62      1.0000 0.33930  0.59400  0.47800  Biso   1.000  H
  H63      1.0000 0.16070  0.09400  0.02200  Biso   1.000  H
  H64      1.0000 0.83930  0.09400  0.47800  Biso   1.000  H
  H65      1.0000 0.28100  0.47900  0.96200  Biso   1.000  H
  H66      1.0000 0.71900  0.47900  0.53800  Biso   1.000  H
  H67      1.0000 0.78100  0.97900  0.96200  Biso   1.000  H
  H68      1.0000 0.21900  0.97900  0.53800  Biso   1.000  H
  H69      1.0000 0.71900  0.52100  0.03800  Biso   1.000  H
  H70      1.0000 0.28100  0.52100  0.46200  Biso   1.000  H
  H71      1.0000 0.21900  0.02100  0.03800  Biso   1.000  H
  H72      1.0000 0.78100  0.02100  0.46200  Biso   1.000  H
