data_image0
_cell_length_a       16.069
_cell_length_b       16.859
_cell_length_c       6.997
_cell_angle_alpha    90
_cell_angle_beta     90
_cell_angle_gamma    90

_symmetry_space_group_name_H-M    "P 1"
_symmetry_int_tables_number       1

loop_
  _symmetry_equiv_pos_as_xyz
  'x, y, z'

loop_
  _atom_site_label
  _atom_site_occupancy
  _atom_site_fract_x
  _atom_site_fract_y
  _atom_site_fract_z
  _atom_site_thermal_displace_type
  _atom_site_B_iso_or_equiv
  _atom_site_type_symbol
  Cu1      1.0000 0.36239  0.35438  0.32420  Biso   1.000  Cu
  Cu2      1.0000 0.63761  0.64562  0.82420  Biso   1.000  Cu
  Cu3      1.0000 0.86239  0.14562  0.32420  Biso   1.000  Cu
  Cu4      1.0000 0.13761  0.85438  0.82420  Biso   1.000  Cu
  O1       1.0000 0.31630  0.33130  0.62620  Biso   1.000  O
  O2       1.0000 0.68370  0.66870  0.12620  Biso   1.000  O
  O3       1.0000 0.81630  0.16870  0.62620  Biso   1.000  O
  O4       1.0000 0.18370  0.83130  0.12620  Biso   1.000  O
  H1       1.0000 0.35430  0.31270  0.69040  Biso   1.000  H
  H2       1.0000 0.64570  0.68730  0.19040  Biso   1.000  H
  H3       1.0000 0.85430  0.18730  0.69040  Biso   1.000  H
  H4       1.0000 0.14570  0.81270  0.19040  Biso   1.000  H
  O5       1.0000 0.34930  0.24190  0.26170  Biso   1.000  O
  O6       1.0000 0.65070  0.75810  0.76170  Biso   1.000  O
  O7       1.0000 0.84930  0.25810  0.26170  Biso   1.000  O
  O8       1.0000 0.15070  0.74190  0.76170  Biso   1.000  O
  O9       1.0000 0.38590  0.27277  0.96380  Biso   1.000  O
  O10      1.0000 0.61410  0.72723  0.46380  Biso   1.000  O
  O11      1.0000 0.88590  0.22723  0.96380  Biso   1.000  O
  O12      1.0000 0.11410  0.77277  0.46380  Biso   1.000  O
  O13      1.0000 0.34060  0.12528  0.83480  Biso   1.000  O
  O14      1.0000 0.65940  0.87472  0.33480  Biso   1.000  O
  O15      1.0000 0.84060  0.37472  0.83480  Biso   1.000  O
  O16      1.0000 0.15940  0.62528  0.33480  Biso   1.000  O
  O17      1.0000 0.64210  0.10890  0.80790  Biso   1.000  O
  O18      1.0000 0.35790  0.89110  0.30790  Biso   1.000  O
  O19      1.0000 0.14210  0.39110  0.80790  Biso   1.000  O
  O20      1.0000 0.85790  0.60890  0.30790  Biso   1.000  O
  O21      1.0000 0.78470  0.07120  0.96440  Biso   1.000  O
  O22      1.0000 0.21530  0.92880  0.46440  Biso   1.000  O
  O23      1.0000 0.28470  0.42880  0.96440  Biso   1.000  O
  O24      1.0000 0.71530  0.57120  0.46440  Biso   1.000  O
  O25      1.0000 0.74859  0.12500  0.24530  Biso   1.000  O
  O26      1.0000 0.25141  0.87500  0.74530  Biso   1.000  O
  O27      1.0000 0.24859  0.37500  0.24530  Biso   1.000  O
  O28      1.0000 0.75141  0.62500  0.74530  Biso   1.000  O
  N1       1.0000 0.39403  0.46984  0.35350  Biso   1.000  N
  N2       1.0000 0.60597  0.53016  0.85350  Biso   1.000  N
  N3       1.0000 0.89403  0.03016  0.35350  Biso   1.000  N
  N4       1.0000 0.10597  0.96984  0.85350  Biso   1.000  N
  N5       1.0000 0.48602  0.34280  0.37220  Biso   1.000  N
  N6       1.0000 0.51398  0.65720  0.87220  Biso   1.000  N
  N7       1.0000 0.98602  0.15720  0.37220  Biso   1.000  N
  N8       1.0000 0.01398  0.84280  0.87220  Biso   1.000  N
  C1       1.0000 0.36070  0.22620  0.08560  Biso   1.000  C
  C2       1.0000 0.63930  0.77380  0.58560  Biso   1.000  C
  C3       1.0000 0.86070  0.27380  0.08560  Biso   1.000  C
  C4       1.0000 0.13930  0.72620  0.58560  Biso   1.000  C
  C5       1.0000 0.34130  0.14100  0.03120  Biso   1.000  C
  C6       1.0000 0.65870  0.85900  0.53120  Biso   1.000  C
  C7       1.0000 0.84130  0.35900  0.03120  Biso   1.000  C
  C8       1.0000 0.15870  0.64100  0.53120  Biso   1.000  C
  H5       1.0000 0.38220  0.10670  0.09110  Biso   1.000  H
  H6       1.0000 0.61780  0.89330  0.59110  Biso   1.000  H
  H7       1.0000 0.88220  0.39330  0.09110  Biso   1.000  H
  H8       1.0000 0.11780  0.60670  0.59110  Biso   1.000  H
  H9       1.0000 0.28730  0.12720  0.08340  Biso   1.000  H
  H10      1.0000 0.71270  0.87280  0.58340  Biso   1.000  H
  H11      1.0000 0.78730  0.37280  0.08340  Biso   1.000  H
  H12      1.0000 0.21270  0.62720  0.58340  Biso   1.000  H
  C9       1.0000 0.41570  0.11160  0.74280  Biso   1.000  C
  C10      1.0000 0.58430  0.88840  0.24280  Biso   1.000  C
  C11      1.0000 0.91570  0.38840  0.74280  Biso   1.000  C
  C12      1.0000 0.08430  0.61160  0.24280  Biso   1.000  C
  C13      1.0000 0.41120  0.08420  0.55570  Biso   1.000  C
  C14      1.0000 0.58880  0.91580  0.05570  Biso   1.000  C
  C15      1.0000 0.91120  0.41580  0.55570  Biso   1.000  C
  C16      1.0000 0.08880  0.58420  0.05570  Biso   1.000  C
  H13      1.0000 0.35970  0.07720  0.49740  Biso   1.000  H
  H14      1.0000 0.64030  0.92280  0.99740  Biso   1.000  H
  H15      1.0000 0.85970  0.42280  0.49740  Biso   1.000  H
  H16      1.0000 0.14030  0.57720  0.99740  Biso   1.000  H
  C17      1.0000 0.48310  0.06760  0.45700  Biso   1.000  C
  C18      1.0000 0.51690  0.93240  0.95700  Biso   1.000  C
  C19      1.0000 0.98310  0.43240  0.45700  Biso   1.000  C
  C20      1.0000 0.01690  0.56760  0.95700  Biso   1.000  C
  H17      1.0000 0.47990  0.05000  0.33130  Biso   1.000  H
  H18      1.0000 0.52010  0.95000  0.83130  Biso   1.000  H
  H19      1.0000 0.97990  0.45000  0.33130  Biso   1.000  H
  H20      1.0000 0.02010  0.55000  0.83130  Biso   1.000  H
  C21      1.0000 0.55970  0.07680  0.54210  Biso   1.000  C
  C22      1.0000 0.44030  0.92320  0.04210  Biso   1.000  C
  C23      1.0000 0.05970  0.42320  0.54210  Biso   1.000  C
  C24      1.0000 0.94030  0.57680  0.04210  Biso   1.000  C
  H21      1.0000 0.60820  0.06500  0.47530  Biso   1.000  H
  H22      1.0000 0.39180  0.93500  0.97530  Biso   1.000  H
  H23      1.0000 0.10820  0.43500  0.47530  Biso   1.000  H
  H24      1.0000 0.89180  0.56500  0.97530  Biso   1.000  H
  C25      1.0000 0.56350  0.10430  0.73190  Biso   1.000  C
  C26      1.0000 0.43650  0.89570  0.23190  Biso   1.000  C
  C27      1.0000 0.06350  0.39570  0.73190  Biso   1.000  C
  C28      1.0000 0.93650  0.60430  0.23190  Biso   1.000  C
  C29      1.0000 0.49230  0.12450  0.82710  Biso   1.000  C
  C30      1.0000 0.50770  0.87550  0.32710  Biso   1.000  C
  C31      1.0000 0.99230  0.37550  0.82710  Biso   1.000  C
  C32      1.0000 0.00770  0.62450  0.32710  Biso   1.000  C
  H25      1.0000 0.49540  0.14690  0.94830  Biso   1.000  H
  H26      1.0000 0.50460  0.85310  0.44830  Biso   1.000  H
  H27      1.0000 0.99540  0.35310  0.94830  Biso   1.000  H
  H28      1.0000 0.00460  0.64690  0.44830  Biso   1.000  H
  C33      1.0000 0.64860  0.12590  0.00230  Biso   1.000  C
  C34      1.0000 0.35140  0.87410  0.50230  Biso   1.000  C
  C35      1.0000 0.14860  0.37410  0.00230  Biso   1.000  C
  C36      1.0000 0.85140  0.62590  0.50230  Biso   1.000  C
  H29      1.0000 0.60770  0.09550  0.07330  Biso   1.000  H
  H30      1.0000 0.39230  0.90450  0.57330  Biso   1.000  H
  H31      1.0000 0.10770  0.40450  0.07330  Biso   1.000  H
  H32      1.0000 0.89230  0.59550  0.57330  Biso   1.000  H
  H33      1.0000 0.63810  0.18180  0.02420  Biso   1.000  H
  H34      1.0000 0.36190  0.81820  0.52420  Biso   1.000  H
  H35      1.0000 0.13810  0.31820  0.02420  Biso   1.000  H
  H36      1.0000 0.86190  0.68180  0.52420  Biso   1.000  H
  C37      1.0000 0.73570  0.10470  0.07020  Biso   1.000  C
  C38      1.0000 0.26430  0.89530  0.57020  Biso   1.000  C
  C39      1.0000 0.23570  0.39530  0.07020  Biso   1.000  C
  C40      1.0000 0.76430  0.60470  0.57020  Biso   1.000  C
  C41      1.0000 0.34210  0.53070  0.34780  Biso   1.000  C
  C42      1.0000 0.65790  0.46930  0.84780  Biso   1.000  C
  C43      1.0000 0.84210  0.96930  0.34780  Biso   1.000  C
  C44      1.0000 0.15790  0.03070  0.84780  Biso   1.000  C
  H37      1.0000 0.28540  0.52070  0.33540  Biso   1.000  H
  H38      1.0000 0.71460  0.47930  0.83540  Biso   1.000  H
  H39      1.0000 0.78540  0.97930  0.33540  Biso   1.000  H
  H40      1.0000 0.21460  0.02070  0.83540  Biso   1.000  H
  C45      1.0000 0.36850  0.60810  0.35940  Biso   1.000  C
  C46      1.0000 0.63150  0.39190  0.85940  Biso   1.000  C
  C47      1.0000 0.86850  0.89190  0.35940  Biso   1.000  C
  C48      1.0000 0.13150  0.10810  0.85940  Biso   1.000  C
  H41      1.0000 0.33060  0.64980  0.35660  Biso   1.000  H
  H42      1.0000 0.66940  0.35020  0.85660  Biso   1.000  H
  H43      1.0000 0.83060  0.85020  0.35660  Biso   1.000  H
  H44      1.0000 0.16940  0.14980  0.85660  Biso   1.000  H
  C49      1.0000 0.45310  0.62210  0.37530  Biso   1.000  C
  C50      1.0000 0.54690  0.37790  0.87530  Biso   1.000  C
  C51      1.0000 0.95310  0.87790  0.37530  Biso   1.000  C
  C52      1.0000 0.04690  0.12210  0.87530  Biso   1.000  C
  H45      1.0000 0.47280  0.67390  0.38250  Biso   1.000  H
  H46      1.0000 0.52720  0.32610  0.88250  Biso   1.000  H
  H47      1.0000 0.97280  0.82610  0.38250  Biso   1.000  H
  H48      1.0000 0.02720  0.17390  0.88250  Biso   1.000  H
  C53      1.0000 0.50770  0.56010  0.38050  Biso   1.000  C
  C54      1.0000 0.49230  0.43990  0.88050  Biso   1.000  C
  C55      1.0000 0.00770  0.93990  0.38050  Biso   1.000  C
  C56      1.0000 0.99230  0.06010  0.88050  Biso   1.000  C
  H49      1.0000 0.56450  0.56910  0.39230  Biso   1.000  H
  H50      1.0000 0.43550  0.43090  0.89230  Biso   1.000  H
  H51      1.0000 0.06450  0.93090  0.39230  Biso   1.000  H
  H52      1.0000 0.93550  0.06910  0.89230  Biso   1.000  H
  C57      1.0000 0.47740  0.48410  0.36820  Biso   1.000  C
  C58      1.0000 0.52260  0.51590  0.86820  Biso   1.000  C
  C59      1.0000 0.97740  0.01590  0.36820  Biso   1.000  C
  C60      1.0000 0.02260  0.98410  0.86820  Biso   1.000  C
  C61      1.0000 0.52830  0.41190  0.37300  Biso   1.000  C
  C62      1.0000 0.47170  0.58810  0.87300  Biso   1.000  C
  C63      1.0000 0.02830  0.08810  0.37300  Biso   1.000  C
  C64      1.0000 0.97170  0.91190  0.87300  Biso   1.000  C
  C65      1.0000 0.61450  0.41270  0.38260  Biso   1.000  C
  C66      1.0000 0.38550  0.58730  0.88260  Biso   1.000  C
  C67      1.0000 0.11450  0.08730  0.38260  Biso   1.000  C
  C68      1.0000 0.88550  0.91270  0.88260  Biso   1.000  C
  H53      1.0000 0.64360  0.46040  0.38090  Biso   1.000  H
  H54      1.0000 0.35640  0.53960  0.88090  Biso   1.000  H
  H55      1.0000 0.14360  0.03960  0.38090  Biso   1.000  H
  H56      1.0000 0.85640  0.96040  0.88090  Biso   1.000  H
  C69      1.0000 0.65640  0.34130  0.39470  Biso   1.000  C
  C70      1.0000 0.34360  0.65870  0.89470  Biso   1.000  C
  C71      1.0000 0.15640  0.15870  0.39470  Biso   1.000  C
  C72      1.0000 0.84360  0.84130  0.89470  Biso   1.000  C
  H57      1.0000 0.71420  0.34050  0.40070  Biso   1.000  H
  H58      1.0000 0.28580  0.65950  0.90070  Biso   1.000  H
  H59      1.0000 0.21420  0.15950  0.40070  Biso   1.000  H
  H60      1.0000 0.78580  0.84050  0.90070  Biso   1.000  H
  C73      1.0000 0.61230  0.27140  0.39800  Biso   1.000  C
  C74      1.0000 0.38770  0.72860  0.89800  Biso   1.000  C
  C75      1.0000 0.11230  0.22860  0.39800  Biso   1.000  C
  C76      1.0000 0.88770  0.77140  0.89800  Biso   1.000  C
  H61      1.0000 0.63940  0.22280  0.40830  Biso   1.000  H
  H62      1.0000 0.36060  0.77720  0.90830  Biso   1.000  H
  H63      1.0000 0.13940  0.27720  0.40830  Biso   1.000  H
  H64      1.0000 0.86060  0.72280  0.90830  Biso   1.000  H
  C77      1.0000 0.52720  0.27540  0.38570  Biso   1.000  C
  C78      1.0000 0.47280  0.72460  0.88570  Biso   1.000  C
  C79      1.0000 0.02720  0.22460  0.38570  Biso   1.000  C
  C80      1.0000 0.97280  0.77540  0.88570  Biso   1.000  C
  H65      1.0000 0.49710  0.22830  0.38690  Biso   1.000  H
  H66      1.0000 0.50290  0.77170  0.88690  Biso   1.000  H
  H67      1.0000 0.99710  0.27170  0.38690  Biso   1.000  H
  H68      1.0000 0.00290  0.72830  0.88690  Biso   1.000  H
  H69      1.0000 0.28000  0.36400  0.71900  Biso   1.000  H
  H70      1.0000 0.72000  0.63600  0.21900  Biso   1.000  H
  H71      1.0000 0.78000  0.13600  0.71900  Biso   1.000  H
  H72      1.0000 0.22000  0.86400  0.21900  Biso   1.000  H
