data_image0
_cell_length_a       31.6115
_cell_length_b       6.0867
_cell_length_c       7.62568
_cell_angle_alpha    90
_cell_angle_beta     97.5312
_cell_angle_gamma    90

_symmetry_space_group_name_H-M    "P 1"
_symmetry_int_tables_number       1

loop_
  _symmetry_equiv_pos_as_xyz
  'x, y, z'

loop_
  _atom_site_label
  _atom_site_occupancy
  _atom_site_fract_x
  _atom_site_fract_y
  _atom_site_fract_z
  _atom_site_thermal_displace_type
  _atom_site_B_iso_or_equiv
  _atom_site_type_symbol
  P1       1.0000 0.93485  0.31250  0.66548  Biso   1.000  P
  P2       1.0000 0.06515  0.31250  0.83452  Biso   1.000  P
  P3       1.0000 0.43485  0.81250  0.66548  Biso   1.000  P
  P4       1.0000 0.56515  0.81250  0.83452  Biso   1.000  P
  P5       1.0000 0.06515  0.68750  0.33452  Biso   1.000  P
  P6       1.0000 0.93485  0.68750  0.16548  Biso   1.000  P
  P7       1.0000 0.56515  0.18750  0.33452  Biso   1.000  P
  P8       1.0000 0.43485  0.18750  0.16548  Biso   1.000  P
  O1       1.0000 0.94159  0.55710  0.62450  Biso   1.000  O
  O2       1.0000 0.05841  0.55710  0.87550  Biso   1.000  O
  O3       1.0000 0.44159  0.05710  0.62450  Biso   1.000  O
  O4       1.0000 0.55841  0.05710  0.87550  Biso   1.000  O
  O5       1.0000 0.05841  0.44290  0.37550  Biso   1.000  O
  O6       1.0000 0.94159  0.44290  0.12450  Biso   1.000  O
  O7       1.0000 0.55841  0.94290  0.37550  Biso   1.000  O
  O8       1.0000 0.44159  0.94290  0.12450  Biso   1.000  O
  H1       1.0000 0.92897  0.61972  0.50916  Biso   1.000  H
  H2       1.0000 0.07103  0.61972  0.99084  Biso   1.000  H
  H3       1.0000 0.42897  0.11972  0.50916  Biso   1.000  H
  H4       1.0000 0.57103  0.11972  0.99084  Biso   1.000  H
  H5       1.0000 0.07103  0.38028  0.49084  Biso   1.000  H
  H6       1.0000 0.92897  0.38028  0.00916  Biso   1.000  H
  H7       1.0000 0.57103  0.88028  0.49084  Biso   1.000  H
  H8       1.0000 0.42897  0.88028  0.00916  Biso   1.000  H
  O9       1.0000 0.95843  0.27210  0.85270  Biso   1.000  O
  O10      1.0000 0.04157  0.27210  0.64730  Biso   1.000  O
  O11      1.0000 0.45843  0.77210  0.85270  Biso   1.000  O
  O12      1.0000 0.54157  0.77210  0.64730  Biso   1.000  O
  O13      1.0000 0.04157  0.72790  0.14730  Biso   1.000  O
  O14      1.0000 0.95843  0.72790  0.35270  Biso   1.000  O
  O15      1.0000 0.54157  0.22790  0.14730  Biso   1.000  O
  O16      1.0000 0.45843  0.22790  0.35270  Biso   1.000  O
  O17      1.0000 0.94786  0.15360  0.53000  Biso   1.000  O
  O18      1.0000 0.05214  0.15360  0.97000  Biso   1.000  O
  O19      1.0000 0.44786  0.65360  0.53000  Biso   1.000  O
  O20      1.0000 0.55214  0.65360  0.97000  Biso   1.000  O
  O21      1.0000 0.05214  0.84640  0.47000  Biso   1.000  O
  O22      1.0000 0.94786  0.84640  0.03000  Biso   1.000  O
  O23      1.0000 0.55214  0.34640  0.47000  Biso   1.000  O
  O24      1.0000 0.44786  0.34640  0.03000  Biso   1.000  O
  C1       1.0000 0.87913  0.27470  0.67705  Biso   1.000  C
  C2       1.0000 0.12087  0.27470  0.82295  Biso   1.000  C
  C3       1.0000 0.37913  0.77470  0.67705  Biso   1.000  C
  C4       1.0000 0.62087  0.77470  0.82295  Biso   1.000  C
  C5       1.0000 0.12087  0.72530  0.32295  Biso   1.000  C
  C6       1.0000 0.87913  0.72530  0.17705  Biso   1.000  C
  C7       1.0000 0.62087  0.22530  0.32295  Biso   1.000  C
  C8       1.0000 0.37913  0.22530  0.17705  Biso   1.000  C
  C9       1.0000 0.84978  0.42930  0.61210  Biso   1.000  C
  C10      1.0000 0.15022  0.42930  0.88790  Biso   1.000  C
  C11      1.0000 0.34978  0.92930  0.61210  Biso   1.000  C
  C12      1.0000 0.65022  0.92930  0.88790  Biso   1.000  C
  C13      1.0000 0.15022  0.57070  0.38790  Biso   1.000  C
  C14      1.0000 0.84978  0.57070  0.11210  Biso   1.000  C
  C15      1.0000 0.65022  0.07070  0.38790  Biso   1.000  C
  C16      1.0000 0.34978  0.07070  0.11210  Biso   1.000  C
  H9       1.0000 0.85837  0.55780  0.56000  Biso   1.000  H
  H10      1.0000 0.14163  0.55780  0.94000  Biso   1.000  H
  H11      1.0000 0.35837  0.05780  0.56000  Biso   1.000  H
  H12      1.0000 0.64163  0.05780  0.94000  Biso   1.000  H
  H13      1.0000 0.14163  0.44220  0.44000  Biso   1.000  H
  H14      1.0000 0.85837  0.44220  0.06000  Biso   1.000  H
  H15      1.0000 0.64163  0.94220  0.44000  Biso   1.000  H
  H16      1.0000 0.35837  0.94220  0.06000  Biso   1.000  H
  C17      1.0000 0.80604  0.39180  0.62540  Biso   1.000  C
  C18      1.0000 0.19396  0.39180  0.87460  Biso   1.000  C
  C19      1.0000 0.30604  0.89180  0.62540  Biso   1.000  C
  C20      1.0000 0.69396  0.89180  0.87460  Biso   1.000  C
  C21      1.0000 0.19396  0.60820  0.37460  Biso   1.000  C
  C22      1.0000 0.80604  0.60820  0.12540  Biso   1.000  C
  C23      1.0000 0.69396  0.10820  0.37460  Biso   1.000  C
  C24      1.0000 0.30604  0.10820  0.12540  Biso   1.000  C
  H17      1.0000 0.78606  0.49670  0.58120  Biso   1.000  H
  H18      1.0000 0.21394  0.49670  0.91880  Biso   1.000  H
  H19      1.0000 0.28606  0.99670  0.58120  Biso   1.000  H
  H20      1.0000 0.71394  0.99670  0.91880  Biso   1.000  H
  H21      1.0000 0.21394  0.50330  0.41880  Biso   1.000  H
  H22      1.0000 0.78606  0.50330  0.08120  Biso   1.000  H
  H23      1.0000 0.71394  0.00330  0.41880  Biso   1.000  H
  H24      1.0000 0.28606  0.00330  0.08120  Biso   1.000  H
  C25      1.0000 0.79224  0.20410  0.70170  Biso   1.000  C
  C26      1.0000 0.20776  0.20410  0.79830  Biso   1.000  C
  C27      1.0000 0.29224  0.70410  0.70170  Biso   1.000  C
  C28      1.0000 0.70776  0.70410  0.79830  Biso   1.000  C
  C29      1.0000 0.20776  0.79590  0.29830  Biso   1.000  C
  C30      1.0000 0.79224  0.79590  0.20170  Biso   1.000  C
  C31      1.0000 0.70776  0.29590  0.29830  Biso   1.000  C
  C32      1.0000 0.29224  0.29590  0.20170  Biso   1.000  C
  H25      1.0000 0.76347  0.18200  0.70910  Biso   1.000  H
  H26      1.0000 0.23653  0.18200  0.79090  Biso   1.000  H
  H27      1.0000 0.26347  0.68200  0.70910  Biso   1.000  H
  H28      1.0000 0.73653  0.68200  0.79090  Biso   1.000  H
  H29      1.0000 0.23653  0.81800  0.29090  Biso   1.000  H
  H30      1.0000 0.76347  0.81800  0.20910  Biso   1.000  H
  H31      1.0000 0.73653  0.31800  0.29090  Biso   1.000  H
  H32      1.0000 0.26347  0.31800  0.20910  Biso   1.000  H
  C33      1.0000 0.82135  0.05280  0.76539  Biso   1.000  C
  C34      1.0000 0.17865  0.05280  0.73461  Biso   1.000  C
  C35      1.0000 0.32135  0.55280  0.76539  Biso   1.000  C
  C36      1.0000 0.67865  0.55280  0.73461  Biso   1.000  C
  C37      1.0000 0.17865  0.94720  0.23461  Biso   1.000  C
  C38      1.0000 0.82135  0.94720  0.26539  Biso   1.000  C
  C39      1.0000 0.67865  0.44720  0.23461  Biso   1.000  C
  C40      1.0000 0.32135  0.44720  0.26539  Biso   1.000  C
  H33      1.0000 0.81259  0.92460  0.81730  Biso   1.000  H
  H34      1.0000 0.18741  0.92460  0.68270  Biso   1.000  H
  H35      1.0000 0.31259  0.42460  0.81730  Biso   1.000  H
  H36      1.0000 0.68741  0.42460  0.68270  Biso   1.000  H
  H37      1.0000 0.18741  0.07540  0.18270  Biso   1.000  H
  H38      1.0000 0.81259  0.07540  0.31730  Biso   1.000  H
  H39      1.0000 0.68741  0.57540  0.18270  Biso   1.000  H
  H40      1.0000 0.31259  0.57540  0.31730  Biso   1.000  H
  C41      1.0000 0.86480  0.08554  0.75409  Biso   1.000  C
  C42      1.0000 0.13520  0.08554  0.74591  Biso   1.000  C
  C43      1.0000 0.36480  0.58554  0.75409  Biso   1.000  C
  C44      1.0000 0.63520  0.58554  0.74591  Biso   1.000  C
  C45      1.0000 0.13520  0.91446  0.24591  Biso   1.000  C
  C46      1.0000 0.86480  0.91446  0.25409  Biso   1.000  C
  C47      1.0000 0.63520  0.41446  0.24591  Biso   1.000  C
  C48      1.0000 0.36480  0.41446  0.25409  Biso   1.000  C
  H41      1.0000 0.88445  0.97890  0.79880  Biso   1.000  H
  H42      1.0000 0.11555  0.97890  0.70120  Biso   1.000  H
  H43      1.0000 0.38445  0.47890  0.79880  Biso   1.000  H
  H44      1.0000 0.61555  0.47890  0.70120  Biso   1.000  H
  H45      1.0000 0.11555  0.02110  0.20120  Biso   1.000  H
  H46      1.0000 0.88445  0.02110  0.29880  Biso   1.000  H
  H47      1.0000 0.61555  0.52110  0.20120  Biso   1.000  H
  H48      1.0000 0.38445  0.52110  0.29880  Biso   1.000  H
  Cu1      1.0000 0.00000  0.00000  0.00000  Biso   1.000  Cu
  Cu2      1.0000 0.00000  0.00000  0.50000  Biso   1.000  Cu
  Cu3      1.0000 0.50000  0.50000  0.00000  Biso   1.000  Cu
  Cu4      1.0000 0.50000  0.50000  0.50000  Biso   1.000  Cu
  O25      1.0000 0.00000  0.17770  0.25000  Biso   1.000  O
  O26      1.0000 0.50000  0.67770  0.25000  Biso   1.000  O
  O27      1.0000 0.00000  0.82230  0.75000  Biso   1.000  O
  O28      1.0000 0.50000  0.32230  0.75000  Biso   1.000  O
  H49      1.0000 0.97413  0.27189  0.23594  Biso   1.000  H
  H50      1.0000 0.02587  0.27189  0.26406  Biso   1.000  H
  H51      1.0000 0.47413  0.77189  0.23594  Biso   1.000  H
  H52      1.0000 0.52587  0.77189  0.26406  Biso   1.000  H
  H53      1.0000 0.02587  0.72811  0.76406  Biso   1.000  H
  H54      1.0000 0.97413  0.72811  0.73594  Biso   1.000  H
  H55      1.0000 0.52587  0.22811  0.76406  Biso   1.000  H
  H56      1.0000 0.47413  0.22811  0.73594  Biso   1.000  H
