data_image0
_cell_length_a       10.359
_cell_length_b       14.284
_cell_length_c       18.376
_cell_angle_alpha    112.192
_cell_angle_beta     96.142
_cell_angle_gamma    97.112

_symmetry_space_group_name_H-M    "P 1"
_symmetry_int_tables_number       1

loop_
  _symmetry_equiv_pos_as_xyz
  'x, y, z'

loop_
  _atom_site_label
  _atom_site_occupancy
  _atom_site_fract_x
  _atom_site_fract_y
  _atom_site_fract_z
  _atom_site_thermal_displace_type
  _atom_site_B_iso_or_equiv
  _atom_site_type_symbol
  C1       1.0000 0.27920  0.13810  0.08620  Biso   1.000  C
  C2       1.0000 0.72080  0.86190  0.91380  Biso   1.000  C
  H1       1.0000 0.23910  0.15650  0.13130  Biso   1.000  H
  H2       1.0000 0.76090  0.84350  0.86870  Biso   1.000  H
  C3       1.0000 0.19970  0.08840  0.01050  Biso   1.000  C
  C4       1.0000 0.80030  0.91160  0.98950  Biso   1.000  C
  H3       1.0000 0.10840  0.07390  0.00550  Biso   1.000  H
  H4       1.0000 0.89160  0.92610  0.99450  Biso   1.000  H
  C5       1.0000 0.25900  0.06220  0.94500  Biso   1.000  C
  C6       1.0000 0.74100  0.93780  0.05500  Biso   1.000  C
  H5       1.0000 0.20870  0.02950  0.89430  Biso   1.000  H
  H6       1.0000 0.79130  0.97050  0.10570  Biso   1.000  H
  C7       1.0000 0.39460  0.08440  0.95450  Biso   1.000  C
  C8       1.0000 0.60540  0.91560  0.04550  Biso   1.000  C
  H7       1.0000 0.43610  0.06650  0.90990  Biso   1.000  H
  H8       1.0000 0.56390  0.93350  0.09010  Biso   1.000  H
  C9       1.0000 0.46930  0.13310  0.02970  Biso   1.000  C
  C10      1.0000 0.53070  0.86690  0.97030  Biso   1.000  C
  C11      1.0000 0.61470  0.16040  0.04610  Biso   1.000  C
  C12      1.0000 0.38530  0.83960  0.95390  Biso   1.000  C
  C13      1.0000 0.69310  0.14120  0.98910  Biso   1.000  C
  C14      1.0000 0.30690  0.85880  0.01090  Biso   1.000  C
  H9       1.0000 0.65590  0.10840  0.93550  Biso   1.000  H
  H10      1.0000 0.34410  0.89160  0.06450  Biso   1.000  H
  C15      1.0000 0.82720  0.17050  0.01120  Biso   1.000  C
  C16      1.0000 0.17280  0.82950  0.98880  Biso   1.000  C
  H11      1.0000 0.88150  0.16000  0.97270  Biso   1.000  H
  H12      1.0000 0.11850  0.84000  0.02730  Biso   1.000  H
  C17      1.0000 0.88110  0.21600  0.09160  Biso   1.000  C
  C18      1.0000 0.11890  0.78400  0.90840  Biso   1.000  C
  H13      1.0000 0.97200  0.23530  0.10810  Biso   1.000  H
  H14      1.0000 0.02800  0.76470  0.89190  Biso   1.000  H
  C19      1.0000 0.79770  0.23150  0.14560  Biso   1.000  C
  C20      1.0000 0.20230  0.76850  0.85440  Biso   1.000  C
  H15      1.0000 0.83330  0.26360  0.19950  Biso   1.000  H
  H16      1.0000 0.16670  0.73640  0.80050  Biso   1.000  H
  C21      1.0000 0.62140  0.31380  0.36040  Biso   1.000  C
  C22      1.0000 0.37860  0.68620  0.63960  Biso   1.000  C
  C23      1.0000 0.47740  0.31000  0.35480  Biso   1.000  C
  C24      1.0000 0.52260  0.69000  0.64520  Biso   1.000  C
  C25      1.0000 0.41590  0.34260  0.42060  Biso   1.000  C
  C26      1.0000 0.58410  0.65740  0.57940  Biso   1.000  C
  H17      1.0000 0.45920  0.41310  0.45170  Biso   1.000  H
  H18      1.0000 0.54080  0.58690  0.54830  Biso   1.000  H
  H19      1.0000 0.44180  0.30360  0.45120  Biso   1.000  H
  H20      1.0000 0.55820  0.69640  0.54880  Biso   1.000  H
  C27      1.0000 0.27660  0.34310  0.42330  Biso   1.000  C
  C28      1.0000 0.72340  0.65690  0.57670  Biso   1.000  C
  H21      1.0000 0.24800  0.38550  0.39630  Biso   1.000  H
  H22      1.0000 0.75200  0.61450  0.60370  Biso   1.000  H
  H23      1.0000 0.22940  0.27350  0.39250  Biso   1.000  H
  H24      1.0000 0.77060  0.72650  0.60750  Biso   1.000  H
  C29      1.0000 0.23550  0.37810  0.49980  Biso   1.000  C
  C30      1.0000 0.76450  0.62190  0.50020  Biso   1.000  C
  H25      1.0000 0.28020  0.44820  0.53090  Biso   1.000  H
  H26      1.0000 0.71980  0.55180  0.46910  Biso   1.000  H
  H27      1.0000 0.26310  0.33610  0.52750  Biso   1.000  H
  H28      1.0000 0.73690  0.66390  0.47250  Biso   1.000  H
  C31      1.0000 0.03710  0.41780  0.55720  Biso   1.000  C
  C32      1.0000 0.96290  0.58220  0.44280  Biso   1.000  C
  C33      1.0000 0.25200  0.65370  0.11700  Biso   1.000  C
  C34      1.0000 0.74800  0.34630  0.88300  Biso   1.000  C
  H29      1.0000 0.21870  0.67350  0.16460  Biso   1.000  H
  H30      1.0000 0.78130  0.32650  0.83540  Biso   1.000  H
  C35      1.0000 0.16590  0.60600  0.04680  Biso   1.000  C
  C36      1.0000 0.83410  0.39400  0.95320  Biso   1.000  C
  H31      1.0000 0.07550  0.59320  0.04640  Biso   1.000  H
  H32      1.0000 0.92450  0.40680  0.95360  Biso   1.000  H
  C37      1.0000 0.21580  0.57700  0.97570  Biso   1.000  C
  C38      1.0000 0.78420  0.42300  0.02430  Biso   1.000  C
  H33      1.0000 0.15910  0.54480  0.92710  Biso   1.000  H
  H34      1.0000 0.84090  0.45520  0.07290  Biso   1.000  H
  C39      1.0000 0.34940  0.59650  0.97810  Biso   1.000  C
  C40      1.0000 0.65060  0.40350  0.02190  Biso   1.000  C
  H35      1.0000 0.38490  0.57770  0.93130  Biso   1.000  H
  H36      1.0000 0.61510  0.42230  0.06870  Biso   1.000  H
  C41      1.0000 0.43030  0.64460  0.05140  Biso   1.000  C
  C42      1.0000 0.56970  0.35540  0.94860  Biso   1.000  C
  C43      1.0000 0.57660  0.67050  0.05960  Biso   1.000  C
  C44      1.0000 0.42340  0.32950  0.94040  Biso   1.000  C
  C45      1.0000 0.64700  0.64730  0.99730  Biso   1.000  C
  C46      1.0000 0.35300  0.35270  0.00270  Biso   1.000  C
  H37      1.0000 0.60400  0.61200  0.94490  Biso   1.000  H
  H38      1.0000 0.39600  0.38800  0.05510  Biso   1.000  H
  C47      1.0000 0.78180  0.67740  0.01420  Biso   1.000  C
  C48      1.0000 0.21820  0.32260  0.98580  Biso   1.000  C
  H39      1.0000 0.83170  0.65820  0.97350  Biso   1.000  H
  H40      1.0000 0.16830  0.34180  0.02650  Biso   1.000  H
  C49      1.0000 0.84280  0.73590  0.09140  Biso   1.000  C
  C50      1.0000 0.15720  0.26410  0.90860  Biso   1.000  C
  H41      1.0000 0.93330  0.76000  0.10310  Biso   1.000  H
  H42      1.0000 0.06670  0.24000  0.89690  Biso   1.000  H
  C51      1.0000 0.76750  0.75820  0.15100  Biso   1.000  C
  C52      1.0000 0.23250  0.24180  0.84900  Biso   1.000  C
  H43      1.0000 0.80870  0.79670  0.20340  Biso   1.000  H
  H44      1.0000 0.19130  0.20330  0.79660  Biso   1.000  H
  C53      1.0000 0.63760  0.80460  0.37400  Biso   1.000  C
  C54      1.0000 0.36240  0.19540  0.62600  Biso   1.000  C
  C55      1.0000 0.49370  0.79050  0.38060  Biso   1.000  C
  C56      1.0000 0.50630  0.20950  0.61940  Biso   1.000  C
  C57      1.0000 0.44620  0.82070  0.44210  Biso   1.000  C
  C58      1.0000 0.55380  0.17930  0.55790  Biso   1.000  C
  H45      1.0000 0.46980  0.89490  0.46190  Biso   1.000  H
  H46      1.0000 0.53020  0.10510  0.53810  Biso   1.000  H
  H47      1.0000 0.50160  0.80130  0.47820  Biso   1.000  H
  H48      1.0000 0.49840  0.19870  0.52180  Biso   1.000  H
  C59      1.0000 0.31230  0.80450  0.46320  Biso   1.000  C
  C60      1.0000 0.68770  0.19550  0.53680  Biso   1.000  C
  H49      1.0000 0.25250  0.75190  0.41810  Biso   1.000  H
  H50      1.0000 0.74750  0.24810  0.58190  Biso   1.000  H
  H51      1.0000 0.31680  0.78310  0.50750  Biso   1.000  H
  H52      1.0000 0.68320  0.21690  0.49250  Biso   1.000  H
  C61      1.0000 0.26810  0.89950  0.48450  Biso   1.000  C
  C62      1.0000 0.73190  0.10050  0.51550  Biso   1.000  C
  H53      1.0000 0.28640  0.92790  0.44560  Biso   1.000  H
  H54      1.0000 0.71360  0.07210  0.55440  Biso   1.000  H
  H55      1.0000 0.31820  0.94670  0.53580  Biso   1.000  H
  H56      1.0000 0.68180  0.05330  0.46420  Biso   1.000  H
  C63      1.0000 0.06010  0.89710  0.53650  Biso   1.000  C
  C64      1.0000 0.93990  0.10290  0.46350  Biso   1.000  C
  Cl1      1.0000 0.52070  0.00096  0.25845  Biso   1.000  Cl
  Cl2      1.0000 0.47930  0.99904  0.74155  Biso   1.000  Cl
  Cl3      1.0000 0.59400  0.49695  0.23064  Biso   1.000  Cl
  Cl4      1.0000 0.40600  0.50305  0.76936  Biso   1.000  Cl
  Cl5      1.0000 0.15750  0.45177  0.23056  Biso   1.000  Cl
  Cl6      1.0000 0.84250  0.54823  0.76944  Biso   1.000  Cl
  Cl7      1.0000 0.07330  0.03310  0.21793  Biso   1.000  Cl
  Cl8      1.0000 0.92670  0.96690  0.78207  Biso   1.000  Cl
  Cu1      1.0000 0.53408  0.22617  0.19874  Biso   1.000  Cu
  Cu2      1.0000 0.46592  0.77383  0.80126  Biso   1.000  Cu
  Cu3      1.0000 0.52195  0.73667  0.21796  Biso   1.000  Cu
  Cu4      1.0000 0.47805  0.26333  0.78204  Biso   1.000  Cu
  N1       1.0000 0.40890  0.15940  0.09480  Biso   1.000  N
  N2       1.0000 0.59110  0.84060  0.90520  Biso   1.000  N
  N3       1.0000 0.66610  0.20270  0.12470  Biso   1.000  N
  N4       1.0000 0.33390  0.79730  0.87530  Biso   1.000  N
  N5       1.0000 0.40680  0.26280  0.27500  Biso   1.000  N
  N6       1.0000 0.59320  0.73720  0.72500  Biso   1.000  N
  H57      1.0000 0.35900  0.30640  0.26490  Biso   1.000  H
  H58      1.0000 0.64100  0.69360  0.73510  Biso   1.000  H
  H59      1.0000 0.35100  0.20580  0.26890  Biso   1.000  H
  H60      1.0000 0.64900  0.79420  0.73110  Biso   1.000  H
  N7       1.0000 0.09410  0.37450  0.49610  Biso   1.000  N
  N8       1.0000 0.90590  0.62550  0.50390  Biso   1.000  N
  H61      1.0000 0.04450  0.34150  0.45040  Biso   1.000  H
  H62      1.0000 0.95550  0.65850  0.54960  Biso   1.000  H
  N9       1.0000 0.91050  0.41350  0.54880  Biso   1.000  N
  N10      1.0000 0.08950  0.58650  0.45120  Biso   1.000  N
  H63      1.0000 0.86270  0.38180  0.50240  Biso   1.000  H
  H64      1.0000 0.13730  0.61820  0.49760  Biso   1.000  H
  H65      1.0000 0.87420  0.44240  0.58970  Biso   1.000  H
  H66      1.0000 0.12580  0.55760  0.41030  Biso   1.000  H
  N11      1.0000 0.10800  0.47100  0.62980  Biso   1.000  N
  N12      1.0000 0.89200  0.52900  0.37020  Biso   1.000  N
  H67      1.0000 0.06930  0.50110  0.66930  Biso   1.000  H
  H68      1.0000 0.93070  0.49890  0.33070  Biso   1.000  H
  H69      1.0000 0.19220  0.47510  0.63710  Biso   1.000  H
  H70      1.0000 0.80780  0.52490  0.36290  Biso   1.000  H
  N13      1.0000 0.38310  0.67320  0.11980  Biso   1.000  N
  N14      1.0000 0.61690  0.32680  0.88020  Biso   1.000  N
  N15      1.0000 0.63690  0.72630  0.13610  Biso   1.000  N
  N16      1.0000 0.36310  0.27370  0.86390  Biso   1.000  N
  N17      1.0000 0.41200  0.73660  0.30110  Biso   1.000  N
  N18      1.0000 0.58800  0.26340  0.69890  Biso   1.000  N
  H71      1.0000 0.34330  0.76830  0.29720  Biso   1.000  H
  H72      1.0000 0.65670  0.23170  0.70280  Biso   1.000  H
  H73      1.0000 0.38010  0.67160  0.29370  Biso   1.000  H
  H74      1.0000 0.61990  0.32840  0.70630  Biso   1.000  H
  N19      1.0000 0.12580  0.89280  0.48950  Biso   1.000  N
  N20      1.0000 0.87420  0.10720  0.51050  Biso   1.000  N
  H75      1.0000 0.07980  0.88300  0.44460  Biso   1.000  H
  H76      1.0000 0.92020  0.11700  0.55540  Biso   1.000  H
  N21      1.0000 0.15650  0.92620  0.59200  Biso   1.000  N
  N22      1.0000 0.84350  0.07380  0.40800  Biso   1.000  N
  H77      1.0000 0.23550  0.93430  0.58220  Biso   1.000  H
  H78      1.0000 0.76450  0.06570  0.41780  Biso   1.000  H
  H79      1.0000 0.14360  0.93800  0.63990  Biso   1.000  H
  H80      1.0000 0.85640  0.06200  0.36010  Biso   1.000  H
  N23      1.0000 0.94380  0.89290  0.55910  Biso   1.000  N
  N24      1.0000 0.05620  0.10710  0.44090  Biso   1.000  N
  H81      1.0000 0.87330  0.88100  0.52540  Biso   1.000  H
  H82      1.0000 0.12670  0.11900  0.47460  Biso   1.000  H
  H83      1.0000 0.93840  0.90190  0.60760  Biso   1.000  H
  H84      1.0000 0.06160  0.09810  0.39240  Biso   1.000  H
  O1       1.0000 0.66530  0.27870  0.29340  Biso   1.000  O
  O2       1.0000 0.33470  0.72130  0.70660  Biso   1.000  O
  O3       1.0000 0.69170  0.34810  0.42430  Biso   1.000  O
  O4       1.0000 0.30830  0.65190  0.57570  Biso   1.000  O
  O5       1.0000 0.92510  0.25890  0.34720  Biso   1.000  O
  O6       1.0000 0.07490  0.74110  0.65280  Biso   1.000  O
  O7       1.0000 0.66740  0.78910  0.30590  Biso   1.000  O
  O8       1.0000 0.33260  0.21090  0.69410  Biso   1.000  O
  O9       1.0000 0.16660  0.82470  0.28420  Biso   1.000  O
  O10      1.0000 0.83340  0.17530  0.71580  Biso   1.000  O
  O11      1.0000 0.71900  0.83110  0.43500  Biso   1.000  O
  O12      1.0000 0.28100  0.16890  0.56500  Biso   1.000  O
  O13      1.0000 0.94090  0.76200  0.33010  Biso   1.000  O
  O14      1.0000 0.05910  0.23800  0.66990  Biso   1.000  O
  O15      1.0000 0.44950  0.90020  0.22850  Biso   1.000  O
  O16      1.0000 0.55050  0.09980  0.77150  Biso   1.000  O
  O17      1.0000 0.97100  0.65100  0.23340  Biso   1.000  O
  O18      1.0000 0.02900  0.34900  0.76660  Biso   1.000  O
  O19      1.0000 0.51090  0.05440  0.33640  Biso   1.000  O
  O20      1.0000 0.48910  0.94560  0.66360  Biso   1.000  O
  O21      1.0000 0.47660  0.05080  0.21030  Biso   1.000  O
  O22      1.0000 0.52340  0.94920  0.78970  Biso   1.000  O
  O23      1.0000 0.65530  0.99450  0.25300  Biso   1.000  O
  O24      1.0000 0.34470  0.00550  0.74700  Biso   1.000  O
  O25      1.0000 0.52340  0.39560  0.19360  Biso   1.000  O
  O26      1.0000 0.47660  0.60440  0.80640  Biso   1.000  O
  O27      1.0000 0.53480  0.55330  0.19190  Biso   1.000  O
  O28      1.0000 0.46520  0.44670  0.80810  Biso   1.000  O
  O29      1.0000 0.58950  0.53690  0.31200  Biso   1.000  O
  O30      1.0000 0.41050  0.46310  0.68800  Biso   1.000  O
  O31      1.0000 0.72660  0.49670  0.21950  Biso   1.000  O
  O32      1.0000 0.27340  0.50330  0.78050  Biso   1.000  O
  O33      1.0000 0.14700  0.48430  0.17370  Biso   1.000  O
  O34      1.0000 0.85300  0.51570  0.82630  Biso   1.000  O
  O35      1.0000 0.23530  0.52460  0.29730  Biso   1.000  O
  O36      1.0000 0.76470  0.47540  0.70270  Biso   1.000  O
  O37      1.0000 0.03960  0.43280  0.24890  Biso   1.000  O
  O38      1.0000 0.96040  0.56720  0.75110  Biso   1.000  O
  O39      1.0000 0.20680  0.36070  0.19920  Biso   1.000  O
  O40      1.0000 0.79320  0.63930  0.80080  Biso   1.000  O
  O41      1.0000 0.09050  0.97170  0.15210  Biso   1.000  O
  O42      1.0000 0.90950  0.02830  0.84790  Biso   1.000  O
  O43      1.0000 0.96590  0.00750  0.24460  Biso   1.000  O
  O44      1.0000 0.03410  0.99250  0.75540  Biso   1.000  O
  O45      1.0000 0.03900  0.10900  0.20200  Biso   1.000  O
  O46      1.0000 0.96100  0.89100  0.79800  Biso   1.000  O
  O47      1.0000 0.17290  0.08890  0.27200  Biso   1.000  O
  O48      1.0000 0.82710  0.91110  0.72800  Biso   1.000  O
  H85      1.0000 0.87210  0.26200  0.38040  Biso   1.000  H
  H86      1.0000 0.12790  0.73800  0.61960  Biso   1.000  H
  H87      1.0000 0.21310  0.82920  0.32710  Biso   1.000  H
  H88      1.0000 0.78690  0.17080  0.67290  Biso   1.000  H
  H89      1.0000 0.86170  0.78140  0.33220  Biso   1.000  H
  H90      1.0000 0.13830  0.21860  0.66780  Biso   1.000  H
  H91      1.0000 0.95990  0.75380  0.37210  Biso   1.000  H
  H92      1.0000 0.04010  0.24620  0.62790  Biso   1.000  H
  H93      1.0000 0.95790  0.59250  0.23970  Biso   1.000  H
  H94      1.0000 0.04210  0.40750  0.76030  Biso   1.000  H
  H95      1.0000 0.02210  0.70020  0.25260  Biso   1.000  H
  H96      1.0000 0.97790  0.29980  0.74740  Biso   1.000  H
  H97      1.0000 0.95470  0.21610  0.30710  Biso   1.000  H
  H98      1.0000 0.04530  0.78390  0.69290  Biso   1.000  H
  H99      1.0000 0.09300  0.80480  0.30090  Biso   1.000  H
  H100     1.0000 0.90700  0.19520  0.69910  Biso   1.000  H
