data_image0
_cell_length_a       7.2693
_cell_length_b       9.5506
_cell_length_c       16.6714
_cell_angle_alpha    90
_cell_angle_beta     90
_cell_angle_gamma    90

_symmetry_space_group_name_H-M    "P 1"
_symmetry_int_tables_number       1

loop_
  _symmetry_equiv_pos_as_xyz
  'x, y, z'

loop_
  _atom_site_label
  _atom_site_occupancy
  _atom_site_fract_x
  _atom_site_fract_y
  _atom_site_fract_z
  _atom_site_thermal_displace_type
  _atom_site_B_iso_or_equiv
  _atom_site_type_symbol
  Cu1      1.0000 0.44856  0.20067  0.36134  Biso   1.000  Cu
  Cu2      1.0000 0.05144  0.79933  0.86134  Biso   1.000  Cu
  Cu3      1.0000 0.94856  0.29933  0.63866  Biso   1.000  Cu
  Cu4      1.0000 0.55144  0.70067  0.13866  Biso   1.000  Cu
  O1       1.0000 0.59222  0.10512  0.44360  Biso   1.000  O
  O2       1.0000 0.90778  0.89488  0.94360  Biso   1.000  O
  O3       1.0000 0.09222  0.39488  0.55640  Biso   1.000  O
  O4       1.0000 0.40778  0.60512  0.05640  Biso   1.000  O
  O5       1.0000 0.81890  0.14035  0.53158  Biso   1.000  O
  O6       1.0000 0.68110  0.85965  0.03158  Biso   1.000  O
  O7       1.0000 0.31890  0.35965  0.46842  Biso   1.000  O
  O8       1.0000 0.18110  0.64035  0.96842  Biso   1.000  O
  O9       1.0000 0.66327  0.32845  0.36298  Biso   1.000  O
  O10      1.0000 0.83673  0.67155  0.86298  Biso   1.000  O
  O11      1.0000 0.16327  0.17155  0.63702  Biso   1.000  O
  O12      1.0000 0.33673  0.82845  0.13702  Biso   1.000  O
  O13      1.0000 0.40225  0.55524  0.23999  Biso   1.000  O
  O14      1.0000 0.09775  0.44476  0.73999  Biso   1.000  O
  O15      1.0000 0.90225  0.94476  0.76001  Biso   1.000  O
  O16      1.0000 0.59775  0.05524  0.26001  Biso   1.000  O
  O17      1.0000 0.35658  0.33835  0.28439  Biso   1.000  O
  O18      1.0000 0.14342  0.66165  0.78439  Biso   1.000  O
  O19      1.0000 0.85658  0.16165  0.71561  Biso   1.000  O
  O20      1.0000 0.64342  0.83835  0.21561  Biso   1.000  O
  N1       1.0000 0.94470  0.02671  0.32313  Biso   1.000  N
  N2       1.0000 0.55530  0.97329  0.82313  Biso   1.000  N
  N3       1.0000 0.44470  0.47329  0.67687  Biso   1.000  N
  N4       1.0000 0.05530  0.52671  0.17687  Biso   1.000  N
  H1       1.0000 0.83470  0.03470  0.30470  Biso   1.000  H
  H2       1.0000 0.66530  0.96530  0.80470  Biso   1.000  H
  H3       1.0000 0.33470  0.46530  0.69530  Biso   1.000  H
  H4       1.0000 0.16530  0.53470  0.19530  Biso   1.000  H
  N5       1.0000 0.22930  0.08373  0.35638  Biso   1.000  N
  N6       1.0000 0.27070  0.91627  0.85638  Biso   1.000  N
  N7       1.0000 0.72930  0.41627  0.64362  Biso   1.000  N
  N8       1.0000 0.77070  0.58373  0.14362  Biso   1.000  N
  C1       1.0000 0.07130  0.12650  0.32466  Biso   1.000  C
  C2       1.0000 0.42870  0.87350  0.82466  Biso   1.000  C
  C3       1.0000 0.57130  0.37350  0.67534  Biso   1.000  C
  C4       1.0000 0.92870  0.62650  0.17534  Biso   1.000  C
  H5       1.0000 0.05170  0.21680  0.30560  Biso   1.000  H
  H6       1.0000 0.44830  0.78320  0.80560  Biso   1.000  H
  H7       1.0000 0.55170  0.28320  0.69440  Biso   1.000  H
  H8       1.0000 0.94830  0.71680  0.19440  Biso   1.000  H
  C5       1.0000 0.31800  0.84620  0.41269  Biso   1.000  C
  C6       1.0000 0.18200  0.15380  0.91269  Biso   1.000  C
  C7       1.0000 0.81800  0.65380  0.58731  Biso   1.000  C
  C8       1.0000 0.68200  0.34620  0.08731  Biso   1.000  C
  H9       1.0000 0.43810  0.86930  0.42670  Biso   1.000  H
  H10      1.0000 0.06190  0.13070  0.92670  Biso   1.000  H
  H11      1.0000 0.93810  0.63070  0.57330  Biso   1.000  H
  H12      1.0000 0.56190  0.36930  0.07330  Biso   1.000  H
  C9       1.0000 0.24780  0.71430  0.42643  Biso   1.000  C
  C10      1.0000 0.25220  0.28570  0.92643  Biso   1.000  C
  C11      1.0000 0.74780  0.78570  0.57357  Biso   1.000  C
  C12      1.0000 0.75220  0.21430  0.07357  Biso   1.000  C
  H13      1.0000 0.32150  0.64720  0.45090  Biso   1.000  H
  H14      1.0000 0.17850  0.35280  0.95090  Biso   1.000  H
  H15      1.0000 0.82150  0.85280  0.54910  Biso   1.000  H
  H16      1.0000 0.67850  0.14720  0.04910  Biso   1.000  H
  C13      1.0000 0.06740  0.67920  0.40428  Biso   1.000  C
  C14      1.0000 0.43260  0.32080  0.90428  Biso   1.000  C
  C15      1.0000 0.56740  0.82080  0.59572  Biso   1.000  C
  C16      1.0000 0.93260  0.17920  0.09572  Biso   1.000  C
  H17      1.0000 0.02600  0.58840  0.41330  Biso   1.000  H
  H18      1.0000 0.47400  0.41160  0.91330  Biso   1.000  H
  H19      1.0000 0.52600  0.91160  0.58670  Biso   1.000  H
  H20      1.0000 0.97400  0.08840  0.08670  Biso   1.000  H
  C17      1.0000 0.95010  0.77400  0.36977  Biso   1.000  C
  C18      1.0000 0.54990  0.22600  0.86977  Biso   1.000  C
  C19      1.0000 0.45010  0.72600  0.63023  Biso   1.000  C
  C20      1.0000 0.04990  0.27400  0.13023  Biso   1.000  C
  H21      1.0000 0.83000  0.75040  0.35610  Biso   1.000  H
  H22      1.0000 0.67000  0.24960  0.85610  Biso   1.000  H
  H23      1.0000 0.33000  0.74960  0.64390  Biso   1.000  H
  H24      1.0000 0.17000  0.25040  0.14390  Biso   1.000  H
  C21      1.0000 0.02040  0.90790  0.35630  Biso   1.000  C
  C22      1.0000 0.47960  0.09210  0.85630  Biso   1.000  C
  C23      1.0000 0.52040  0.59210  0.64370  Biso   1.000  C
  C24      1.0000 0.97960  0.40790  0.14370  Biso   1.000  C
  C25      1.0000 0.20100  0.94290  0.37692  Biso   1.000  C
  C26      1.0000 0.29900  0.05710  0.87692  Biso   1.000  C
  C27      1.0000 0.70100  0.55710  0.62308  Biso   1.000  C
  C28      1.0000 0.79900  0.44290  0.12308  Biso   1.000  C
  C29      1.0000 0.72220  0.17672  0.47447  Biso   1.000  C
  C30      1.0000 0.77780  0.82328  0.97447  Biso   1.000  C
  C31      1.0000 0.22220  0.32328  0.52553  Biso   1.000  C
  C32      1.0000 0.27780  0.67672  0.02553  Biso   1.000  C
  C33      1.0000 0.75650  0.32190  0.43867  Biso   1.000  C
  C34      1.0000 0.74350  0.67810  0.93867  Biso   1.000  C
  C35      1.0000 0.25650  0.17810  0.56133  Biso   1.000  C
  C36      1.0000 0.24350  0.82190  0.06133  Biso   1.000  C
  H25      1.0000 0.70980  0.39380  0.47440  Biso   1.000  H
  H26      1.0000 0.79020  0.60620  0.97440  Biso   1.000  H
  H27      1.0000 0.20980  0.10620  0.52560  Biso   1.000  H
  H28      1.0000 0.29020  0.89380  0.02560  Biso   1.000  H
  H29      1.0000 0.88730  0.33700  0.43120  Biso   1.000  H
  H30      1.0000 0.61270  0.66300  0.93120  Biso   1.000  H
  H31      1.0000 0.38730  0.16300  0.56880  Biso   1.000  H
  H32      1.0000 0.11270  0.83700  0.06880  Biso   1.000  H
  C37      1.0000 0.61670  0.46520  0.33349  Biso   1.000  C
  C38      1.0000 0.88330  0.53480  0.83349  Biso   1.000  C
  C39      1.0000 0.11670  0.03480  0.66651  Biso   1.000  C
  C40      1.0000 0.38330  0.96520  0.16651  Biso   1.000  C
  H33      1.0000 0.71790  0.50300  0.30230  Biso   1.000  H
  H34      1.0000 0.78210  0.49700  0.80230  Biso   1.000  H
  H35      1.0000 0.21790  0.99700  0.69770  Biso   1.000  H
  H36      1.0000 0.28210  0.00300  0.19770  Biso   1.000  H
  H37      1.0000 0.59280  0.52800  0.37800  Biso   1.000  H
  H38      1.0000 0.90720  0.47200  0.87800  Biso   1.000  H
  H39      1.0000 0.09280  0.97200  0.62200  Biso   1.000  H
  H40      1.0000 0.40720  0.02800  0.12200  Biso   1.000  H
  C41      1.0000 0.44560  0.45210  0.28115  Biso   1.000  C
  C42      1.0000 0.05440  0.54790  0.78115  Biso   1.000  C
  C43      1.0000 0.94560  0.04790  0.71885  Biso   1.000  C
  C44      1.0000 0.55440  0.95210  0.21885  Biso   1.000  C
