data_image0
_cell_length_a       16.219
_cell_length_b       16.416
_cell_length_c       17.899
_cell_angle_alpha    90
_cell_angle_beta     90
_cell_angle_gamma    90

_symmetry_space_group_name_H-M    "P 1"
_symmetry_int_tables_number       1

loop_
  _symmetry_equiv_pos_as_xyz
  'x, y, z'

loop_
  _atom_site_label
  _atom_site_occupancy
  _atom_site_fract_x
  _atom_site_fract_y
  _atom_site_fract_z
  _atom_site_thermal_displace_type
  _atom_site_B_iso_or_equiv
  _atom_site_type_symbol
  Cu1      1.0000 0.81267  0.54323  0.09976  Biso   1.000  Cu
  Cu2      1.0000 0.68733  0.45677  0.59976  Biso   1.000  Cu
  Cu3      1.0000 0.18733  0.04323  0.40024  Biso   1.000  Cu
  Cu4      1.0000 0.31267  0.95677  0.90024  Biso   1.000  Cu
  Cu5      1.0000 0.18733  0.45677  0.90024  Biso   1.000  Cu
  Cu6      1.0000 0.31267  0.54323  0.40024  Biso   1.000  Cu
  Cu7      1.0000 0.81267  0.95677  0.59976  Biso   1.000  Cu
  Cu8      1.0000 0.68733  0.04323  0.09976  Biso   1.000  Cu
  O1       1.0000 0.93480  0.53490  0.08690  Biso   1.000  O
  O2       1.0000 0.56520  0.46510  0.58690  Biso   1.000  O
  O3       1.0000 0.06520  0.03490  0.41310  Biso   1.000  O
  O4       1.0000 0.43480  0.96510  0.91310  Biso   1.000  O
  O5       1.0000 0.06520  0.46510  0.91310  Biso   1.000  O
  O6       1.0000 0.43480  0.53490  0.41310  Biso   1.000  O
  O7       1.0000 0.93480  0.96510  0.58690  Biso   1.000  O
  O8       1.0000 0.56520  0.03490  0.08690  Biso   1.000  O
  H1       1.0000 0.94500  0.48610  0.08600  Biso   1.000  H
  H2       1.0000 0.55500  0.51390  0.58600  Biso   1.000  H
  H3       1.0000 0.05500  0.98610  0.41400  Biso   1.000  H
  H4       1.0000 0.44500  0.01390  0.91400  Biso   1.000  H
  H5       1.0000 0.05500  0.51390  0.91400  Biso   1.000  H
  H6       1.0000 0.44500  0.48610  0.41400  Biso   1.000  H
  H7       1.0000 0.94500  0.01390  0.58600  Biso   1.000  H
  H8       1.0000 0.55500  0.98610  0.08600  Biso   1.000  H
  H9       1.0000 0.95400  0.56300  0.05300  Biso   1.000  H
  H10      1.0000 0.54600  0.43700  0.55300  Biso   1.000  H
  H11      1.0000 0.04600  0.06300  0.44700  Biso   1.000  H
  H12      1.0000 0.45400  0.93700  0.94700  Biso   1.000  H
  H13      1.0000 0.04600  0.43700  0.94700  Biso   1.000  H
  H14      1.0000 0.45400  0.56300  0.44700  Biso   1.000  H
  H15      1.0000 0.95400  0.93700  0.55300  Biso   1.000  H
  H16      1.0000 0.54600  0.06300  0.05300  Biso   1.000  H
  N1       1.0000 0.83500  0.64880  0.14860  Biso   1.000  N
  N2       1.0000 0.66500  0.35120  0.64860  Biso   1.000  N
  N3       1.0000 0.16500  0.14880  0.35140  Biso   1.000  N
  N4       1.0000 0.33500  0.85120  0.85140  Biso   1.000  N
  N5       1.0000 0.16500  0.35120  0.85140  Biso   1.000  N
  N6       1.0000 0.33500  0.64880  0.35140  Biso   1.000  N
  N7       1.0000 0.83500  0.85120  0.64860  Biso   1.000  N
  N8       1.0000 0.66500  0.14880  0.14860  Biso   1.000  N
  N9       1.0000 0.89590  0.76680  0.16030  Biso   1.000  N
  N10      1.0000 0.60410  0.23320  0.66030  Biso   1.000  N
  N11      1.0000 0.10410  0.26680  0.33970  Biso   1.000  N
  N12      1.0000 0.39590  0.73320  0.83970  Biso   1.000  N
  N13      1.0000 0.10410  0.23320  0.83970  Biso   1.000  N
  N14      1.0000 0.39590  0.76680  0.33970  Biso   1.000  N
  N15      1.0000 0.89590  0.73320  0.66030  Biso   1.000  N
  N16      1.0000 0.60410  0.26680  0.16030  Biso   1.000  N
  N17      1.0000 0.20140  0.91810  0.93130  Biso   1.000  N
  N18      1.0000 0.29860  0.08190  0.43130  Biso   1.000  N
  N19      1.0000 0.79860  0.41810  0.56870  Biso   1.000  N
  N20      1.0000 0.70140  0.58190  0.06870  Biso   1.000  N
  N21      1.0000 0.79860  0.08190  0.06870  Biso   1.000  N
  N22      1.0000 0.70140  0.91810  0.56870  Biso   1.000  N
  N23      1.0000 0.20140  0.58190  0.43130  Biso   1.000  N
  N24      1.0000 0.29860  0.41810  0.93130  Biso   1.000  N
  N25      1.0000 0.09460  0.89450  0.00050  Biso   1.000  N
  N26      1.0000 0.40540  0.10550  0.50050  Biso   1.000  N
  N27      1.0000 0.90540  0.39450  0.49950  Biso   1.000  N
  N28      1.0000 0.59460  0.60550  0.99950  Biso   1.000  N
  N29      1.0000 0.90540  0.10550  0.99950  Biso   1.000  N
  N30      1.0000 0.59460  0.89450  0.49950  Biso   1.000  N
  N31      1.0000 0.09460  0.60550  0.50050  Biso   1.000  N
  N32      1.0000 0.40540  0.39450  0.00050  Biso   1.000  N
  N33      1.0000 0.80340  0.02330  0.70430  Biso   1.000  N
  N34      1.0000 0.69660  0.97670  0.20430  Biso   1.000  N
  N35      1.0000 0.19660  0.52330  0.79570  Biso   1.000  N
  N36      1.0000 0.30340  0.47670  0.29570  Biso   1.000  N
  N37      1.0000 0.19660  0.97670  0.29570  Biso   1.000  N
  N38      1.0000 0.30340  0.02330  0.79570  Biso   1.000  N
  N39      1.0000 0.80340  0.47670  0.20430  Biso   1.000  N
  N40      1.0000 0.69660  0.52330  0.70430  Biso   1.000  N
  N41      1.0000 0.81870  0.13200  0.77450  Biso   1.000  N
  N42      1.0000 0.68130  0.86800  0.27450  Biso   1.000  N
  N43      1.0000 0.18130  0.63200  0.72550  Biso   1.000  N
  N44      1.0000 0.31870  0.36800  0.22550  Biso   1.000  N
  N45      1.0000 0.18130  0.86800  0.22550  Biso   1.000  N
  N46      1.0000 0.31870  0.13200  0.72550  Biso   1.000  N
  N47      1.0000 0.81870  0.36800  0.27450  Biso   1.000  N
  N48      1.0000 0.68130  0.63200  0.77450  Biso   1.000  N
  N49      1.0000 0.79880  0.44310  0.04010  Biso   1.000  N
  N50      1.0000 0.70120  0.55690  0.54010  Biso   1.000  N
  N51      1.0000 0.20120  0.94310  0.45990  Biso   1.000  N
  N52      1.0000 0.29880  0.05690  0.95990  Biso   1.000  N
  N53      1.0000 0.20120  0.55690  0.95990  Biso   1.000  N
  N54      1.0000 0.29880  0.44310  0.45990  Biso   1.000  N
  N55      1.0000 0.79880  0.05690  0.54010  Biso   1.000  N
  N56      1.0000 0.70120  0.94310  0.04010  Biso   1.000  N
  N57      1.0000 0.81550  0.35470  0.95000  Biso   1.000  N
  N58      1.0000 0.68450  0.64530  0.45000  Biso   1.000  N
  N59      1.0000 0.18450  0.85470  0.55000  Biso   1.000  N
  N60      1.0000 0.31550  0.14530  0.05000  Biso   1.000  N
  N61      1.0000 0.18450  0.64530  0.05000  Biso   1.000  N
  N62      1.0000 0.31550  0.35470  0.55000  Biso   1.000  N
  N63      1.0000 0.81550  0.14530  0.45000  Biso   1.000  N
  N64      1.0000 0.68450  0.85470  0.95000  Biso   1.000  N
  C1       1.0000 0.87330  0.70770  0.11360  Biso   1.000  C
  C2       1.0000 0.62670  0.29230  0.61360  Biso   1.000  C
  C3       1.0000 0.12670  0.20770  0.38640  Biso   1.000  C
  C4       1.0000 0.37330  0.79230  0.88640  Biso   1.000  C
  C5       1.0000 0.12670  0.29230  0.88640  Biso   1.000  C
  C6       1.0000 0.37330  0.70770  0.38640  Biso   1.000  C
  C7       1.0000 0.87330  0.79230  0.61360  Biso   1.000  C
  C8       1.0000 0.62670  0.20770  0.11360  Biso   1.000  C
  H17      1.0000 0.88340  0.70830  0.06250  Biso   1.000  H
  H18      1.0000 0.61660  0.29170  0.56250  Biso   1.000  H
  H19      1.0000 0.11660  0.20830  0.43750  Biso   1.000  H
  H20      1.0000 0.38340  0.79170  0.93750  Biso   1.000  H
  H21      1.0000 0.11660  0.29170  0.93750  Biso   1.000  H
  H22      1.0000 0.38340  0.70830  0.43750  Biso   1.000  H
  H23      1.0000 0.88340  0.79170  0.56250  Biso   1.000  H
  H24      1.0000 0.61660  0.20830  0.06250  Biso   1.000  H
  C9       1.0000 0.83310  0.67150  0.22210  Biso   1.000  C
  C10      1.0000 0.66690  0.32850  0.72210  Biso   1.000  C
  C11      1.0000 0.16690  0.17150  0.27790  Biso   1.000  C
  C12      1.0000 0.33310  0.82850  0.77790  Biso   1.000  C
  C13      1.0000 0.16690  0.32850  0.77790  Biso   1.000  C
  C14      1.0000 0.33310  0.67150  0.27790  Biso   1.000  C
  C15      1.0000 0.83310  0.82850  0.72210  Biso   1.000  C
  C16      1.0000 0.66690  0.17150  0.22210  Biso   1.000  C
  H25      1.0000 0.80920  0.64170  0.26050  Biso   1.000  H
  H26      1.0000 0.69080  0.35830  0.76050  Biso   1.000  H
  H27      1.0000 0.19080  0.14170  0.23950  Biso   1.000  H
  H28      1.0000 0.30920  0.85830  0.73950  Biso   1.000  H
  H29      1.0000 0.19080  0.35830  0.73950  Biso   1.000  H
  H30      1.0000 0.30920  0.64170  0.23950  Biso   1.000  H
  H31      1.0000 0.80920  0.85830  0.76050  Biso   1.000  H
  H32      1.0000 0.69080  0.14170  0.26050  Biso   1.000  H
  C17      1.0000 0.87120  0.74360  0.23000  Biso   1.000  C
  C18      1.0000 0.62880  0.25640  0.73000  Biso   1.000  C
  C19      1.0000 0.12880  0.24360  0.27000  Biso   1.000  C
  C20      1.0000 0.37120  0.75640  0.77000  Biso   1.000  C
  C21      1.0000 0.12880  0.25640  0.77000  Biso   1.000  C
  C22      1.0000 0.37120  0.74360  0.27000  Biso   1.000  C
  C23      1.0000 0.87120  0.75640  0.73000  Biso   1.000  C
  C24      1.0000 0.62880  0.24360  0.23000  Biso   1.000  C
  H33      1.0000 0.87910  0.77210  0.27430  Biso   1.000  H
  H34      1.0000 0.62090  0.22790  0.77430  Biso   1.000  H
  H35      1.0000 0.12090  0.27210  0.22570  Biso   1.000  H
  H36      1.0000 0.37910  0.72790  0.72570  Biso   1.000  H
  H37      1.0000 0.12090  0.22790  0.72570  Biso   1.000  H
  H38      1.0000 0.37910  0.77210  0.22570  Biso   1.000  H
  H39      1.0000 0.87910  0.72790  0.77430  Biso   1.000  H
  H40      1.0000 0.62090  0.27210  0.27430  Biso   1.000  H
  C25      1.0000 0.94370  0.83610  0.14150  Biso   1.000  C
  C26      1.0000 0.55630  0.16390  0.64150  Biso   1.000  C
  C27      1.0000 0.05630  0.33610  0.35850  Biso   1.000  C
  C28      1.0000 0.44370  0.66390  0.85850  Biso   1.000  C
  C29      1.0000 0.05630  0.16390  0.85850  Biso   1.000  C
  C30      1.0000 0.44370  0.83610  0.35850  Biso   1.000  C
  C31      1.0000 0.94370  0.66390  0.64150  Biso   1.000  C
  C32      1.0000 0.55630  0.33610  0.14150  Biso   1.000  C
  C33      1.0000 0.94260  0.90320  0.18670  Biso   1.000  C
  C34      1.0000 0.55740  0.09680  0.68670  Biso   1.000  C
  C35      1.0000 0.05740  0.40320  0.31330  Biso   1.000  C
  C36      1.0000 0.44260  0.59680  0.81330  Biso   1.000  C
  C37      1.0000 0.05740  0.09680  0.81330  Biso   1.000  C
  C38      1.0000 0.44260  0.90320  0.31330  Biso   1.000  C
  C39      1.0000 0.94260  0.59680  0.68670  Biso   1.000  C
  C40      1.0000 0.55740  0.40320  0.18670  Biso   1.000  C
  H41      1.0000 0.91070  0.90430  0.22990  Biso   1.000  H
  H42      1.0000 0.58930  0.09570  0.72990  Biso   1.000  H
  H43      1.0000 0.08930  0.40430  0.27010  Biso   1.000  H
  H44      1.0000 0.41070  0.59570  0.77010  Biso   1.000  H
  H45      1.0000 0.08930  0.09570  0.77010  Biso   1.000  H
  H46      1.0000 0.41070  0.90430  0.27010  Biso   1.000  H
  H47      1.0000 0.91070  0.59570  0.72990  Biso   1.000  H
  H48      1.0000 0.58930  0.40430  0.22990  Biso   1.000  H
  C41      1.0000 0.98990  0.96860  0.16670  Biso   1.000  C
  C42      1.0000 0.51010  0.03140  0.66670  Biso   1.000  C
  C43      1.0000 0.01010  0.46860  0.33330  Biso   1.000  C
  C44      1.0000 0.48990  0.53140  0.83330  Biso   1.000  C
  C45      1.0000 0.01010  0.03140  0.83330  Biso   1.000  C
  C46      1.0000 0.48990  0.96860  0.33330  Biso   1.000  C
  C47      1.0000 0.98990  0.53140  0.66670  Biso   1.000  C
  C48      1.0000 0.51010  0.46860  0.16670  Biso   1.000  C
  H49      1.0000 0.98930  0.01510  0.19640  Biso   1.000  H
  H50      1.0000 0.51070  0.98490  0.69640  Biso   1.000  H
  H51      1.0000 0.01070  0.51510  0.30360  Biso   1.000  H
  H52      1.0000 0.48930  0.48490  0.80360  Biso   1.000  H
  H53      1.0000 0.01070  0.98490  0.80360  Biso   1.000  H
  H54      1.0000 0.48930  0.01510  0.30360  Biso   1.000  H
  H55      1.0000 0.98930  0.48490  0.69640  Biso   1.000  H
  H56      1.0000 0.51070  0.51510  0.19640  Biso   1.000  H
  C49      1.0000 0.03740  0.96730  0.10460  Biso   1.000  C
  C50      1.0000 0.46260  0.03270  0.60460  Biso   1.000  C
  C51      1.0000 0.96260  0.46730  0.39540  Biso   1.000  C
  C52      1.0000 0.53740  0.53270  0.89540  Biso   1.000  C
  C53      1.0000 0.96260  0.03270  0.89540  Biso   1.000  C
  C54      1.0000 0.53740  0.96730  0.39540  Biso   1.000  C
  C55      1.0000 0.03740  0.53270  0.60460  Biso   1.000  C
  C56      1.0000 0.46260  0.46730  0.10460  Biso   1.000  C
  H57      1.0000 0.06800  0.01290  0.09110  Biso   1.000  H
  H58      1.0000 0.43200  0.98710  0.59110  Biso   1.000  H
  H59      1.0000 0.93200  0.51290  0.40890  Biso   1.000  H
  H60      1.0000 0.56800  0.48710  0.90890  Biso   1.000  H
  H61      1.0000 0.93200  0.98710  0.90890  Biso   1.000  H
  H62      1.0000 0.56800  0.01290  0.40890  Biso   1.000  H
  H63      1.0000 0.06800  0.48710  0.59110  Biso   1.000  H
  H64      1.0000 0.43200  0.51290  0.09110  Biso   1.000  H
  C57      1.0000 0.03990  0.89840  0.06190  Biso   1.000  C
  C58      1.0000 0.46010  0.10160  0.56190  Biso   1.000  C
  C59      1.0000 0.96010  0.39840  0.43810  Biso   1.000  C
  C60      1.0000 0.53990  0.60160  0.93810  Biso   1.000  C
  C61      1.0000 0.96010  0.10160  0.93810  Biso   1.000  C
  C62      1.0000 0.53990  0.89840  0.43810  Biso   1.000  C
  C63      1.0000 0.03990  0.60160  0.56190  Biso   1.000  C
  C64      1.0000 0.46010  0.39840  0.06190  Biso   1.000  C
  C65      1.0000 0.99330  0.83190  0.07960  Biso   1.000  C
  C66      1.0000 0.50670  0.16810  0.57960  Biso   1.000  C
  C67      1.0000 0.00670  0.33190  0.42040  Biso   1.000  C
  C68      1.0000 0.49330  0.66810  0.92040  Biso   1.000  C
  C69      1.0000 0.00670  0.16810  0.92040  Biso   1.000  C
  C70      1.0000 0.49330  0.83190  0.42040  Biso   1.000  C
  C71      1.0000 0.99330  0.66810  0.57960  Biso   1.000  C
  C72      1.0000 0.50670  0.33190  0.07960  Biso   1.000  C
  H65      1.0000 0.99510  0.78500  0.05040  Biso   1.000  H
  H66      1.0000 0.50490  0.21500  0.55040  Biso   1.000  H
  H67      1.0000 0.00490  0.28500  0.44960  Biso   1.000  H
  H68      1.0000 0.49510  0.71500  0.94960  Biso   1.000  H
  H69      1.0000 0.00490  0.21500  0.94960  Biso   1.000  H
  H70      1.0000 0.49510  0.78500  0.44960  Biso   1.000  H
  H71      1.0000 0.99510  0.71500  0.55040  Biso   1.000  H
  H72      1.0000 0.50490  0.28500  0.05040  Biso   1.000  H
  C73      1.0000 0.16360  0.93700  0.99270  Biso   1.000  C
  C74      1.0000 0.33640  0.06300  0.49270  Biso   1.000  C
  C75      1.0000 0.83640  0.43700  0.50730  Biso   1.000  C
  C76      1.0000 0.66360  0.56300  0.00730  Biso   1.000  C
  C77      1.0000 0.83640  0.06300  0.00730  Biso   1.000  C
  C78      1.0000 0.66360  0.93700  0.50730  Biso   1.000  C
  C79      1.0000 0.16360  0.56300  0.49270  Biso   1.000  C
  C80      1.0000 0.33640  0.43700  0.99270  Biso   1.000  C
  H73      1.0000 0.18240  0.97540  0.02690  Biso   1.000  H
  H74      1.0000 0.31760  0.02460  0.52690  Biso   1.000  H
  H75      1.0000 0.81760  0.47540  0.47310  Biso   1.000  H
  H76      1.0000 0.68240  0.52460  0.97310  Biso   1.000  H
  H77      1.0000 0.81760  0.02460  0.97310  Biso   1.000  H
  H78      1.0000 0.68240  0.97540  0.47310  Biso   1.000  H
  H79      1.0000 0.18240  0.52460  0.52690  Biso   1.000  H
  H80      1.0000 0.31760  0.47540  0.02690  Biso   1.000  H
  C81      1.0000 0.08800  0.84480  0.93960  Biso   1.000  C
  C82      1.0000 0.41200  0.15520  0.43960  Biso   1.000  C
  C83      1.0000 0.91200  0.34480  0.56040  Biso   1.000  C
  C84      1.0000 0.58800  0.65520  0.06040  Biso   1.000  C
  C85      1.0000 0.91200  0.15520  0.06040  Biso   1.000  C
  C86      1.0000 0.58800  0.84480  0.56040  Biso   1.000  C
  C87      1.0000 0.08800  0.65520  0.43960  Biso   1.000  C
  C88      1.0000 0.41200  0.34480  0.93960  Biso   1.000  C
  H81      1.0000 0.04580  0.80800  0.92920  Biso   1.000  H
  H82      1.0000 0.45420  0.19200  0.42920  Biso   1.000  H
  H83      1.0000 0.95420  0.30800  0.57080  Biso   1.000  H
  H84      1.0000 0.54580  0.69200  0.07080  Biso   1.000  H
  H85      1.0000 0.95420  0.19200  0.07080  Biso   1.000  H
  H86      1.0000 0.54580  0.80800  0.57080  Biso   1.000  H
  H87      1.0000 0.04580  0.69200  0.42920  Biso   1.000  H
  H88      1.0000 0.45420  0.30800  0.92920  Biso   1.000  H
  C89      1.0000 0.15510  0.86010  0.89760  Biso   1.000  C
  C90      1.0000 0.34490  0.13990  0.39760  Biso   1.000  C
  C91      1.0000 0.84490  0.36010  0.60240  Biso   1.000  C
  C92      1.0000 0.65510  0.63990  0.10240  Biso   1.000  C
  C93      1.0000 0.84490  0.13990  0.10240  Biso   1.000  C
  C94      1.0000 0.65510  0.86010  0.60240  Biso   1.000  C
  C95      1.0000 0.15510  0.63990  0.39760  Biso   1.000  C
  C96      1.0000 0.34490  0.36010  0.89760  Biso   1.000  C
  H89      1.0000 0.16770  0.83470  0.85260  Biso   1.000  H
  H90      1.0000 0.33230  0.16530  0.35260  Biso   1.000  H
  H91      1.0000 0.83230  0.33470  0.64740  Biso   1.000  H
  H92      1.0000 0.66770  0.66530  0.14740  Biso   1.000  H
  H93      1.0000 0.83230  0.16530  0.14740  Biso   1.000  H
  H94      1.0000 0.66770  0.83470  0.64740  Biso   1.000  H
  H95      1.0000 0.16770  0.66530  0.35260  Biso   1.000  H
  H96      1.0000 0.33230  0.33470  0.85260  Biso   1.000  H
  C97      1.0000 0.74620  0.02230  0.76010  Biso   1.000  C
  C98      1.0000 0.75380  0.97770  0.26010  Biso   1.000  C
  C99      1.0000 0.25380  0.52230  0.73990  Biso   1.000  C
  C100     1.0000 0.24620  0.47770  0.23990  Biso   1.000  C
  C101     1.0000 0.25380  0.97770  0.23990  Biso   1.000  C
  C102     1.0000 0.24620  0.02230  0.73990  Biso   1.000  C
  C103     1.0000 0.74620  0.47770  0.26010  Biso   1.000  C
  C104     1.0000 0.75380  0.52230  0.76010  Biso   1.000  C
  H97      1.0000 0.70720  0.98150  0.76710  Biso   1.000  H
  H98      1.0000 0.79280  0.01850  0.26710  Biso   1.000  H
  H99      1.0000 0.29280  0.48150  0.73290  Biso   1.000  H
  H100     1.0000 0.20720  0.51850  0.23290  Biso   1.000  H
  H101     1.0000 0.29280  0.01850  0.23290  Biso   1.000  H
  H102     1.0000 0.20720  0.98150  0.73290  Biso   1.000  H
  H103     1.0000 0.70720  0.51850  0.26710  Biso   1.000  H
  H104     1.0000 0.79280  0.48150  0.76710  Biso   1.000  H
  C105     1.0000 0.75410  0.08890  0.80370  Biso   1.000  C
  C106     1.0000 0.74590  0.91110  0.30370  Biso   1.000  C
  C107     1.0000 0.24590  0.58890  0.69630  Biso   1.000  C
  C108     1.0000 0.25410  0.41110  0.19630  Biso   1.000  C
  C109     1.0000 0.24590  0.91110  0.19630  Biso   1.000  C
  C110     1.0000 0.25410  0.08890  0.69630  Biso   1.000  C
  C111     1.0000 0.75410  0.41110  0.30370  Biso   1.000  C
  C112     1.0000 0.74590  0.58890  0.80370  Biso   1.000  C
  H105     1.0000 0.72230  0.10270  0.84500  Biso   1.000  H
  H106     1.0000 0.77770  0.89730  0.34500  Biso   1.000  H
  H107     1.0000 0.27770  0.60270  0.65500  Biso   1.000  H
  H108     1.0000 0.22230  0.39730  0.15500  Biso   1.000  H
  H109     1.0000 0.27770  0.89730  0.15500  Biso   1.000  H
  H110     1.0000 0.22230  0.10270  0.65500  Biso   1.000  H
  H111     1.0000 0.72230  0.39730  0.34500  Biso   1.000  H
  H112     1.0000 0.77770  0.60270  0.84500  Biso   1.000  H
  C113     1.0000 0.84570  0.08920  0.71550  Biso   1.000  C
  C114     1.0000 0.65430  0.91080  0.21550  Biso   1.000  C
  C115     1.0000 0.15430  0.58920  0.78450  Biso   1.000  C
  C116     1.0000 0.34570  0.41080  0.28450  Biso   1.000  C
  C117     1.0000 0.15430  0.91080  0.28450  Biso   1.000  C
  C118     1.0000 0.34570  0.08920  0.78450  Biso   1.000  C
  C119     1.0000 0.84570  0.41080  0.21550  Biso   1.000  C
  C120     1.0000 0.65430  0.58920  0.71550  Biso   1.000  C
  H113     1.0000 0.89000  0.10510  0.68580  Biso   1.000  H
  H114     1.0000 0.61000  0.89490  0.18580  Biso   1.000  H
  H115     1.0000 0.11000  0.60510  0.81420  Biso   1.000  H
  H116     1.0000 0.39000  0.39490  0.31420  Biso   1.000  H
  H117     1.0000 0.11000  0.89490  0.31420  Biso   1.000  H
  H118     1.0000 0.39000  0.10510  0.81420  Biso   1.000  H
  H119     1.0000 0.89000  0.39490  0.18580  Biso   1.000  H
  H120     1.0000 0.61000  0.60510  0.68580  Biso   1.000  H
  C121     1.0000 0.75270  0.37560  0.05450  Biso   1.000  C
  C122     1.0000 0.74730  0.62440  0.55450  Biso   1.000  C
  C123     1.0000 0.24730  0.87560  0.44550  Biso   1.000  C
  C124     1.0000 0.25270  0.12440  0.94550  Biso   1.000  C
  C125     1.0000 0.24730  0.62440  0.94550  Biso   1.000  C
  C126     1.0000 0.25270  0.37560  0.44550  Biso   1.000  C
  C127     1.0000 0.75270  0.12440  0.55450  Biso   1.000  C
  C128     1.0000 0.74730  0.87560  0.05450  Biso   1.000  C
  H121     1.0000 0.71920  0.36830  0.09620  Biso   1.000  H
  H122     1.0000 0.78080  0.63170  0.59620  Biso   1.000  H
  H123     1.0000 0.28080  0.86830  0.40380  Biso   1.000  H
  H124     1.0000 0.21920  0.13170  0.90380  Biso   1.000  H
  H125     1.0000 0.28080  0.63170  0.90380  Biso   1.000  H
  H126     1.0000 0.21920  0.36830  0.40380  Biso   1.000  H
  H127     1.0000 0.71920  0.13170  0.59620  Biso   1.000  H
  H128     1.0000 0.78080  0.86830  0.09620  Biso   1.000  H
  C129     1.0000 0.76290  0.32190  0.99970  Biso   1.000  C
  C130     1.0000 0.73710  0.67810  0.49970  Biso   1.000  C
  C131     1.0000 0.23710  0.82190  0.50030  Biso   1.000  C
  C132     1.0000 0.26290  0.17810  0.00030  Biso   1.000  C
  C133     1.0000 0.23710  0.67810  0.00030  Biso   1.000  C
  C134     1.0000 0.26290  0.32190  0.50030  Biso   1.000  C
  C135     1.0000 0.76290  0.17810  0.49970  Biso   1.000  C
  C136     1.0000 0.73710  0.82190  0.99970  Biso   1.000  C
  H129     1.0000 0.73810  0.27090  0.99630  Biso   1.000  H
  H130     1.0000 0.76190  0.72910  0.49630  Biso   1.000  H
  H131     1.0000 0.26190  0.77090  0.50370  Biso   1.000  H
  H132     1.0000 0.23810  0.22910  0.00370  Biso   1.000  H
  H133     1.0000 0.26190  0.72910  0.00370  Biso   1.000  H
  H134     1.0000 0.23810  0.27090  0.50370  Biso   1.000  H
  H135     1.0000 0.73810  0.22910  0.49630  Biso   1.000  H
  H136     1.0000 0.76190  0.77090  0.99630  Biso   1.000  H
  C137     1.0000 0.83540  0.42700  0.97770  Biso   1.000  C
  C138     1.0000 0.66460  0.57300  0.47770  Biso   1.000  C
  C139     1.0000 0.16460  0.92700  0.52230  Biso   1.000  C
  C140     1.0000 0.33540  0.07300  0.02230  Biso   1.000  C
  C141     1.0000 0.16460  0.57300  0.02230  Biso   1.000  C
  C142     1.0000 0.33540  0.42700  0.52230  Biso   1.000  C
  C143     1.0000 0.83540  0.07300  0.47770  Biso   1.000  C
  C144     1.0000 0.66460  0.92700  0.97770  Biso   1.000  C
  H137     1.0000 0.87200  0.46250  0.95460  Biso   1.000  H
  H138     1.0000 0.62800  0.53750  0.45460  Biso   1.000  H
  H139     1.0000 0.12800  0.96250  0.54540  Biso   1.000  H
  H140     1.0000 0.37200  0.03750  0.04540  Biso   1.000  H
  H141     1.0000 0.12800  0.53750  0.04540  Biso   1.000  H
  H142     1.0000 0.37200  0.46250  0.54540  Biso   1.000  H
  H143     1.0000 0.87200  0.03750  0.45460  Biso   1.000  H
  H144     1.0000 0.62800  0.96250  0.95460  Biso   1.000  H
  C145     1.0000 0.84560  0.31840  0.88380  Biso   1.000  C
  C146     1.0000 0.65440  0.68160  0.38380  Biso   1.000  C
  C147     1.0000 0.15440  0.81840  0.61620  Biso   1.000  C
  C148     1.0000 0.34560  0.18160  0.11620  Biso   1.000  C
  C149     1.0000 0.15440  0.68160  0.11620  Biso   1.000  C
  C150     1.0000 0.34560  0.31840  0.61620  Biso   1.000  C
  C151     1.0000 0.84560  0.18160  0.38380  Biso   1.000  C
  C152     1.0000 0.65440  0.81840  0.88380  Biso   1.000  C
  C153     1.0000 0.90510  0.35890  0.84340  Biso   1.000  C
  C154     1.0000 0.59490  0.64110  0.34340  Biso   1.000  C
  C155     1.0000 0.09490  0.85890  0.65660  Biso   1.000  C
  C156     1.0000 0.40510  0.14110  0.15660  Biso   1.000  C
  C157     1.0000 0.09490  0.64110  0.15660  Biso   1.000  C
  C158     1.0000 0.40510  0.35890  0.65660  Biso   1.000  C
  C159     1.0000 0.90510  0.14110  0.34340  Biso   1.000  C
  C160     1.0000 0.59490  0.85890  0.84340  Biso   1.000  C
  H145     1.0000 0.92310  0.41020  0.85800  Biso   1.000  H
  H146     1.0000 0.57690  0.58980  0.35800  Biso   1.000  H
  H147     1.0000 0.07690  0.91020  0.64200  Biso   1.000  H
  H148     1.0000 0.42310  0.08980  0.14200  Biso   1.000  H
  H149     1.0000 0.07690  0.58980  0.14200  Biso   1.000  H
  H150     1.0000 0.42310  0.41020  0.64200  Biso   1.000  H
  H151     1.0000 0.92310  0.08980  0.35800  Biso   1.000  H
  H152     1.0000 0.57690  0.91020  0.85800  Biso   1.000  H
  C161     1.0000 0.93720  0.32200  0.78110  Biso   1.000  C
  C162     1.0000 0.56280  0.67800  0.28110  Biso   1.000  C
  C163     1.0000 0.06280  0.82200  0.71890  Biso   1.000  C
  C164     1.0000 0.43720  0.17800  0.21890  Biso   1.000  C
  C165     1.0000 0.06280  0.67800  0.21890  Biso   1.000  C
  C166     1.0000 0.43720  0.32200  0.71890  Biso   1.000  C
  C167     1.0000 0.93720  0.17800  0.28110  Biso   1.000  C
  C168     1.0000 0.56280  0.82200  0.78110  Biso   1.000  C
  H153     1.0000 0.97890  0.34750  0.75410  Biso   1.000  H
  H154     1.0000 0.52110  0.65250  0.25410  Biso   1.000  H
  H155     1.0000 0.02110  0.84750  0.74590  Biso   1.000  H
  H156     1.0000 0.47890  0.15250  0.24590  Biso   1.000  H
  H157     1.0000 0.02110  0.65250  0.24590  Biso   1.000  H
  H158     1.0000 0.47890  0.34750  0.74590  Biso   1.000  H
  H159     1.0000 0.97890  0.15250  0.25410  Biso   1.000  H
  H160     1.0000 0.52110  0.84750  0.75410  Biso   1.000  H
  C169     1.0000 0.90790  0.24750  0.75850  Biso   1.000  C
  C170     1.0000 0.59210  0.75250  0.25850  Biso   1.000  C
  C171     1.0000 0.09210  0.74750  0.74150  Biso   1.000  C
  C172     1.0000 0.40790  0.25250  0.24150  Biso   1.000  C
  C173     1.0000 0.09210  0.75250  0.24150  Biso   1.000  C
  C174     1.0000 0.40790  0.24750  0.74150  Biso   1.000  C
  C175     1.0000 0.90790  0.25250  0.25850  Biso   1.000  C
  C176     1.0000 0.59210  0.74750  0.75850  Biso   1.000  C
  H161     1.0000 0.92890  0.22350  0.71550  Biso   1.000  H
  H162     1.0000 0.57110  0.77650  0.21550  Biso   1.000  H
  H163     1.0000 0.07110  0.72350  0.78450  Biso   1.000  H
  H164     1.0000 0.42890  0.27650  0.28450  Biso   1.000  H
  H165     1.0000 0.07110  0.77650  0.28450  Biso   1.000  H
  H166     1.0000 0.42890  0.22350  0.78450  Biso   1.000  H
  H167     1.0000 0.92890  0.27650  0.21550  Biso   1.000  H
  H168     1.0000 0.57110  0.72350  0.71550  Biso   1.000  H
  C177     1.0000 0.84860  0.20840  0.79830  Biso   1.000  C
  C178     1.0000 0.65140  0.79160  0.29830  Biso   1.000  C
  C179     1.0000 0.15140  0.70840  0.70170  Biso   1.000  C
  C180     1.0000 0.34860  0.29160  0.20170  Biso   1.000  C
  C181     1.0000 0.15140  0.79160  0.20170  Biso   1.000  C
  C182     1.0000 0.34860  0.20840  0.70170  Biso   1.000  C
  C183     1.0000 0.84860  0.29160  0.29830  Biso   1.000  C
  C184     1.0000 0.65140  0.70840  0.79830  Biso   1.000  C
  C185     1.0000 0.81600  0.24480  0.86120  Biso   1.000  C
  C186     1.0000 0.68400  0.75520  0.36120  Biso   1.000  C
  C187     1.0000 0.18400  0.74480  0.63880  Biso   1.000  C
  C188     1.0000 0.31600  0.25520  0.13880  Biso   1.000  C
  C189     1.0000 0.18400  0.75520  0.13880  Biso   1.000  C
  C190     1.0000 0.31600  0.24480  0.63880  Biso   1.000  C
  C191     1.0000 0.81600  0.25520  0.36120  Biso   1.000  C
  C192     1.0000 0.68400  0.74480  0.86120  Biso   1.000  C
  H169     1.0000 0.77410  0.21930  0.88790  Biso   1.000  H
  H170     1.0000 0.72590  0.78070  0.38790  Biso   1.000  H
  H171     1.0000 0.22590  0.71930  0.61210  Biso   1.000  H
  H172     1.0000 0.27410  0.28070  0.11210  Biso   1.000  H
  H173     1.0000 0.22590  0.78070  0.11210  Biso   1.000  H
  H174     1.0000 0.27410  0.21930  0.61210  Biso   1.000  H
  H175     1.0000 0.77410  0.28070  0.38790  Biso   1.000  H
  H176     1.0000 0.72590  0.71930  0.88790  Biso   1.000  H
  S1       1.0000 0.43595  0.85644  0.07759  Biso   1.000  S
  S2       1.0000 0.06405  0.14356  0.57759  Biso   1.000  S
  S3       1.0000 0.56405  0.35644  0.42241  Biso   1.000  S
  S4       1.0000 0.93595  0.64356  0.92241  Biso   1.000  S
  S5       1.0000 0.56405  0.14356  0.92241  Biso   1.000  S
  S6       1.0000 0.93595  0.85644  0.42241  Biso   1.000  S
  S7       1.0000 0.43595  0.64356  0.57759  Biso   1.000  S
  S8       1.0000 0.06405  0.35644  0.07759  Biso   1.000  S
  O9       1.0000 0.44420  0.93310  0.11780  Biso   1.000  O
  O10      1.0000 0.05580  0.06690  0.61780  Biso   1.000  O
  O11      1.0000 0.55580  0.43310  0.38220  Biso   1.000  O
  O12      1.0000 0.94420  0.56690  0.88220  Biso   1.000  O
  O13      1.0000 0.55580  0.06690  0.88220  Biso   1.000  O
  O14      1.0000 0.94420  0.93310  0.38220  Biso   1.000  O
  O15      1.0000 0.44420  0.56690  0.61780  Biso   1.000  O
  O16      1.0000 0.05580  0.43310  0.11780  Biso   1.000  O
  O17      1.0000 0.48790  0.85760  0.01080  Biso   1.000  O
  O18      1.0000 0.01210  0.14240  0.51080  Biso   1.000  O
  O19      1.0000 0.51210  0.35760  0.48920  Biso   1.000  O
  O20      1.0000 0.98790  0.64240  0.98920  Biso   1.000  O
  O21      1.0000 0.51210  0.14240  0.98920  Biso   1.000  O
  O22      1.0000 0.98790  0.85760  0.48920  Biso   1.000  O
  O23      1.0000 0.48790  0.64240  0.51080  Biso   1.000  O
  O24      1.0000 0.01210  0.35760  0.01080  Biso   1.000  O
  O25      1.0000 0.46060  0.79020  0.12500  Biso   1.000  O
  O26      1.0000 0.03940  0.20980  0.62500  Biso   1.000  O
  O27      1.0000 0.53940  0.29020  0.37500  Biso   1.000  O
  O28      1.0000 0.96060  0.70980  0.87500  Biso   1.000  O
  O29      1.0000 0.53940  0.20980  0.87500  Biso   1.000  O
  O30      1.0000 0.96060  0.79020  0.37500  Biso   1.000  O
  O31      1.0000 0.46060  0.70980  0.62500  Biso   1.000  O
  O32      1.0000 0.03940  0.29020  0.12500  Biso   1.000  O
  O33      1.0000 0.35070  0.84740  0.05470  Biso   1.000  O
  O34      1.0000 0.14930  0.15260  0.55470  Biso   1.000  O
  O35      1.0000 0.64930  0.34740  0.44530  Biso   1.000  O
  O36      1.0000 0.85070  0.65260  0.94530  Biso   1.000  O
  O37      1.0000 0.64930  0.15260  0.94530  Biso   1.000  O
  O38      1.0000 0.85070  0.84740  0.44530  Biso   1.000  O
  O39      1.0000 0.35070  0.65260  0.55470  Biso   1.000  O
  O40      1.0000 0.14930  0.34740  0.05470  Biso   1.000  O
  O41      1.0000 0.35620  0.88310  0.04860  Biso   1.000  O
  O42      1.0000 0.14380  0.11690  0.54860  Biso   1.000  O
  O43      1.0000 0.64380  0.38310  0.45140  Biso   1.000  O
  O44      1.0000 0.85620  0.61690  0.95140  Biso   1.000  O
  O45      1.0000 0.64380  0.11690  0.95140  Biso   1.000  O
  O46      1.0000 0.85620  0.88310  0.45140  Biso   1.000  O
  O47      1.0000 0.35620  0.61690  0.54860  Biso   1.000  O
  O48      1.0000 0.14380  0.38310  0.04860  Biso   1.000  O
  O49      1.0000 0.50020  0.88190  0.02670  Biso   1.000  O
  O50      1.0000 0.99980  0.11810  0.52670  Biso   1.000  O
  O51      1.0000 0.49980  0.38190  0.47330  Biso   1.000  O
  O52      1.0000 0.00020  0.61810  0.97330  Biso   1.000  O
  O53      1.0000 0.49980  0.11810  0.97330  Biso   1.000  O
  O54      1.0000 0.00020  0.88190  0.47330  Biso   1.000  O
  O55      1.0000 0.50020  0.61810  0.52670  Biso   1.000  O
  O56      1.0000 0.99980  0.38190  0.02670  Biso   1.000  O
  O57      1.0000 0.43450  0.76830  0.08310  Biso   1.000  O
  O58      1.0000 0.06550  0.23170  0.58310  Biso   1.000  O
  O59      1.0000 0.56550  0.26830  0.41690  Biso   1.000  O
  O60      1.0000 0.93450  0.73170  0.91690  Biso   1.000  O
  O61      1.0000 0.56550  0.23170  0.91690  Biso   1.000  O
  O62      1.0000 0.93450  0.76830  0.41690  Biso   1.000  O
  O63      1.0000 0.43450  0.73170  0.58310  Biso   1.000  O
  O64      1.0000 0.06550  0.26830  0.08310  Biso   1.000  O
  O65      1.0000 0.44860  0.89200  0.15030  Biso   1.000  O
  O66      1.0000 0.05140  0.10800  0.65030  Biso   1.000  O
  O67      1.0000 0.55140  0.39200  0.34970  Biso   1.000  O
  O68      1.0000 0.94860  0.60800  0.84970  Biso   1.000  O
  O69      1.0000 0.55140  0.10800  0.84970  Biso   1.000  O
  O70      1.0000 0.94860  0.89200  0.34970  Biso   1.000  O
  O71      1.0000 0.44860  0.60800  0.65030  Biso   1.000  O
  O72      1.0000 0.05140  0.39200  0.15030  Biso   1.000  O
  O73      1.0000 0.37850  0.64530  0.09660  Biso   1.000  O
  O74      1.0000 0.12150  0.35470  0.59660  Biso   1.000  O
  O75      1.0000 0.62150  0.14530  0.40340  Biso   1.000  O
  O76      1.0000 0.87850  0.85470  0.90340  Biso   1.000  O
  O77      1.0000 0.62150  0.35470  0.90340  Biso   1.000  O
  O78      1.0000 0.87850  0.64530  0.40340  Biso   1.000  O
  O79      1.0000 0.37850  0.85470  0.59660  Biso   1.000  O
  O80      1.0000 0.12150  0.14530  0.09660  Biso   1.000  O
  H177     1.0000 0.40500  0.63500  0.13500  Biso   1.000  H
  H178     1.0000 0.09500  0.36500  0.63500  Biso   1.000  H
  H179     1.0000 0.59500  0.13500  0.36500  Biso   1.000  H
  H180     1.0000 0.90500  0.86500  0.86500  Biso   1.000  H
  H181     1.0000 0.59500  0.36500  0.86500  Biso   1.000  H
  H182     1.0000 0.90500  0.63500  0.36500  Biso   1.000  H
  H183     1.0000 0.40500  0.86500  0.63500  Biso   1.000  H
  H184     1.0000 0.09500  0.13500  0.13500  Biso   1.000  H
  H185     1.0000 0.32780  0.64300  0.10100  Biso   1.000  H
  H186     1.0000 0.17220  0.35700  0.60100  Biso   1.000  H
  H187     1.0000 0.67220  0.14300  0.39900  Biso   1.000  H
  H188     1.0000 0.82780  0.85700  0.89900  Biso   1.000  H
  H189     1.0000 0.67220  0.35700  0.89900  Biso   1.000  H
  H190     1.0000 0.82780  0.64300  0.39900  Biso   1.000  H
  H191     1.0000 0.32780  0.85700  0.60100  Biso   1.000  H
  H192     1.0000 0.17220  0.14300  0.10100  Biso   1.000  H
