data_image0
_cell_length_a       10.846
_cell_length_b       6.9288
_cell_length_c       16.7202
_cell_angle_alpha    90
_cell_angle_beta     103.978
_cell_angle_gamma    90

_symmetry_space_group_name_H-M    "P 1"
_symmetry_int_tables_number       1

loop_
  _symmetry_equiv_pos_as_xyz
  'x, y, z'

loop_
  _atom_site_label
  _atom_site_occupancy
  _atom_site_fract_x
  _atom_site_fract_y
  _atom_site_fract_z
  _atom_site_thermal_displace_type
  _atom_site_B_iso_or_equiv
  _atom_site_type_symbol
  Cu1      1.0000 0.19553  0.68525  0.38765  Biso   1.000  Cu
  Cu2      1.0000 0.80447  0.18525  0.11235  Biso   1.000  Cu
  Cu3      1.0000 0.80447  0.31475  0.61235  Biso   1.000  Cu
  Cu4      1.0000 0.19553  0.81475  0.88765  Biso   1.000  Cu
  N1       1.0000 0.23950  0.88960  0.18700  Biso   1.000  N
  N2       1.0000 0.76050  0.38960  0.31300  Biso   1.000  N
  N3       1.0000 0.76050  0.11040  0.81300  Biso   1.000  N
  N4       1.0000 0.23950  0.61040  0.68700  Biso   1.000  N
  N5       1.0000 0.33620  0.65220  0.32630  Biso   1.000  N
  N6       1.0000 0.66380  0.15220  0.17370  Biso   1.000  N
  N7       1.0000 0.66380  0.34780  0.67370  Biso   1.000  N
  N8       1.0000 0.33620  0.84780  0.82630  Biso   1.000  N
  O1       1.0000 0.96410  0.15500  0.07455  Biso   1.000  O
  O2       1.0000 0.03590  0.65500  0.42545  Biso   1.000  O
  O3       1.0000 0.03590  0.84500  0.92545  Biso   1.000  O
  O4       1.0000 0.96410  0.34500  0.57455  Biso   1.000  O
  O5       1.0000 0.00930  0.03690  0.20150  Biso   1.000  O
  O6       1.0000 0.99070  0.53690  0.29850  Biso   1.000  O
  O7       1.0000 0.99070  0.96310  0.79850  Biso   1.000  O
  O8       1.0000 0.00930  0.46310  0.70150  Biso   1.000  O
  O9       1.0000 0.24960  0.43000  0.42931  Biso   1.000  O
  O10      1.0000 0.75040  0.93000  0.07069  Biso   1.000  O
  O11      1.0000 0.75040  0.57000  0.57069  Biso   1.000  O
  O12      1.0000 0.24960  0.07000  0.92931  Biso   1.000  O
  O13      1.0000 0.41530  0.23110  0.45500  Biso   1.000  O
  O14      1.0000 0.58470  0.73110  0.04500  Biso   1.000  O
  O15      1.0000 0.58470  0.76890  0.54500  Biso   1.000  O
  O16      1.0000 0.41530  0.26890  0.95500  Biso   1.000  O
  O17      1.0000 0.36790  0.13300  0.24676  Biso   1.000  O
  O18      1.0000 0.63210  0.63300  0.25324  Biso   1.000  O
  O19      1.0000 0.63210  0.86700  0.75324  Biso   1.000  O
  O20      1.0000 0.36790  0.36700  0.74676  Biso   1.000  O
  C1       1.0000 0.03920  0.07080  0.13580  Biso   1.000  C
  C2       1.0000 0.96080  0.57080  0.36420  Biso   1.000  C
  C3       1.0000 0.96080  0.92920  0.86420  Biso   1.000  C
  C4       1.0000 0.03920  0.42920  0.63580  Biso   1.000  C
  C5       1.0000 0.16810  0.01300  0.12230  Biso   1.000  C
  C6       1.0000 0.83190  0.51300  0.37770  Biso   1.000  C
  C7       1.0000 0.83190  0.98700  0.87770  Biso   1.000  C
  C8       1.0000 0.16810  0.48700  0.62230  Biso   1.000  C
  H1       1.0000 0.15530  0.94500  0.06890  Biso   1.000  H
  H2       1.0000 0.84470  0.44500  0.43110  Biso   1.000  H
  H3       1.0000 0.84470  0.05500  0.93110  Biso   1.000  H
  H4       1.0000 0.15530  0.55500  0.56890  Biso   1.000  H
  H5       1.0000 0.21810  0.13110  0.11920  Biso   1.000  H
  H6       1.0000 0.78190  0.63110  0.38080  Biso   1.000  H
  H7       1.0000 0.78190  0.86890  0.88080  Biso   1.000  H
  H8       1.0000 0.21810  0.36890  0.61920  Biso   1.000  H
  C9       1.0000 0.33220  0.96510  0.24770  Biso   1.000  C
  C10      1.0000 0.66780  0.46510  0.25230  Biso   1.000  C
  C11      1.0000 0.66780  0.03490  0.75230  Biso   1.000  C
  C12      1.0000 0.33220  0.53490  0.74770  Biso   1.000  C
  C13      1.0000 0.40190  0.83430  0.31460  Biso   1.000  C
  C14      1.0000 0.59810  0.33430  0.18540  Biso   1.000  C
  C15      1.0000 0.59810  0.16570  0.68540  Biso   1.000  C
  C16      1.0000 0.40190  0.66570  0.81460  Biso   1.000  C
  H9       1.0000 0.48460  0.80070  0.30290  Biso   1.000  H
  H10      1.0000 0.51540  0.30070  0.19710  Biso   1.000  H
  H11      1.0000 0.51540  0.19930  0.69710  Biso   1.000  H
  H12      1.0000 0.48460  0.69930  0.80290  Biso   1.000  H
  H13      1.0000 0.42020  0.90670  0.36720  Biso   1.000  H
  H14      1.0000 0.57980  0.40670  0.13280  Biso   1.000  H
  H15      1.0000 0.57980  0.09330  0.63280  Biso   1.000  H
  H16      1.0000 0.42020  0.59330  0.86720  Biso   1.000  H
  C17      1.0000 0.19190  0.69090  0.18860  Biso   1.000  C
  C18      1.0000 0.80810  0.19090  0.31140  Biso   1.000  C
  C19      1.0000 0.80810  0.30910  0.81140  Biso   1.000  C
  C20      1.0000 0.19190  0.80910  0.68860  Biso   1.000  C
  H17      1.0000 0.17210  0.63680  0.13220  Biso   1.000  H
  H18      1.0000 0.82790  0.13680  0.36780  Biso   1.000  H
  H19      1.0000 0.82790  0.36320  0.86780  Biso   1.000  H
  H20      1.0000 0.17210  0.86320  0.63220  Biso   1.000  H
  H21      1.0000 0.11250  0.69250  0.20790  Biso   1.000  H
  H22      1.0000 0.88750  0.19250  0.29210  Biso   1.000  H
  H23      1.0000 0.88750  0.30750  0.79210  Biso   1.000  H
  H24      1.0000 0.11250  0.80750  0.70790  Biso   1.000  H
  C21      1.0000 0.28790  0.56520  0.24440  Biso   1.000  C
  C22      1.0000 0.71210  0.06520  0.25560  Biso   1.000  C
  C23      1.0000 0.71210  0.43480  0.75560  Biso   1.000  C
  C24      1.0000 0.28790  0.93480  0.74440  Biso   1.000  C
  H25      1.0000 0.24860  0.43900  0.25080  Biso   1.000  H
  H26      1.0000 0.75140  0.93900  0.24920  Biso   1.000  H
  H27      1.0000 0.75140  0.56100  0.74920  Biso   1.000  H
  H28      1.0000 0.24860  0.06100  0.75080  Biso   1.000  H
  H29      1.0000 0.35990  0.54190  0.21890  Biso   1.000  H
  H30      1.0000 0.64010  0.04190  0.28110  Biso   1.000  H
  H31      1.0000 0.64010  0.45810  0.78110  Biso   1.000  H
  H32      1.0000 0.35990  0.95810  0.71890  Biso   1.000  H
  C25      1.0000 0.42730  0.51760  0.37840  Biso   1.000  C
  C26      1.0000 0.57270  0.01760  0.12160  Biso   1.000  C
  C27      1.0000 0.57270  0.48240  0.62160  Biso   1.000  C
  C28      1.0000 0.42730  0.98240  0.87840  Biso   1.000  C
  H33      1.0000 0.49160  0.59230  0.41860  Biso   1.000  H
  H34      1.0000 0.50840  0.09230  0.08140  Biso   1.000  H
  H35      1.0000 0.50840  0.40770  0.58140  Biso   1.000  H
  H36      1.0000 0.49160  0.90770  0.91860  Biso   1.000  H
  H37      1.0000 0.47210  0.44370  0.34330  Biso   1.000  H
  H38      1.0000 0.52790  0.94370  0.15670  Biso   1.000  H
  H39      1.0000 0.52790  0.55630  0.65670  Biso   1.000  H
  H40      1.0000 0.47210  0.05630  0.84330  Biso   1.000  H
  C29      1.0000 0.36120  0.37820  0.42430  Biso   1.000  C
  C30      1.0000 0.63880  0.87820  0.07570  Biso   1.000  C
  C31      1.0000 0.63880  0.62180  0.57570  Biso   1.000  C
  C32      1.0000 0.36120  0.12180  0.92430  Biso   1.000  C
  O21      1.0000 0.14840  0.94570  0.34820  Biso   1.000  O
  O22      1.0000 0.85160  0.44570  0.15180  Biso   1.000  O
  O23      1.0000 0.85160  0.05430  0.65180  Biso   1.000  O
  O24      1.0000 0.14840  0.55430  0.84820  Biso   1.000  O
  O25      1.0000 0.32140  0.83880  0.50520  Biso   1.000  O
  O26      1.0000 0.67860  0.33880  0.99480  Biso   1.000  O
  O27      1.0000 0.67860  0.16120  0.49480  Biso   1.000  O
  O28      1.0000 0.32140  0.66120  0.00520  Biso   1.000  O
  H41      1.0000 0.12300  0.01000  0.38430  Biso   1.000  H
  H42      1.0000 0.87700  0.51000  0.11570  Biso   1.000  H
  H43      1.0000 0.87700  0.99000  0.61570  Biso   1.000  H
  H44      1.0000 0.12300  0.49000  0.88430  Biso   1.000  H
  H45      1.0000 0.10900  0.98100  0.30030  Biso   1.000  H
  H46      1.0000 0.89100  0.48100  0.19970  Biso   1.000  H
  H47      1.0000 0.89100  0.01900  0.69970  Biso   1.000  H
  H48      1.0000 0.10900  0.51900  0.80030  Biso   1.000  H
  H49      1.0000 0.39890  0.81300  0.52800  Biso   1.000  H
  H50      1.0000 0.60110  0.31300  0.97200  Biso   1.000  H
  H51      1.0000 0.60110  0.18700  0.47200  Biso   1.000  H
  H52      1.0000 0.39890  0.68700  0.02800  Biso   1.000  H
  H53      1.0000 0.31100  0.96050  0.50500  Biso   1.000  H
  H54      1.0000 0.68900  0.46050  0.99500  Biso   1.000  H
  H55      1.0000 0.68900  0.03950  0.49500  Biso   1.000  H
  H56      1.0000 0.31100  0.53950  0.00500  Biso   1.000  H
  O29      1.0000 0.09750  0.15080  0.47040  Biso   1.000  O
  O30      1.0000 0.90250  0.65080  0.02960  Biso   1.000  O
  O31      1.0000 0.90250  0.84920  0.52960  Biso   1.000  O
  O32      1.0000 0.09750  0.34920  0.97040  Biso   1.000  O
  H57      1.0000 0.04700  0.18400  0.48900  Biso   1.000  H
  H58      1.0000 0.95300  0.68400  0.01100  Biso   1.000  H
  H59      1.0000 0.95300  0.81600  0.51100  Biso   1.000  H
  H60      1.0000 0.04700  0.31600  0.98900  Biso   1.000  H
  H61      1.0000 0.14500  0.23300  0.47000  Biso   1.000  H
  H62      1.0000 0.85500  0.73300  0.03000  Biso   1.000  H
  H63      1.0000 0.85500  0.76700  0.53000  Biso   1.000  H
  H64      1.0000 0.14500  0.26700  0.97000  Biso   1.000  H
