data_image0
_cell_length_a       14.268
_cell_length_b       12.075
_cell_length_c       8.6226
_cell_angle_alpha    90
_cell_angle_beta     121.64
_cell_angle_gamma    90

_symmetry_space_group_name_H-M    "P 1"
_symmetry_int_tables_number       1

loop_
  _symmetry_equiv_pos_as_xyz
  'x, y, z'

loop_
  _atom_site_label
  _atom_site_occupancy
  _atom_site_fract_x
  _atom_site_fract_y
  _atom_site_fract_z
  _atom_site_thermal_displace_type
  _atom_site_B_iso_or_equiv
  _atom_site_type_symbol
  Sm1      1.0000 0.75408  0.00000  0.23720  Biso   1.000  Sm
  Sm2      1.0000 0.25408  0.50000  0.23720  Biso   1.000  Sm
  Cu1      1.0000 0.44642  0.19590  0.26004  Biso   1.000  Cu
  Cu2      1.0000 0.44642  0.80410  0.26004  Biso   1.000  Cu
  Cu3      1.0000 0.94642  0.69590  0.26004  Biso   1.000  Cu
  Cu4      1.0000 0.94642  0.30410  0.26004  Biso   1.000  Cu
  K1       1.0000 0.58590  0.50000  0.40380  Biso   1.000  K
  K2       1.0000 0.08590  0.00000  0.40380  Biso   1.000  K
  O1       1.0000 0.69090  0.11530  0.38810  Biso   1.000  O
  O2       1.0000 0.69090  0.88470  0.38810  Biso   1.000  O
  O3       1.0000 0.19090  0.61530  0.38810  Biso   1.000  O
  O4       1.0000 0.19090  0.38470  0.38810  Biso   1.000  O
  O5       1.0000 0.59830  0.24420  0.43640  Biso   1.000  O
  O6       1.0000 0.59830  0.75580  0.43640  Biso   1.000  O
  O7       1.0000 0.09830  0.74420  0.43640  Biso   1.000  O
  O8       1.0000 0.09830  0.25580  0.43640  Biso   1.000  O
  O9       1.0000 0.21090  0.32540  0.07400  Biso   1.000  O
  O10      1.0000 0.21090  0.67460  0.07400  Biso   1.000  O
  O11      1.0000 0.71090  0.82540  0.07400  Biso   1.000  O
  O12      1.0000 0.71090  0.17460  0.07400  Biso   1.000  O
  O13      1.0000 0.96960  0.31900  0.06060  Biso   1.000  O
  O14      1.0000 0.96960  0.68100  0.06060  Biso   1.000  O
  O15      1.0000 0.46960  0.81900  0.06060  Biso   1.000  O
  O16      1.0000 0.46960  0.18100  0.06060  Biso   1.000  O
  O17      1.0000 0.83490  0.00000  0.05180  Biso   1.000  O
  O18      1.0000 0.33490  0.50000  0.05180  Biso   1.000  O
  O19      1.0000 0.29070  0.16800  0.08120  Biso   1.000  O
  O20      1.0000 0.29070  0.83200  0.08120  Biso   1.000  O
  O21      1.0000 0.79070  0.66800  0.08120  Biso   1.000  O
  O22      1.0000 0.79070  0.33200  0.08120  Biso   1.000  O
  O23      1.0000 0.75750  0.50000  0.35600  Biso   1.000  O
  O24      1.0000 0.25750  0.00000  0.35600  Biso   1.000  O
  O25      1.0000 0.55790  0.00000  0.01540  Biso   1.000  O
  O26      1.0000 0.05790  0.50000  0.01540  Biso   1.000  O
  H1       1.0000 0.53430  0.00000  0.90220  Biso   1.000  H
  H2       1.0000 0.03430  0.50000  0.90220  Biso   1.000  H
  H3       1.0000 0.51260  0.00000  0.05140  Biso   1.000  H
  H4       1.0000 0.01260  0.50000  0.05140  Biso   1.000  H
  O27      1.0000 0.91160  0.11490  0.42220  Biso   1.000  O
  O28      1.0000 0.91160  0.88510  0.42220  Biso   1.000  O
  O29      1.0000 0.41160  0.61490  0.42220  Biso   1.000  O
  O30      1.0000 0.41160  0.38510  0.42220  Biso   1.000  O
  O31      1.0000 0.97970  0.13710  0.05670  Biso   1.000  O
  O32      1.0000 0.97970  0.86290  0.05670  Biso   1.000  O
  O33      1.0000 0.47970  0.63710  0.05670  Biso   1.000  O
  O34      1.0000 0.47970  0.36290  0.05670  Biso   1.000  O
  O35      1.0000 0.48910  0.00000  0.33610  Biso   1.000  O
  O36      1.0000 0.98910  0.50000  0.33610  Biso   1.000  O
  H5       1.0000 0.55450  0.00000  0.35780  Biso   1.000  H
  H6       1.0000 0.05450  0.50000  0.35780  Biso   1.000  H
  H7       1.0000 0.44370  0.00000  0.22170  Biso   1.000  H
  H8       1.0000 0.94370  0.50000  0.22170  Biso   1.000  H
  O37      1.0000 0.91810  0.29750  0.45560  Biso   1.000  O
  O38      1.0000 0.91810  0.70250  0.45560  Biso   1.000  O
  O39      1.0000 0.41810  0.79750  0.45560  Biso   1.000  O
  O40      1.0000 0.41810  0.20250  0.45560  Biso   1.000  O
  O41      1.0000 0.76130  0.50000  0.79750  Biso   1.000  O
  O42      1.0000 0.26130  0.00000  0.79750  Biso   1.000  O
  H9       1.0000 0.80300  0.55470  0.85320  Biso   1.000  H
  H10      1.0000 0.80300  0.44530  0.85320  Biso   1.000  H
  H11      1.0000 0.30300  0.05470  0.85320  Biso   1.000  H
  H12      1.0000 0.30300  0.94530  0.85320  Biso   1.000  H
  C1       1.0000 0.10220  0.18130  0.87560  Biso   1.000  C
  C2       1.0000 0.10220  0.81870  0.87560  Biso   1.000  C
  C3       1.0000 0.60220  0.68130  0.87560  Biso   1.000  C
  C4       1.0000 0.60220  0.31870  0.87560  Biso   1.000  C
  H13      1.0000 0.10450  0.17820  0.76530  Biso   1.000  H
  H14      1.0000 0.10450  0.82180  0.76530  Biso   1.000  H
  H15      1.0000 0.60450  0.67820  0.76530  Biso   1.000  H
  H16      1.0000 0.60450  0.32180  0.76530  Biso   1.000  H
  H17      1.0000 0.09870  0.10560  0.90990  Biso   1.000  H
  H18      1.0000 0.09870  0.89440  0.90990  Biso   1.000  H
  H19      1.0000 0.59870  0.60560  0.90990  Biso   1.000  H
  H20      1.0000 0.59870  0.39440  0.90990  Biso   1.000  H
  C5       1.0000 0.79100  0.24560  0.62450  Biso   1.000  C
  C6       1.0000 0.79100  0.75440  0.62450  Biso   1.000  C
  C7       1.0000 0.29100  0.74560  0.62450  Biso   1.000  C
  C8       1.0000 0.29100  0.25440  0.62450  Biso   1.000  C
  H21      1.0000 0.78770  0.24190  0.73390  Biso   1.000  H
  H22      1.0000 0.78770  0.75810  0.73390  Biso   1.000  H
  H23      1.0000 0.28770  0.74190  0.73390  Biso   1.000  H
  H24      1.0000 0.28770  0.25810  0.73390  Biso   1.000  H
  H25      1.0000 0.79360  0.32320  0.59780  Biso   1.000  H
  H26      1.0000 0.79360  0.67680  0.59780  Biso   1.000  H
  H27      1.0000 0.29360  0.82320  0.59780  Biso   1.000  H
  H28      1.0000 0.29360  0.17680  0.59780  Biso   1.000  H
  C9       1.0000 0.20830  0.23110  0.02330  Biso   1.000  C
  C10      1.0000 0.20830  0.76890  0.02330  Biso   1.000  C
  C11      1.0000 0.70830  0.73110  0.02330  Biso   1.000  C
  C12      1.0000 0.70830  0.26890  0.02330  Biso   1.000  C
  C13      1.0000 0.99780  0.23870  0.83150  Biso   1.000  C
  C14      1.0000 0.99780  0.76130  0.83150  Biso   1.000  C
  C15      1.0000 0.49780  0.73870  0.83150  Biso   1.000  C
  C16      1.0000 0.49780  0.26130  0.83150  Biso   1.000  C
  H29      1.0000 0.00360  0.31730  0.80940  Biso   1.000  H
  H30      1.0000 0.00360  0.68270  0.80940  Biso   1.000  H
  H31      1.0000 0.50360  0.81730  0.80940  Biso   1.000  H
  H32      1.0000 0.50360  0.18270  0.80940  Biso   1.000  H
  C17      1.0000 0.98340  0.22810  0.99860  Biso   1.000  C
  C18      1.0000 0.98340  0.77190  0.99860  Biso   1.000  C
  C19      1.0000 0.48340  0.72810  0.99860  Biso   1.000  C
  C20      1.0000 0.48340  0.27190  0.99860  Biso   1.000  C
  C21      1.0000 0.68940  0.19630  0.47220  Biso   1.000  C
  C22      1.0000 0.68940  0.80370  0.47220  Biso   1.000  C
  C23      1.0000 0.18940  0.69630  0.47220  Biso   1.000  C
  C24      1.0000 0.18940  0.30370  0.47220  Biso   1.000  C
  C25      1.0000 0.89770  0.18960  0.66280  Biso   1.000  C
  C26      1.0000 0.89770  0.81040  0.66280  Biso   1.000  C
  C27      1.0000 0.39770  0.68960  0.66280  Biso   1.000  C
  C28      1.0000 0.39770  0.31040  0.66280  Biso   1.000  C
  H33      1.0000 0.89350  0.11070  0.68530  Biso   1.000  H
  H34      1.0000 0.89350  0.88930  0.68530  Biso   1.000  H
  H35      1.0000 0.39350  0.61070  0.68530  Biso   1.000  H
  H36      1.0000 0.39350  0.38930  0.68530  Biso   1.000  H
  C29      1.0000 0.90910  0.19950  0.50600  Biso   1.000  C
  C30      1.0000 0.90910  0.80050  0.50600  Biso   1.000  C
  C31      1.0000 0.40910  0.69950  0.50600  Biso   1.000  C
  C32      1.0000 0.40910  0.30050  0.50600  Biso   1.000  C
  O43      1.0000 0.60370  0.00000  0.70000  Biso   1.000  O
  O44      1.0000 0.10370  0.50000  0.70000  Biso   1.000  O
  H37      1.0000 0.67340  0.00000  0.75150  Biso   1.000  H
  H38      1.0000 0.17340  0.50000  0.75150  Biso   1.000  H
  H39      1.0000 0.57450  0.00000  0.58470  Biso   1.000  H
  H40      1.0000 0.07450  0.50000  0.58470  Biso   1.000  H
