data_image0
_cell_length_a       9.7603
_cell_length_b       12.0653
_cell_length_c       19.9097
_cell_angle_alpha    90
_cell_angle_beta     91.72
_cell_angle_gamma    90

_symmetry_space_group_name_H-M    "P 1"
_symmetry_int_tables_number       1

loop_
  _symmetry_equiv_pos_as_xyz
  'x, y, z'

loop_
  _atom_site_label
  _atom_site_occupancy
  _atom_site_fract_x
  _atom_site_fract_y
  _atom_site_fract_z
  _atom_site_thermal_displace_type
  _atom_site_B_iso_or_equiv
  _atom_site_type_symbol
  Cu1      1.0000 0.33272  0.37582  0.18573  Biso   1.000  Cu
  Cu2      1.0000 0.66728  0.87582  0.31427  Biso   1.000  Cu
  Cu3      1.0000 0.66728  0.62418  0.81427  Biso   1.000  Cu
  Cu4      1.0000 0.33272  0.12418  0.68573  Biso   1.000  Cu
  O1       1.0000 0.20550  0.46890  0.23557  Biso   1.000  O
  O2       1.0000 0.79450  0.96890  0.26443  Biso   1.000  O
  O3       1.0000 0.79450  0.53110  0.76443  Biso   1.000  O
  O4       1.0000 0.20550  0.03110  0.73557  Biso   1.000  O
  C1       1.0000 0.15090  0.45140  0.29550  Biso   1.000  C
  C2       1.0000 0.84910  0.95140  0.20450  Biso   1.000  C
  C3       1.0000 0.84910  0.54860  0.70450  Biso   1.000  C
  C4       1.0000 0.15090  0.04860  0.79550  Biso   1.000  C
  C5       1.0000 0.07470  0.53400  0.32650  Biso   1.000  C
  C6       1.0000 0.92530  0.03400  0.17350  Biso   1.000  C
  C7       1.0000 0.92530  0.46600  0.67350  Biso   1.000  C
  C8       1.0000 0.07470  0.96600  0.82650  Biso   1.000  C
  H1       1.0000 0.06310  0.60430  0.30550  Biso   1.000  H
  H2       1.0000 0.93690  0.10430  0.19450  Biso   1.000  H
  H3       1.0000 0.93690  0.39570  0.69450  Biso   1.000  H
  H4       1.0000 0.06310  0.89570  0.80550  Biso   1.000  H
  C9       1.0000 0.01660  0.51340  0.38720  Biso   1.000  C
  C10      1.0000 0.98340  0.01340  0.11280  Biso   1.000  C
  C11      1.0000 0.98340  0.48660  0.61280  Biso   1.000  C
  C12      1.0000 0.01660  0.98660  0.88720  Biso   1.000  C
  H5       1.0000 0.96490  0.56980  0.40800  Biso   1.000  H
  H6       1.0000 0.03510  0.06980  0.09200  Biso   1.000  H
  H7       1.0000 0.03510  0.43020  0.59200  Biso   1.000  H
  H8       1.0000 0.96490  0.93020  0.90800  Biso   1.000  H
  C13      1.0000 0.03250  0.41040  0.41890  Biso   1.000  C
  C14      1.0000 0.96750  0.91040  0.08110  Biso   1.000  C
  C15      1.0000 0.96750  0.58960  0.58110  Biso   1.000  C
  C16      1.0000 0.03250  0.08960  0.91890  Biso   1.000  C
  H9       1.0000 0.99110  0.39660  0.46060  Biso   1.000  H
  H10      1.0000 0.00890  0.89660  0.03940  Biso   1.000  H
  H11      1.0000 0.00890  0.60340  0.53940  Biso   1.000  H
  H12      1.0000 0.99110  0.10340  0.96060  Biso   1.000  H
  C17      1.0000 0.10730  0.33080  0.38940  Biso   1.000  C
  C18      1.0000 0.89270  0.83080  0.11060  Biso   1.000  C
  C19      1.0000 0.89270  0.66920  0.61060  Biso   1.000  C
  C20      1.0000 0.10730  0.16920  0.88940  Biso   1.000  C
  H13      1.0000 0.11810  0.26110  0.41120  Biso   1.000  H
  H14      1.0000 0.88190  0.76110  0.08880  Biso   1.000  H
  H15      1.0000 0.88190  0.73890  0.58880  Biso   1.000  H
  H16      1.0000 0.11810  0.23890  0.91120  Biso   1.000  H
  C21      1.0000 0.16890  0.34780  0.32840  Biso   1.000  C
  C22      1.0000 0.83110  0.84780  0.17160  Biso   1.000  C
  C23      1.0000 0.83110  0.65220  0.67160  Biso   1.000  C
  C24      1.0000 0.16890  0.15220  0.82840  Biso   1.000  C
  C25      1.0000 0.24750  0.25620  0.30160  Biso   1.000  C
  C26      1.0000 0.75250  0.75620  0.19840  Biso   1.000  C
  C27      1.0000 0.75250  0.74380  0.69840  Biso   1.000  C
  C28      1.0000 0.24750  0.24380  0.80160  Biso   1.000  C
  H17      1.0000 0.24670  0.18980  0.32730  Biso   1.000  H
  H18      1.0000 0.75330  0.68980  0.17270  Biso   1.000  H
  H19      1.0000 0.75330  0.81020  0.67270  Biso   1.000  H
  H20      1.0000 0.24670  0.31020  0.82730  Biso   1.000  H
  N1       1.0000 0.31720  0.25260  0.24870  Biso   1.000  N
  N2       1.0000 0.68280  0.75260  0.25130  Biso   1.000  N
  N3       1.0000 0.68280  0.74740  0.75130  Biso   1.000  N
  N4       1.0000 0.31720  0.24740  0.74870  Biso   1.000  N
  C29      1.0000 0.38580  0.14620  0.23540  Biso   1.000  C
  C30      1.0000 0.61420  0.64620  0.26460  Biso   1.000  C
  C31      1.0000 0.61420  0.85380  0.76460  Biso   1.000  C
  C32      1.0000 0.38580  0.35380  0.73540  Biso   1.000  C
  H21      1.0000 0.38580  0.09900  0.27670  Biso   1.000  H
  H22      1.0000 0.61420  0.59900  0.22330  Biso   1.000  H
  H23      1.0000 0.61420  0.90100  0.72330  Biso   1.000  H
  H24      1.0000 0.38580  0.40100  0.77670  Biso   1.000  H
  C33      1.0000 0.53160  0.16590  0.21460  Biso   1.000  C
  C34      1.0000 0.46840  0.66590  0.28540  Biso   1.000  C
  C35      1.0000 0.46840  0.83410  0.78540  Biso   1.000  C
  C36      1.0000 0.53160  0.33410  0.71460  Biso   1.000  C
  H25      1.0000 0.57570  0.21780  0.24710  Biso   1.000  H
  H26      1.0000 0.42430  0.71780  0.25290  Biso   1.000  H
  H27      1.0000 0.42430  0.78220  0.75290  Biso   1.000  H
  H28      1.0000 0.57570  0.28220  0.74710  Biso   1.000  H
  H29      1.0000 0.58190  0.09470  0.21800  Biso   1.000  H
  H30      1.0000 0.41810  0.59470  0.28200  Biso   1.000  H
  H31      1.0000 0.41810  0.90530  0.78200  Biso   1.000  H
  H32      1.0000 0.58190  0.40530  0.71800  Biso   1.000  H
  C37      1.0000 0.54780  0.21180  0.14480  Biso   1.000  C
  C38      1.0000 0.45220  0.71180  0.35520  Biso   1.000  C
  C39      1.0000 0.45220  0.78820  0.85520  Biso   1.000  C
  C40      1.0000 0.54780  0.28820  0.64480  Biso   1.000  C
  H33      1.0000 0.64550  0.20780  0.13310  Biso   1.000  H
  H34      1.0000 0.35450  0.70780  0.36690  Biso   1.000  H
  H35      1.0000 0.35450  0.79220  0.86690  Biso   1.000  H
  H36      1.0000 0.64550  0.29220  0.63310  Biso   1.000  H
  H37      1.0000 0.49470  0.16550  0.11230  Biso   1.000  H
  H38      1.0000 0.50530  0.66550  0.38770  Biso   1.000  H
  H39      1.0000 0.50530  0.83450  0.88770  Biso   1.000  H
  H40      1.0000 0.49470  0.33450  0.61230  Biso   1.000  H
  N5       1.0000 0.50020  0.32900  0.13910  Biso   1.000  N
  N6       1.0000 0.49980  0.82900  0.36090  Biso   1.000  N
  N7       1.0000 0.49980  0.67100  0.86090  Biso   1.000  N
  N8       1.0000 0.50020  0.17100  0.63910  Biso   1.000  N
  C41      1.0000 0.57300  0.39420  0.10310  Biso   1.000  C
  C42      1.0000 0.42700  0.89420  0.39690  Biso   1.000  C
  C43      1.0000 0.42700  0.60580  0.89690  Biso   1.000  C
  C44      1.0000 0.57300  0.10580  0.60310  Biso   1.000  C
  H41      1.0000 0.65340  0.36270  0.08530  Biso   1.000  H
  H42      1.0000 0.34660  0.86270  0.41470  Biso   1.000  H
  H43      1.0000 0.34660  0.63730  0.91470  Biso   1.000  H
  H44      1.0000 0.65340  0.13730  0.58530  Biso   1.000  H
  C45      1.0000 0.54770  0.50840  0.08660  Biso   1.000  C
  C46      1.0000 0.45230  0.00840  0.41340  Biso   1.000  C
  C47      1.0000 0.45230  0.49160  0.91340  Biso   1.000  C
  C48      1.0000 0.54770  0.99160  0.58660  Biso   1.000  C
  C49      1.0000 0.64740  0.56280  0.04860  Biso   1.000  C
  C50      1.0000 0.35260  0.06280  0.45140  Biso   1.000  C
  C51      1.0000 0.35260  0.43720  0.95140  Biso   1.000  C
  C52      1.0000 0.64740  0.93720  0.54860  Biso   1.000  C
  H45      1.0000 0.72660  0.52330  0.03580  Biso   1.000  H
  H46      1.0000 0.27340  0.02330  0.46420  Biso   1.000  H
  H47      1.0000 0.27340  0.47670  0.96420  Biso   1.000  H
  H48      1.0000 0.72660  0.97670  0.53580  Biso   1.000  H
  C53      1.0000 0.63220  0.67040  0.03000  Biso   1.000  C
  C54      1.0000 0.36780  0.17040  0.47000  Biso   1.000  C
  C55      1.0000 0.36780  0.32960  0.97000  Biso   1.000  C
  C56      1.0000 0.63220  0.82960  0.53000  Biso   1.000  C
  H49      1.0000 0.69960  0.70540  0.00380  Biso   1.000  H
  H50      1.0000 0.30040  0.20540  0.49620  Biso   1.000  H
  H51      1.0000 0.30040  0.29460  0.99620  Biso   1.000  H
  H52      1.0000 0.69960  0.79460  0.50380  Biso   1.000  H
  C57      1.0000 0.51750  0.72900  0.04930  Biso   1.000  C
  C58      1.0000 0.48250  0.22900  0.45070  Biso   1.000  C
  C59      1.0000 0.48250  0.27100  0.95070  Biso   1.000  C
  C60      1.0000 0.51750  0.77100  0.54930  Biso   1.000  C
  H53      1.0000 0.50790  0.80490  0.03750  Biso   1.000  H
  H54      1.0000 0.49210  0.30490  0.46250  Biso   1.000  H
  H55      1.0000 0.49210  0.19510  0.96250  Biso   1.000  H
  H56      1.0000 0.50790  0.69510  0.53750  Biso   1.000  H
  C61      1.0000 0.41690  0.67710  0.08580  Biso   1.000  C
  C62      1.0000 0.58310  0.17710  0.41420  Biso   1.000  C
  C63      1.0000 0.58310  0.32290  0.91420  Biso   1.000  C
  C64      1.0000 0.41690  0.82290  0.58580  Biso   1.000  C
  H57      1.0000 0.33850  0.71800  0.09840  Biso   1.000  H
  H58      1.0000 0.66150  0.21800  0.40160  Biso   1.000  H
  H59      1.0000 0.66150  0.28200  0.90160  Biso   1.000  H
  H60      1.0000 0.33850  0.78200  0.59840  Biso   1.000  H
  C65      1.0000 0.42880  0.56570  0.10450  Biso   1.000  C
  C66      1.0000 0.57120  0.06570  0.39550  Biso   1.000  C
  C67      1.0000 0.57120  0.43430  0.89550  Biso   1.000  C
  C68      1.0000 0.42880  0.93430  0.60450  Biso   1.000  C
  O5       1.0000 0.33050  0.51690  0.13808  Biso   1.000  O
  O6       1.0000 0.66950  0.01690  0.36192  Biso   1.000  O
  O7       1.0000 0.66950  0.48310  0.86192  Biso   1.000  O
  O8       1.0000 0.33050  0.98310  0.63808  Biso   1.000  O
  C69      1.0000 0.31210  0.08340  0.17580  Biso   1.000  C
  C70      1.0000 0.68790  0.58340  0.32420  Biso   1.000  C
  C71      1.0000 0.68790  0.91660  0.82420  Biso   1.000  C
  C72      1.0000 0.31210  0.41660  0.67580  Biso   1.000  C
  H61      1.0000 0.21570  0.06940  0.18750  Biso   1.000  H
  H62      1.0000 0.78430  0.56940  0.31250  Biso   1.000  H
  H63      1.0000 0.78430  0.93060  0.81250  Biso   1.000  H
  H64      1.0000 0.21570  0.43060  0.68750  Biso   1.000  H
  H65      1.0000 0.31110  0.13160  0.13560  Biso   1.000  H
  H66      1.0000 0.68890  0.63160  0.36440  Biso   1.000  H
  H67      1.0000 0.68890  0.86840  0.86440  Biso   1.000  H
  H68      1.0000 0.31110  0.36840  0.63560  Biso   1.000  H
  C73      1.0000 0.38080  0.97120  0.15830  Biso   1.000  C
  C74      1.0000 0.61920  0.47120  0.34170  Biso   1.000  C
  C75      1.0000 0.61920  0.02880  0.84170  Biso   1.000  C
  C76      1.0000 0.38080  0.52880  0.65830  Biso   1.000  C
  H69      1.0000 0.45430  0.98420  0.12670  Biso   1.000  H
  H70      1.0000 0.54570  0.48420  0.37330  Biso   1.000  H
  H71      1.0000 0.54570  0.01580  0.87330  Biso   1.000  H
  H72      1.0000 0.45430  0.51580  0.62670  Biso   1.000  H
  H73      1.0000 0.31220  0.92140  0.13770  Biso   1.000  H
  H74      1.0000 0.68780  0.42140  0.36230  Biso   1.000  H
  H75      1.0000 0.68780  0.07860  0.86230  Biso   1.000  H
  H76      1.0000 0.31220  0.57860  0.63770  Biso   1.000  H
  H77      1.0000 0.41930  0.93730  0.19940  Biso   1.000  H
  H78      1.0000 0.58070  0.43730  0.30060  Biso   1.000  H
  H79      1.0000 0.58070  0.06270  0.80060  Biso   1.000  H
  H80      1.0000 0.41930  0.56270  0.69940  Biso   1.000  H
  Cu5      1.0000 0.13913  0.56188  0.15844  Biso   1.000  Cu
  Cu6      1.0000 0.86087  0.06188  0.34156  Biso   1.000  Cu
  Cu7      1.0000 0.86087  0.43812  0.84156  Biso   1.000  Cu
  Cu8      1.0000 0.13913  0.93812  0.65844  Biso   1.000  Cu
  N9       1.0000 0.90230  0.39720  0.93516  Biso   1.000  N
  N10      1.0000 0.09770  0.89720  0.56484  Biso   1.000  N
  N11      1.0000 0.09770  0.60280  0.06484  Biso   1.000  N
  N12      1.0000 0.90230  0.10280  0.43516  Biso   1.000  N
  N13      1.0000 0.93770  0.31530  0.04656  Biso   1.000  N
  N14      1.0000 0.06230  0.81530  0.45344  Biso   1.000  N
  N15      1.0000 0.06230  0.68470  0.95344  Biso   1.000  N
  N16      1.0000 0.93770  0.18470  0.54656  Biso   1.000  N
  N17      1.0000 0.15270  0.31400  0.11450  Biso   1.000  N
  N18      1.0000 0.84730  0.81400  0.38550  Biso   1.000  N
  N19      1.0000 0.84730  0.68600  0.88550  Biso   1.000  N
  N20      1.0000 0.15270  0.18600  0.61450  Biso   1.000  N
  N21      1.0000 0.94810  0.52110  0.17830  Biso   1.000  N
  N22      1.0000 0.05190  0.02110  0.32170  Biso   1.000  N
  N23      1.0000 0.05190  0.47890  0.82170  Biso   1.000  N
  N24      1.0000 0.94810  0.97890  0.67830  Biso   1.000  N
  N25      1.0000 0.79960  0.37410  0.21660  Biso   1.000  N
  N26      1.0000 0.20040  0.87410  0.28340  Biso   1.000  N
  N27      1.0000 0.20040  0.62590  0.78340  Biso   1.000  N
  N28      1.0000 0.79960  0.12590  0.71660  Biso   1.000  N
  N29      1.0000 0.84090  0.22410  0.29710  Biso   1.000  N
  N30      1.0000 0.15910  0.72410  0.20290  Biso   1.000  N
  N31      1.0000 0.15910  0.77590  0.70290  Biso   1.000  N
  N32      1.0000 0.84090  0.27590  0.79710  Biso   1.000  N
  C77      1.0000 0.92640  0.36050  0.98720  Biso   1.000  C
  C78      1.0000 0.07360  0.86050  0.51280  Biso   1.000  C
  C79      1.0000 0.07360  0.63950  0.01280  Biso   1.000  C
  C80      1.0000 0.92640  0.13950  0.48720  Biso   1.000  C
  C81      1.0000 0.05490  0.31780  0.08040  Biso   1.000  C
  C82      1.0000 0.94510  0.81780  0.41960  Biso   1.000  C
  C83      1.0000 0.94510  0.68220  0.91960  Biso   1.000  C
  C84      1.0000 0.05490  0.18220  0.58040  Biso   1.000  C
  C85      1.0000 0.88430  0.45070  0.19850  Biso   1.000  C
  C86      1.0000 0.11570  0.95070  0.30150  Biso   1.000  C
  C87      1.0000 0.11570  0.54930  0.80150  Biso   1.000  C
  C88      1.0000 0.88430  0.04930  0.69850  Biso   1.000  C
  C89      1.0000 0.82940  0.29730  0.26090  Biso   1.000  C
  C90      1.0000 0.17060  0.79730  0.23910  Biso   1.000  C
  C91      1.0000 0.17060  0.70270  0.73910  Biso   1.000  C
  C92      1.0000 0.82940  0.20270  0.76090  Biso   1.000  C
  C93      1.0000 0.43700  0.12520  0.10680  Biso   1.000  C
  C94      1.0000 0.56300  0.62520  0.39320  Biso   1.000  C
  C95      1.0000 0.56300  0.87480  0.89320  Biso   1.000  C
  C96      1.0000 0.43700  0.37480  0.60680  Biso   1.000  C
  C97      1.0000 0.46400  0.99740  0.11170  Biso   1.000  C
  C98      1.0000 0.53600  0.49740  0.38830  Biso   1.000  C
  C99      1.0000 0.53600  0.00260  0.88830  Biso   1.000  C
  C100     1.0000 0.46400  0.50260  0.61170  Biso   1.000  C
  H81      1.0000 0.33470  0.10600  0.19930  Biso   1.000  H
  H82      1.0000 0.66530  0.60600  0.30070  Biso   1.000  H
  H83      1.0000 0.66530  0.89400  0.80070  Biso   1.000  H
  H84      1.0000 0.33470  0.39400  0.69930  Biso   1.000  H
  H85      1.0000 0.64310  0.20200  0.12870  Biso   1.000  H
  H86      1.0000 0.35690  0.70200  0.37130  Biso   1.000  H
  H87      1.0000 0.35690  0.79800  0.87130  Biso   1.000  H
  H88      1.0000 0.64310  0.29800  0.62870  Biso   1.000  H
  H89      1.0000 0.34530  0.13960  0.12520  Biso   1.000  H
  H90      1.0000 0.65470  0.63960  0.37480  Biso   1.000  H
  H91      1.0000 0.65470  0.86040  0.87480  Biso   1.000  H
  H92      1.0000 0.34530  0.36040  0.62520  Biso   1.000  H
  H93      1.0000 0.43140  0.14510  0.05860  Biso   1.000  H
  H94      1.0000 0.56860  0.64510  0.44140  Biso   1.000  H
  H95      1.0000 0.56860  0.85490  0.94140  Biso   1.000  H
  H96      1.0000 0.43140  0.35490  0.55860  Biso   1.000  H
  H97      1.0000 0.55640  0.98120  0.09670  Biso   1.000  H
  H98      1.0000 0.44360  0.48120  0.40330  Biso   1.000  H
  H99      1.0000 0.44360  0.01880  0.90330  Biso   1.000  H
  H100     1.0000 0.55640  0.51880  0.59670  Biso   1.000  H
  H101     1.0000 0.39660  0.95790  0.08310  Biso   1.000  H
  H102     1.0000 0.60340  0.45790  0.41690  Biso   1.000  H
  H103     1.0000 0.60340  0.04210  0.91690  Biso   1.000  H
  H104     1.0000 0.39660  0.54210  0.58310  Biso   1.000  H
  H105     1.0000 0.45540  0.97320  0.15840  Biso   1.000  H
  H106     1.0000 0.54460  0.47320  0.34160  Biso   1.000  H
  H107     1.0000 0.54460  0.02680  0.84160  Biso   1.000  H
  H108     1.0000 0.45540  0.52680  0.65840  Biso   1.000  H
