data_image0
_cell_length_a       22.0331
_cell_length_b       6.2986
_cell_length_c       16.0202
_cell_angle_alpha    90
_cell_angle_beta     121.001
_cell_angle_gamma    90

_symmetry_space_group_name_H-M    "P 1"
_symmetry_int_tables_number       1

loop_
  _symmetry_equiv_pos_as_xyz
  'x, y, z'

loop_
  _atom_site_label
  _atom_site_occupancy
  _atom_site_fract_x
  _atom_site_fract_y
  _atom_site_fract_z
  _atom_site_thermal_displace_type
  _atom_site_B_iso_or_equiv
  _atom_site_type_symbol
  Cu1      1.0000 0.24849  0.22875  0.74470  Biso   1.000  Cu
  Cu2      1.0000 0.74849  0.72875  0.74470  Biso   1.000  Cu
  Cu3      1.0000 0.24849  0.77125  0.24470  Biso   1.000  Cu
  Cu4      1.0000 0.74849  0.27125  0.24470  Biso   1.000  Cu
  Cu5      1.0000 0.75151  0.77125  0.25530  Biso   1.000  Cu
  Cu6      1.0000 0.25151  0.27125  0.25530  Biso   1.000  Cu
  Cu7      1.0000 0.75151  0.22875  0.75530  Biso   1.000  Cu
  Cu8      1.0000 0.25151  0.72875  0.75530  Biso   1.000  Cu
  V1       1.0000 0.33503  0.98779  0.62939  Biso   1.000  V
  V2       1.0000 0.83503  0.48779  0.62939  Biso   1.000  V
  V3       1.0000 0.33503  0.01221  0.12939  Biso   1.000  V
  V4       1.0000 0.83503  0.51221  0.12939  Biso   1.000  V
  V5       1.0000 0.66497  0.01221  0.37061  Biso   1.000  V
  V6       1.0000 0.16497  0.51221  0.37061  Biso   1.000  V
  V7       1.0000 0.66497  0.98779  0.87061  Biso   1.000  V
  V8       1.0000 0.16497  0.48779  0.87061  Biso   1.000  V
  P1       1.0000 0.28300  0.49473  0.60491  Biso   1.000  P
  P2       1.0000 0.78300  0.99473  0.60491  Biso   1.000  P
  P3       1.0000 0.28300  0.50527  0.10491  Biso   1.000  P
  P4       1.0000 0.78300  0.00527  0.10491  Biso   1.000  P
  P5       1.0000 0.71700  0.50527  0.39509  Biso   1.000  P
  P6       1.0000 0.21700  0.00527  0.39509  Biso   1.000  P
  P7       1.0000 0.71700  0.49473  0.89509  Biso   1.000  P
  P8       1.0000 0.21700  0.99473  0.89509  Biso   1.000  P
  O1       1.0000 0.31349  0.28490  0.59753  Biso   1.000  O
  O2       1.0000 0.81349  0.78490  0.59753  Biso   1.000  O
  O3       1.0000 0.31349  0.71510  0.09753  Biso   1.000  O
  O4       1.0000 0.81349  0.21510  0.09753  Biso   1.000  O
  O5       1.0000 0.68651  0.71510  0.40247  Biso   1.000  O
  O6       1.0000 0.18651  0.21510  0.40247  Biso   1.000  O
  O7       1.0000 0.68651  0.28490  0.90247  Biso   1.000  O
  O8       1.0000 0.18651  0.78490  0.90247  Biso   1.000  O
  O9       1.0000 0.34124  0.66380  0.63376  Biso   1.000  O
  O10      1.0000 0.84124  0.16380  0.63376  Biso   1.000  O
  O11      1.0000 0.34124  0.33620  0.13376  Biso   1.000  O
  O12      1.0000 0.84124  0.83620  0.13376  Biso   1.000  O
  O13      1.0000 0.65876  0.33620  0.36624  Biso   1.000  O
  O14      1.0000 0.15876  0.83620  0.36624  Biso   1.000  O
  O15      1.0000 0.65876  0.66380  0.86624  Biso   1.000  O
  O16      1.0000 0.15876  0.16380  0.86624  Biso   1.000  O
  O17      1.0000 0.33374  0.29630  0.86769  Biso   1.000  O
  O18      1.0000 0.83374  0.79630  0.86769  Biso   1.000  O
  O19      1.0000 0.33374  0.70370  0.36769  Biso   1.000  O
  O20      1.0000 0.83374  0.20370  0.36769  Biso   1.000  O
  O21      1.0000 0.66626  0.70370  0.13231  Biso   1.000  O
  O22      1.0000 0.16626  0.20370  0.13231  Biso   1.000  O
  O23      1.0000 0.66626  0.29630  0.63231  Biso   1.000  O
  O24      1.0000 0.16626  0.79630  0.63231  Biso   1.000  O
  O25      1.0000 0.26677  0.48360  0.68844  Biso   1.000  O
  O26      1.0000 0.76677  0.98360  0.68844  Biso   1.000  O
  O27      1.0000 0.26677  0.51640  0.18844  Biso   1.000  O
  O28      1.0000 0.76677  0.01640  0.18844  Biso   1.000  O
  O29      1.0000 0.73323  0.51640  0.31156  Biso   1.000  O
  O30      1.0000 0.23323  0.01640  0.31156  Biso   1.000  O
  O31      1.0000 0.73323  0.48360  0.81156  Biso   1.000  O
  O32      1.0000 0.23323  0.98360  0.81156  Biso   1.000  O
  O33      1.0000 0.21662  0.55690  0.51017  Biso   1.000  O
  O34      1.0000 0.71662  0.05690  0.51017  Biso   1.000  O
  O35      1.0000 0.21662  0.44310  0.01017  Biso   1.000  O
  O36      1.0000 0.71662  0.94310  0.01017  Biso   1.000  O
  O37      1.0000 0.78338  0.44310  0.48983  Biso   1.000  O
  O38      1.0000 0.28338  0.94310  0.48983  Biso   1.000  O
  O39      1.0000 0.78338  0.55690  0.98983  Biso   1.000  O
  O40      1.0000 0.28338  0.05690  0.98983  Biso   1.000  O
  O41      1.0000 0.33533  0.65350  0.88122  Biso   1.000  O
  O42      1.0000 0.83533  0.15350  0.88122  Biso   1.000  O
  O43      1.0000 0.33533  0.34650  0.38122  Biso   1.000  O
  O44      1.0000 0.83533  0.84650  0.38122  Biso   1.000  O
  O45      1.0000 0.66467  0.34650  0.11878  Biso   1.000  O
  O46      1.0000 0.16467  0.84650  0.11878  Biso   1.000  O
  O47      1.0000 0.66467  0.65350  0.61878  Biso   1.000  O
  O48      1.0000 0.16467  0.15350  0.61878  Biso   1.000  O
  O49      1.0000 0.31399  0.98360  0.71464  Biso   1.000  O
  O50      1.0000 0.81399  0.48360  0.71464  Biso   1.000  O
  O51      1.0000 0.31399  0.01640  0.21464  Biso   1.000  O
  O52      1.0000 0.81399  0.51640  0.21464  Biso   1.000  O
  O53      1.0000 0.68601  0.01640  0.28536  Biso   1.000  O
  O54      1.0000 0.18601  0.51640  0.28536  Biso   1.000  O
  O55      1.0000 0.68601  0.98360  0.78536  Biso   1.000  O
  O56      1.0000 0.18601  0.48360  0.78536  Biso   1.000  O
  O57      1.0000 0.42035  0.00900  0.68171  Biso   1.000  O
  O58      1.0000 0.92035  0.50900  0.68171  Biso   1.000  O
  O59      1.0000 0.42035  0.99100  0.18171  Biso   1.000  O
  O60      1.0000 0.92035  0.49100  0.18171  Biso   1.000  O
  O61      1.0000 0.57965  0.99100  0.31829  Biso   1.000  O
  O62      1.0000 0.07965  0.49100  0.31829  Biso   1.000  O
  O63      1.0000 0.57965  0.00900  0.81829  Biso   1.000  O
  O64      1.0000 0.07965  0.50900  0.81829  Biso   1.000  O
  N1       1.0000 0.54470  0.40310  0.18698  Biso   1.000  N
  N2       1.0000 0.04470  0.90310  0.18698  Biso   1.000  N
  N3       1.0000 0.54470  0.59690  0.68698  Biso   1.000  N
  N4       1.0000 0.04470  0.09690  0.68698  Biso   1.000  N
  N5       1.0000 0.45530  0.59690  0.81302  Biso   1.000  N
  N6       1.0000 0.95530  0.09690  0.81302  Biso   1.000  N
  N7       1.0000 0.45530  0.40310  0.31302  Biso   1.000  N
  N8       1.0000 0.95530  0.90310  0.31302  Biso   1.000  N
  H1       1.0000 0.58200  0.38500  0.24500  Biso   1.000  H
  H2       1.0000 0.08200  0.88500  0.24500  Biso   1.000  H
  H3       1.0000 0.58200  0.61500  0.74500  Biso   1.000  H
  H4       1.0000 0.08200  0.11500  0.74500  Biso   1.000  H
  H5       1.0000 0.41800  0.61500  0.75500  Biso   1.000  H
  H6       1.0000 0.91800  0.11500  0.75500  Biso   1.000  H
  H7       1.0000 0.41800  0.38500  0.25500  Biso   1.000  H
  H8       1.0000 0.91800  0.88500  0.25500  Biso   1.000  H
  C1       1.0000 0.35770  0.46880  0.91031  Biso   1.000  C
  C2       1.0000 0.85770  0.96880  0.91031  Biso   1.000  C
  C3       1.0000 0.35770  0.53120  0.41031  Biso   1.000  C
  C4       1.0000 0.85770  0.03120  0.41031  Biso   1.000  C
  C5       1.0000 0.64230  0.53120  0.08969  Biso   1.000  C
  C6       1.0000 0.14230  0.03120  0.08969  Biso   1.000  C
  C7       1.0000 0.64230  0.46880  0.58969  Biso   1.000  C
  C8       1.0000 0.14230  0.96880  0.58969  Biso   1.000  C
  C9       1.0000 0.42395  0.44800  0.01015  Biso   1.000  C
  C10      1.0000 0.92395  0.94800  0.01015  Biso   1.000  C
  C11      1.0000 0.42395  0.55200  0.51015  Biso   1.000  C
  C12      1.0000 0.92395  0.05200  0.51015  Biso   1.000  C
  C13      1.0000 0.57605  0.55200  0.98985  Biso   1.000  C
  C14      1.0000 0.07605  0.05200  0.98985  Biso   1.000  C
  C15      1.0000 0.57605  0.44800  0.48985  Biso   1.000  C
  C16      1.0000 0.07605  0.94800  0.48985  Biso   1.000  C
  C17      1.0000 0.45719  0.25290  0.03946  Biso   1.000  C
  C18      1.0000 0.95719  0.75290  0.03946  Biso   1.000  C
  C19      1.0000 0.45719  0.74710  0.53946  Biso   1.000  C
  C20      1.0000 0.95719  0.24710  0.53946  Biso   1.000  C
  C21      1.0000 0.54281  0.74710  0.96054  Biso   1.000  C
  C22      1.0000 0.04281  0.24710  0.96054  Biso   1.000  C
  C23      1.0000 0.54281  0.25290  0.46054  Biso   1.000  C
  C24      1.0000 0.04281  0.75290  0.46054  Biso   1.000  C
  H9       1.0000 0.43850  0.13520  0.99890  Biso   1.000  H
  H10      1.0000 0.93850  0.63520  0.99890  Biso   1.000  H
  H11      1.0000 0.43850  0.86480  0.49890  Biso   1.000  H
  H12      1.0000 0.93850  0.36480  0.49890  Biso   1.000  H
  H13      1.0000 0.56150  0.86480  0.00110  Biso   1.000  H
  H14      1.0000 0.06150  0.36480  0.00110  Biso   1.000  H
  H15      1.0000 0.56150  0.13520  0.50110  Biso   1.000  H
  H16      1.0000 0.06150  0.63520  0.50110  Biso   1.000  H
  C25      1.0000 0.51825  0.23410  0.12915  Biso   1.000  C
  C26      1.0000 0.01825  0.73410  0.12915  Biso   1.000  C
  C27      1.0000 0.51825  0.76590  0.62915  Biso   1.000  C
  C28      1.0000 0.01825  0.26590  0.62915  Biso   1.000  C
  C29      1.0000 0.48175  0.76590  0.87085  Biso   1.000  C
  C30      1.0000 0.98175  0.26590  0.87085  Biso   1.000  C
  C31      1.0000 0.48175  0.23410  0.37085  Biso   1.000  C
  C32      1.0000 0.98175  0.73410  0.37085  Biso   1.000  C
  H17      1.0000 0.54100  0.10350  0.14930  Biso   1.000  H
  H18      1.0000 0.04100  0.60350  0.14930  Biso   1.000  H
  H19      1.0000 0.54100  0.89650  0.64930  Biso   1.000  H
  H20      1.0000 0.04100  0.39650  0.64930  Biso   1.000  H
  H21      1.0000 0.45900  0.89650  0.85070  Biso   1.000  H
  H22      1.0000 0.95900  0.39650  0.85070  Biso   1.000  H
  H23      1.0000 0.45900  0.10350  0.35070  Biso   1.000  H
  H24      1.0000 0.95900  0.60350  0.35070  Biso   1.000  H
  C33      1.0000 0.45254  0.62110  0.07227  Biso   1.000  C
  C34      1.0000 0.95254  0.12110  0.07227  Biso   1.000  C
  C35      1.0000 0.45254  0.37890  0.57227  Biso   1.000  C
  C36      1.0000 0.95254  0.87890  0.57227  Biso   1.000  C
  C37      1.0000 0.54746  0.37890  0.92773  Biso   1.000  C
  C38      1.0000 0.04746  0.87890  0.92773  Biso   1.000  C
  C39      1.0000 0.54746  0.62110  0.42773  Biso   1.000  C
  C40      1.0000 0.04746  0.12110  0.42773  Biso   1.000  C
  H25      1.0000 0.43060  0.75310  0.05400  Biso   1.000  H
  H26      1.0000 0.93060  0.25310  0.05400  Biso   1.000  H
  H27      1.0000 0.43060  0.24690  0.55400  Biso   1.000  H
  H28      1.0000 0.93060  0.74690  0.55400  Biso   1.000  H
  H29      1.0000 0.56940  0.24690  0.94600  Biso   1.000  H
  H30      1.0000 0.06940  0.74690  0.94600  Biso   1.000  H
  H31      1.0000 0.56940  0.75310  0.44600  Biso   1.000  H
  H32      1.0000 0.06940  0.25310  0.44600  Biso   1.000  H
  C41      1.0000 0.51380  0.59490  0.16141  Biso   1.000  C
  C42      1.0000 0.01380  0.09490  0.16141  Biso   1.000  C
  C43      1.0000 0.51380  0.40510  0.66141  Biso   1.000  C
  C44      1.0000 0.01380  0.90510  0.66141  Biso   1.000  C
  C45      1.0000 0.48620  0.40510  0.83859  Biso   1.000  C
  C46      1.0000 0.98620  0.90510  0.83859  Biso   1.000  C
  C47      1.0000 0.48620  0.59490  0.33859  Biso   1.000  C
  C48      1.0000 0.98620  0.09490  0.33859  Biso   1.000  C
  H33      1.0000 0.53360  0.70950  0.20360  Biso   1.000  H
  H34      1.0000 0.03360  0.20950  0.20360  Biso   1.000  H
  H35      1.0000 0.53360  0.29050  0.70360  Biso   1.000  H
  H36      1.0000 0.03360  0.79050  0.70360  Biso   1.000  H
  H37      1.0000 0.46640  0.29050  0.79640  Biso   1.000  H
  H38      1.0000 0.96640  0.79050  0.79640  Biso   1.000  H
  H39      1.0000 0.46640  0.70950  0.29640  Biso   1.000  H
  H40      1.0000 0.96640  0.20950  0.29640  Biso   1.000  H
