data_image0
_cell_length_a       10.3815
_cell_length_b       12.0768
_cell_length_c       18.0377
_cell_angle_alpha    73.765
_cell_angle_beta     74.301
_cell_angle_gamma    74.77

_symmetry_space_group_name_H-M    "P 1"
_symmetry_int_tables_number       1

loop_
  _symmetry_equiv_pos_as_xyz
  'x, y, z'

loop_
  _atom_site_label
  _atom_site_occupancy
  _atom_site_fract_x
  _atom_site_fract_y
  _atom_site_fract_z
  _atom_site_thermal_displace_type
  _atom_site_B_iso_or_equiv
  _atom_site_type_symbol
  Cu1      1.0000 0.28825  0.75503  0.14939  Biso   1.000  Cu
  Cu2      1.0000 0.71175  0.24497  0.85061  Biso   1.000  Cu
  Cu3      1.0000 0.20165  0.25636  0.35981  Biso   1.000  Cu
  Cu4      1.0000 0.79835  0.74364  0.64019  Biso   1.000  Cu
  V1       1.0000 0.10863  0.68885  0.93119  Biso   1.000  V
  V2       1.0000 0.89137  0.31115  0.06881  Biso   1.000  V
  V3       1.0000 0.40106  0.30625  0.57734  Biso   1.000  V
  V4       1.0000 0.59894  0.69375  0.42266  Biso   1.000  V
  P1       1.0000 0.02863  0.81962  0.07587  Biso   1.000  P
  P2       1.0000 0.97137  0.18038  0.92413  Biso   1.000  P
  P3       1.0000 0.08484  0.88671  0.76379  Biso   1.000  P
  P4       1.0000 0.91516  0.11329  0.23621  Biso   1.000  P
  P5       1.0000 0.38065  0.10863  0.73666  Biso   1.000  P
  P6       1.0000 0.61935  0.89137  0.26334  Biso   1.000  P
  P7       1.0000 0.48994  0.18331  0.42674  Biso   1.000  P
  P8       1.0000 0.51006  0.81669  0.57326  Biso   1.000  P
  O1       1.0000 0.92012  0.75491  0.12914  Biso   1.000  O
  O2       1.0000 0.07988  0.24509  0.87086  Biso   1.000  O
  O3       1.0000 0.12479  0.84279  0.11740  Biso   1.000  O
  O4       1.0000 0.87521  0.15721  0.88260  Biso   1.000  O
  O5       1.0000 0.11770  0.75509  0.00993  Biso   1.000  O
  O6       1.0000 0.88230  0.24491  0.99007  Biso   1.000  O
  O7       1.0000 0.22840  0.57261  0.93037  Biso   1.000  O
  O8       1.0000 0.77160  0.42739  0.06963  Biso   1.000  O
  O9       1.0000 0.96470  0.64917  0.94989  Biso   1.000  O
  O10      1.0000 0.03530  0.35083  0.05011  Biso   1.000  O
  O11      1.0000 0.13610  0.79616  0.83460  Biso   1.000  O
  O12      1.0000 0.86390  0.20384  0.16540  Biso   1.000  O
  O13      1.0000 0.93404  0.91689  0.77181  Biso   1.000  O
  O14      1.0000 0.06596  0.08311  0.22819  Biso   1.000  O
  O15      1.0000 0.15327  0.83969  0.68761  Biso   1.000  O
  O16      1.0000 0.84673  0.16031  0.31239  Biso   1.000  O
  H1       1.0000 0.23840  0.83150  0.67970  Biso   1.000  H
  H2       1.0000 0.76160  0.16850  0.32030  Biso   1.000  H
  O17      1.0000 0.32430  0.15952  0.81215  Biso   1.000  O
  O18      1.0000 0.67570  0.84048  0.18785  Biso   1.000  O
  H3       1.0000 0.23860  0.17710  0.82060  Biso   1.000  H
  H4       1.0000 0.76140  0.82290  0.17940  Biso   1.000  H
  O19      1.0000 0.53202  0.07211  0.72362  Biso   1.000  O
  O20      1.0000 0.46798  0.92789  0.27638  Biso   1.000  O
  O21      1.0000 0.32760  0.19858  0.66604  Biso   1.000  O
  O22      1.0000 0.67240  0.80142  0.33396  Biso   1.000  O
  O23      1.0000 0.50400  0.36607  0.59865  Biso   1.000  O
  O24      1.0000 0.49600  0.63393  0.40135  Biso   1.000  O
  O25      1.0000 0.27650  0.40903  0.55037  Biso   1.000  O
  O26      1.0000 0.72350  0.59097  0.44963  Biso   1.000  O
  O27      1.0000 0.49757  0.23322  0.49605  Biso   1.000  O
  O28      1.0000 0.50243  0.76678  0.50395  Biso   1.000  O
  O29      1.0000 0.59005  0.22647  0.35317  Biso   1.000  O
  O30      1.0000 0.40995  0.77353  0.64683  Biso   1.000  O
  O31      1.0000 0.34445  0.21073  0.41703  Biso   1.000  O
  O32      1.0000 0.65555  0.78927  0.58297  Biso   1.000  O
  O33      1.0000 0.27890  0.88780  0.21223  Biso   1.000  O
  O34      1.0000 0.72110  0.11220  0.78777  Biso   1.000  O
  O35      1.0000 0.22590  0.08797  0.32881  Biso   1.000  O
  O36      1.0000 0.77410  0.91203  0.67119  Biso   1.000  O
  N1       1.0000 0.20580  0.64790  0.25139  Biso   1.000  N
  N2       1.0000 0.79420  0.35210  0.74861  Biso   1.000  N
  N3       1.0000 0.45280  0.65539  0.17957  Biso   1.000  N
  N4       1.0000 0.54720  0.34461  0.82043  Biso   1.000  N
  N5       1.0000 0.43140  0.80530  0.05049  Biso   1.000  N
  N6       1.0000 0.56860  0.19470  0.94951  Biso   1.000  N
  N7       1.0000 0.05030  0.22990  0.45924  Biso   1.000  N
  N8       1.0000 0.94970  0.77010  0.54076  Biso   1.000  N
  N9       1.0000 0.04040  0.34112  0.31739  Biso   1.000  N
  N10      1.0000 0.95960  0.65888  0.68261  Biso   1.000  N
  N11      1.0000 0.29000  0.33070  0.24578  Biso   1.000  N
  N12      1.0000 0.71000  0.66930  0.75422  Biso   1.000  N
  C1       1.0000 0.07310  0.65390  0.28588  Biso   1.000  C
  C2       1.0000 0.92690  0.34610  0.71412  Biso   1.000  C
  H5       1.0000 0.00610  0.70180  0.25710  Biso   1.000  H
  H6       1.0000 0.99390  0.29820  0.74290  Biso   1.000  H
  C3       1.0000 0.03100  0.59190  0.36244  Biso   1.000  C
  C4       1.0000 0.96900  0.40810  0.63756  Biso   1.000  C
  H7       1.0000 0.93650  0.59680  0.38560  Biso   1.000  H
  H8       1.0000 0.06350  0.40320  0.61440  Biso   1.000  H
  C5       1.0000 0.12810  0.52300  0.40450  Biso   1.000  C
  C6       1.0000 0.87190  0.47700  0.59550  Biso   1.000  C
  H9       1.0000 0.10080  0.48040  0.45710  Biso   1.000  H
  H10      1.0000 0.89920  0.51960  0.54290  Biso   1.000  H
  C7       1.0000 0.26480  0.51640  0.36988  Biso   1.000  C
  C8       1.0000 0.73520  0.48360  0.63012  Biso   1.000  C
  H11      1.0000 0.33290  0.47010  0.39830  Biso   1.000  H
  H12      1.0000 0.66710  0.52990  0.60170  Biso   1.000  H
  C9       1.0000 0.30090  0.57830  0.29317  Biso   1.000  C
  C10      1.0000 0.69910  0.42170  0.70683  Biso   1.000  C
  C11      1.0000 0.44270  0.57910  0.24950  Biso   1.000  C
  C12      1.0000 0.55730  0.42090  0.75050  Biso   1.000  C
  C13      1.0000 0.55860  0.51110  0.27537  Biso   1.000  C
  C14      1.0000 0.44140  0.48890  0.72463  Biso   1.000  C
  H13      1.0000 0.55140  0.45360  0.32380  Biso   1.000  H
  H14      1.0000 0.44860  0.54640  0.67620  Biso   1.000  H
  C15      1.0000 0.68680  0.52830  0.22900  Biso   1.000  C
  C16      1.0000 0.31320  0.47170  0.77100  Biso   1.000  C
  C17      1.0000 0.81120  0.46440  0.25944  Biso   1.000  C
  C18      1.0000 0.18880  0.53560  0.74056  Biso   1.000  C
  C19      1.0000 0.69410  0.60740  0.15604  Biso   1.000  C
  C20      1.0000 0.30590  0.39260  0.84396  Biso   1.000  C
  H15      1.0000 0.78000  0.61890  0.12300  Biso   1.000  H
  H16      1.0000 0.22000  0.38110  0.87700  Biso   1.000  H
  C21      1.0000 0.57400  0.66890  0.13238  Biso   1.000  C
  C22      1.0000 0.42600  0.33110  0.86762  Biso   1.000  C
  C23      1.0000 0.56230  0.75660  0.05804  Biso   1.000  C
  C24      1.0000 0.43770  0.24340  0.94196  Biso   1.000  C
  C25      1.0000 0.67290  0.78590  0.00007  Biso   1.000  C
  C26      1.0000 0.32710  0.21410  0.99993  Biso   1.000  C
  H17      1.0000 0.76330  0.75050  0.00720  Biso   1.000  H
  H18      1.0000 0.23670  0.24950  0.99280  Biso   1.000  H
  C27      1.0000 0.65090  0.86790  0.93099  Biso   1.000  C
  C28      1.0000 0.34910  0.13210  0.06901  Biso   1.000  C
  H19      1.0000 0.72560  0.88860  0.88980  Biso   1.000  H
  H20      1.0000 0.27440  0.11140  0.11020  Biso   1.000  H
  C29      1.0000 0.51760  0.91860  0.92351  Biso   1.000  C
  C30      1.0000 0.48240  0.08140  0.07649  Biso   1.000  C
  H21      1.0000 0.49940  0.97610  0.87740  Biso   1.000  H
  H22      1.0000 0.50060  0.02390  0.12260  Biso   1.000  H
  C31      1.0000 0.41190  0.88460  0.98375  Biso   1.000  C
  C32      1.0000 0.58810  0.11540  0.01625  Biso   1.000  C
  H23      1.0000 0.32080  0.91900  0.97770  Biso   1.000  H
  H24      1.0000 0.67920  0.08100  0.02230  Biso   1.000  H
  C33      1.0000 0.06390  0.16150  0.53079  Biso   1.000  C
  C34      1.0000 0.93610  0.83850  0.46921  Biso   1.000  C
  H25      1.0000 0.15310  0.12680  0.54010  Biso   1.000  H
  H26      1.0000 0.84690  0.87320  0.45990  Biso   1.000  H
  C35      1.0000 0.95280  0.14000  0.59111  Biso   1.000  C
  C36      1.0000 0.04720  0.86000  0.40889  Biso   1.000  C
  H27      1.0000 0.96570  0.08900  0.64040  Biso   1.000  H
  H28      1.0000 0.03430  0.91100  0.35960  Biso   1.000  H
  C37      1.0000 0.82250  0.19310  0.57934  Biso   1.000  C
  C38      1.0000 0.17750  0.80690  0.42066  Biso   1.000  C
  H29      1.0000 0.74490  0.18060  0.62060  Biso   1.000  H
  H30      1.0000 0.25510  0.81940  0.37940  Biso   1.000  H
  C39      1.0000 0.80710  0.26490  0.50641  Biso   1.000  C
  C40      1.0000 0.19290  0.73510  0.49359  Biso   1.000  C
  H31      1.0000 0.71880  0.30300  0.49690  Biso   1.000  H
  H32      1.0000 0.28120  0.69700  0.50310  Biso   1.000  H
  C41      1.0000 0.92240  0.28030  0.44758  Biso   1.000  C
  C42      1.0000 0.07760  0.71970  0.55242  Biso   1.000  C
  C43      1.0000 0.91800  0.34770  0.36632  Biso   1.000  C
  C44      1.0000 0.08200  0.65230  0.63368  Biso   1.000  C
  C45      1.0000 0.80150  0.41150  0.33944  Biso   1.000  C
  C46      1.0000 0.19850  0.58850  0.66056  Biso   1.000  C
  H33      1.0000 0.71540  0.41920  0.37530  Biso   1.000  H
  H34      1.0000 0.28460  0.58080  0.62470  Biso   1.000  H
  C47      1.0000 0.94110  0.45690  0.20950  Biso   1.000  C
  C48      1.0000 0.05890  0.54310  0.79050  Biso   1.000  C
  H35      1.0000 0.95140  0.49330  0.15480  Biso   1.000  H
  H36      1.0000 0.04860  0.50670  0.84520  Biso   1.000  H
  C49      1.0000 0.05460  0.39540  0.24103  Biso   1.000  C
  C50      1.0000 0.94540  0.60460  0.75897  Biso   1.000  C
  C51      1.0000 0.19850  0.38580  0.19869  Biso   1.000  C
  C52      1.0000 0.80150  0.61420  0.80131  Biso   1.000  C
  C53      1.0000 0.23860  0.43160  0.11848  Biso   1.000  C
  C54      1.0000 0.76140  0.56840  0.88152  Biso   1.000  C
  H37      1.0000 0.17260  0.46940  0.08690  Biso   1.000  H
  H38      1.0000 0.82740  0.53060  0.91310  Biso   1.000  H
  C55      1.0000 0.37730  0.42110  0.08523  Biso   1.000  C
  C56      1.0000 0.62270  0.57890  0.91477  Biso   1.000  C
  H39      1.0000 0.40790  0.45110  0.03030  Biso   1.000  H
  H40      1.0000 0.59210  0.54890  0.96970  Biso   1.000  H
  C57      1.0000 0.47030  0.36650  0.13303  Biso   1.000  C
  C58      1.0000 0.52970  0.63350  0.86697  Biso   1.000  C
  H41      1.0000 0.56550  0.36020  0.11150  Biso   1.000  H
  H42      1.0000 0.43450  0.63980  0.88850  Biso   1.000  H
  C59      1.0000 0.42340  0.32110  0.21270  Biso   1.000  C
  C60      1.0000 0.57660  0.67890  0.78730  Biso   1.000  C
  H43      1.0000 0.48800  0.28180  0.24490  Biso   1.000  H
  H44      1.0000 0.51200  0.71820  0.75510  Biso   1.000  H
  C61      1.0000 0.94900  0.96190  0.02546  Biso   1.000  C
  C62      1.0000 0.05100  0.03810  0.97454  Biso   1.000  C
  H45      1.0000 0.89500  0.95060  0.99160  Biso   1.000  H
  H46      1.0000 0.10500  0.04940  0.00840  Biso   1.000  H
  H47      1.0000 0.88510  0.00390  0.06520  Biso   1.000  H
  H48      1.0000 0.11490  0.99610  0.93480  Biso   1.000  H
  C63      1.0000 0.15280  0.01300  0.75415  Biso   1.000  C
  C64      1.0000 0.84720  0.98700  0.24585  Biso   1.000  C
  H49      1.0000 0.13730  0.07000  0.70440  Biso   1.000  H
  H50      1.0000 0.86270  0.93000  0.29560  Biso   1.000  H
  H51      1.0000 0.10260  0.05150  0.79840  Biso   1.000  H
  H52      1.0000 0.89740  0.94850  0.20160  Biso   1.000  H
  C65      1.0000 0.30520  0.98370  0.75384  Biso   1.000  C
  C66      1.0000 0.69480  0.01630  0.24616  Biso   1.000  C
  H53      1.0000 0.35400  0.93900  0.71250  Biso   1.000  H
  H54      1.0000 0.64600  0.06100  0.28750  Biso   1.000  H
  H55      1.0000 0.31930  0.93160  0.80540  Biso   1.000  H
  H56      1.0000 0.68070  0.06840  0.19460  Biso   1.000  H
  C67      1.0000 0.54210  0.02620  0.46042  Biso   1.000  C
  C68      1.0000 0.45790  0.97380  0.53958  Biso   1.000  C
  H57      1.0000 0.53650  0.98730  0.42010  Biso   1.000  H
  H58      1.0000 0.46350  0.01270  0.57990  Biso   1.000  H
  H59      1.0000 0.63890  0.00820  0.46460  Biso   1.000  H
  H60      1.0000 0.36110  0.99180  0.53540  Biso   1.000  H
  H61      1.0000 0.21600  0.93700  0.21400  Biso   1.000  H
  H62      1.0000 0.78400  0.06300  0.78600  Biso   1.000  H
  H63      1.0000 0.33700  0.89100  0.23500  Biso   1.000  H
  H64      1.0000 0.66300  0.10900  0.76500  Biso   1.000  H
  H65      1.0000 0.17400  0.08800  0.30200  Biso   1.000  H
  H66      1.0000 0.82600  0.91200  0.69800  Biso   1.000  H
  H67      1.0000 0.29800  0.04700  0.31500  Biso   1.000  H
  H68      1.0000 0.70200  0.95300  0.68500  Biso   1.000  H
