data_image0
_cell_length_a       9.4256
_cell_length_b       11.3275
_cell_length_c       11.4321
_cell_angle_alpha    80.291
_cell_angle_beta     82.879
_cell_angle_gamma    73.855

_symmetry_space_group_name_H-M    "P 1"
_symmetry_int_tables_number       1

loop_
  _symmetry_equiv_pos_as_xyz
  'x, y, z'

loop_
  _atom_site_label
  _atom_site_occupancy
  _atom_site_fract_x
  _atom_site_fract_y
  _atom_site_fract_z
  _atom_site_thermal_displace_type
  _atom_site_B_iso_or_equiv
  _atom_site_type_symbol
  Cu1      1.0000 0.56978  0.30988  0.11295  Biso   1.000  Cu
  Cu2      1.0000 0.43022  0.69012  0.88705  Biso   1.000  Cu
  V1       1.0000 0.05822  0.08899  0.74476  Biso   1.000  V
  V2       1.0000 0.94178  0.91101  0.25524  Biso   1.000  V
  V3       1.0000 0.39562  0.83982  0.59547  Biso   1.000  V
  V4       1.0000 0.60438  0.16018  0.40453  Biso   1.000  V
  P1       1.0000 0.88077  0.16414  0.20721  Biso   1.000  P
  P2       1.0000 0.11923  0.83586  0.79279  Biso   1.000  P
  P3       1.0000 0.29559  0.13853  0.52540  Biso   1.000  P
  P4       1.0000 0.70441  0.86147  0.47460  Biso   1.000  P
  O1       1.0000 0.33710  0.00342  0.50305  Biso   1.000  O
  O2       1.0000 0.66290  0.99658  0.49695  Biso   1.000  O
  O3       1.0000 0.21060  0.15510  0.64768  Biso   1.000  O
  O4       1.0000 0.78940  0.84490  0.35232  Biso   1.000  O
  O5       1.0000 0.43090  0.18902  0.51929  Biso   1.000  O
  O6       1.0000 0.56910  0.81098  0.48071  Biso   1.000  O
  O7       1.0000 0.51710  0.19610  0.28165  Biso   1.000  O
  O8       1.0000 0.48290  0.80390  0.71835  Biso   1.000  O
  O9       1.0000 0.77890  0.26230  0.12695  Biso   1.000  O
  O10      1.0000 0.22110  0.73770  0.87305  Biso   1.000  O
  O11      1.0000 0.98430  0.05670  0.14601  Biso   1.000  O
  O12      1.0000 0.01570  0.94330  0.85399  Biso   1.000  O
  O13      1.0000 0.80060  0.08672  0.30593  Biso   1.000  O
  O14      1.0000 0.19940  0.91328  0.69407  Biso   1.000  O
  O15      1.0000 0.91780  0.13680  0.66600  Biso   1.000  O
  O16      1.0000 0.08220  0.86320  0.33400  Biso   1.000  O
  O17      1.0000 0.03250  0.18120  0.84500  Biso   1.000  O
  O18      1.0000 0.96750  0.81880  0.15500  Biso   1.000  O
  O19      1.0000 0.33520  0.72490  0.57556  Biso   1.000  O
  O20      1.0000 0.66480  0.27510  0.42444  Biso   1.000  O
  O21      1.0000 0.83380  0.43430  0.49000  Biso   1.000  O
  O22      1.0000 0.16620  0.56570  0.51000  Biso   1.000  O
  O23      1.0000 0.96590  0.58570  0.33250  Biso   1.000  O
  O24      1.0000 0.03410  0.41430  0.66750  Biso   1.000  O
  N1       1.0000 0.51470  0.46700  0.19030  Biso   1.000  N
  N2       1.0000 0.48530  0.53300  0.80970  Biso   1.000  N
  N3       1.0000 0.36930  0.37910  0.06870  Biso   1.000  N
  N4       1.0000 0.63070  0.62090  0.93130  Biso   1.000  N
  N5       1.0000 0.56370  0.19730  0.99460  Biso   1.000  N
  N6       1.0000 0.43630  0.80270  0.00540  Biso   1.000  N
  C1       1.0000 0.59880  0.50310  0.25660  Biso   1.000  C
  C2       1.0000 0.40120  0.49690  0.74340  Biso   1.000  C
  H1       1.0000 0.69770  0.45910  0.26100  Biso   1.000  H
  H2       1.0000 0.30230  0.54090  0.73900  Biso   1.000  H
  C3       1.0000 0.54420  0.60270  0.31830  Biso   1.000  C
  C4       1.0000 0.45580  0.39730  0.68170  Biso   1.000  C
  H3       1.0000 0.60480  0.62450  0.36450  Biso   1.000  H
  H4       1.0000 0.39520  0.37550  0.63550  Biso   1.000  H
  C5       1.0000 0.39800  0.67010  0.31050  Biso   1.000  C
  C6       1.0000 0.60200  0.32990  0.68950  Biso   1.000  C
  H5       1.0000 0.35950  0.73870  0.35040  Biso   1.000  H
  H6       1.0000 0.64050  0.26130  0.64960  Biso   1.000  H
  C7       1.0000 0.30920  0.63380  0.24230  Biso   1.000  C
  C8       1.0000 0.69080  0.36620  0.75770  Biso   1.000  C
  H7       1.0000 0.21050  0.67760  0.23590  Biso   1.000  H
  H8       1.0000 0.78950  0.32240  0.76410  Biso   1.000  H
  C9       1.0000 0.37040  0.53190  0.18480  Biso   1.000  C
  C10      1.0000 0.62960  0.46810  0.81520  Biso   1.000  C
  C11      1.0000 0.28700  0.48260  0.11110  Biso   1.000  C
  C12      1.0000 0.71300  0.51740  0.88890  Biso   1.000  C
  C13      1.0000 0.14130  0.53410  0.08460  Biso   1.000  C
  C14      1.0000 0.85870  0.46590  0.91540  Biso   1.000  C
  H9       1.0000 0.08560  0.60660  0.11320  Biso   1.000  H
  H10      1.0000 0.91440  0.39340  0.88680  Biso   1.000  H
  C15      1.0000 0.07900  0.47470  0.01380  Biso   1.000  C
  C16      1.0000 0.92100  0.52530  0.98620  Biso   1.000  C
  C17      1.0000 0.16850  0.36670  0.96980  Biso   1.000  C
  C18      1.0000 0.83150  0.63330  0.03020  Biso   1.000  C
  H11      1.0000 0.13000  0.32540  0.92280  Biso   1.000  H
  H12      1.0000 0.87000  0.67460  0.07720  Biso   1.000  H
  C19      1.0000 0.31500  0.32300  0.99780  Biso   1.000  C
  C20      1.0000 0.68500  0.67700  0.00220  Biso   1.000  C
  C21      1.0000 0.42880  0.21750  0.95310  Biso   1.000  C
  C22      1.0000 0.57120  0.78250  0.04690  Biso   1.000  C
  C23      1.0000 0.40500  0.14870  0.87200  Biso   1.000  C
  C24      1.0000 0.59500  0.85130  0.12800  Biso   1.000  C
  H13      1.0000 0.31140  0.16340  0.84550  Biso   1.000  H
  H14      1.0000 0.68860  0.83660  0.15450  Biso   1.000  H
  C25      1.0000 0.52340  0.05720  0.83070  Biso   1.000  C
  C26      1.0000 0.47660  0.94280  0.16930  Biso   1.000  C
  H15      1.0000 0.51020  0.01000  0.77580  Biso   1.000  H
  H16      1.0000 0.48980  0.99000  0.22420  Biso   1.000  H
  C27      1.0000 0.66090  0.03730  0.87210  Biso   1.000  C
  C28      1.0000 0.33910  0.96270  0.12790  Biso   1.000  C
  H17      1.0000 0.74120  0.97630  0.84550  Biso   1.000  H
  H18      1.0000 0.25880  0.02370  0.15450  Biso   1.000  H
  C29      1.0000 0.67800  0.10890  0.95350  Biso   1.000  C
  C30      1.0000 0.32200  0.89110  0.04650  Biso   1.000  C
  H19      1.0000 0.77090  0.09570  0.98060  Biso   1.000  H
  H20      1.0000 0.22910  0.90430  0.01940  Biso   1.000  H
  C31      1.0000 0.18210  0.22720  0.40970  Biso   1.000  C
  C32      1.0000 0.81790  0.77280  0.59030  Biso   1.000  C
  H21      1.0000 0.24580  0.24610  0.33970  Biso   1.000  H
  H22      1.0000 0.75420  0.75390  0.66030  Biso   1.000  H
  H23      1.0000 0.12540  0.30530  0.43550  Biso   1.000  H
  H24      1.0000 0.87460  0.69470  0.56450  Biso   1.000  H
  C33      1.0000 0.07480  0.16160  0.37520  Biso   1.000  C
  C34      1.0000 0.92520  0.83840  0.62480  Biso   1.000  C
  H25      1.0000 0.12990  0.08160  0.35280  Biso   1.000  H
  H26      1.0000 0.87010  0.91840  0.64720  Biso   1.000  H
  H27      1.0000 0.00590  0.14760  0.44310  Biso   1.000  H
  H28      1.0000 0.99410  0.85240  0.55690  Biso   1.000  H
  C35      1.0000 0.98900  0.24010  0.27120  Biso   1.000  C
  C36      1.0000 0.01100  0.75990  0.72880  Biso   1.000  C
  H29      1.0000 0.05900  0.26580  0.20940  Biso   1.000  H
  H30      1.0000 0.94100  0.73420  0.79060  Biso   1.000  H
  H31      1.0000 0.92360  0.31450  0.29860  Biso   1.000  H
  H32      1.0000 0.07640  0.68550  0.70140  Biso   1.000  H
