data_image0
_cell_length_a       8.7056
_cell_length_b       15.8466
_cell_length_c       15.9357
_cell_angle_alpha    115.262
_cell_angle_beta     94.06
_cell_angle_gamma    90

_symmetry_space_group_name_H-M    "P 1"
_symmetry_int_tables_number       1

loop_
  _symmetry_equiv_pos_as_xyz
  'x, y, z'

loop_
  _atom_site_label
  _atom_site_occupancy
  _atom_site_fract_x
  _atom_site_fract_y
  _atom_site_fract_z
  _atom_site_thermal_displace_type
  _atom_site_B_iso_or_equiv
  _atom_site_type_symbol
  Cu1      1.0000 0.38443  0.94137  0.34430  Biso   1.000  Cu
  Cu2      1.0000 0.61557  0.05863  0.65570  Biso   1.000  Cu
  Cu3      1.0000 0.84561  0.59029  0.75132  Biso   1.000  Cu
  Cu4      1.0000 0.15439  0.40971  0.24868  Biso   1.000  Cu
  V1       1.0000 0.39193  0.60780  0.24871  Biso   1.000  V
  V2       1.0000 0.60807  0.39220  0.75129  Biso   1.000  V
  P1       1.0000 0.59539  0.76651  0.22866  Biso   1.000  P
  P2       1.0000 0.40461  0.23349  0.77134  Biso   1.000  P
  P3       1.0000 0.53965  0.61188  0.83500  Biso   1.000  P
  P4       1.0000 0.46035  0.38812  0.16500  Biso   1.000  P
  P5       1.0000 0.11625  0.76415  0.77200  Biso   1.000  P
  P6       1.0000 0.88375  0.23585  0.22800  Biso   1.000  P
  P7       1.0000 0.93842  0.91725  0.13880  Biso   1.000  P
  P8       1.0000 0.06158  0.08275  0.86120  Biso   1.000  P
  O1       1.0000 0.54777  0.85760  0.30413  Biso   1.000  O
  O2       1.0000 0.45223  0.14240  0.69587  Biso   1.000  O
  O3       1.0000 0.55683  0.68366  0.25349  Biso   1.000  O
  O4       1.0000 0.44317  0.31634  0.74651  Biso   1.000  O
  O5       1.0000 0.37435  0.61736  0.35253  Biso   1.000  O
  O6       1.0000 0.62565  0.38264  0.64747  Biso   1.000  O
  O7       1.0000 0.23551  0.64416  0.21390  Biso   1.000  O
  O8       1.0000 0.76449  0.35584  0.78610  Biso   1.000  O
  O9       1.0000 0.57832  0.51431  0.83369  Biso   1.000  O
  O10      1.0000 0.42168  0.48569  0.16631  Biso   1.000  O
  O11      1.0000 0.41364  0.60270  0.76193  Biso   1.000  O
  O12      1.0000 0.58636  0.39730  0.23807  Biso   1.000  O
  O13      1.0000 0.68868  0.66012  0.83070  Biso   1.000  O
  O14      1.0000 0.31132  0.33988  0.16930  Biso   1.000  O
  O15      1.0000 0.98860  0.69119  0.73568  Biso   1.000  O
  O16      1.0000 0.01140  0.30881  0.26432  Biso   1.000  O
  O17      1.0000 0.27051  0.72582  0.72509  Biso   1.000  O
  O18      1.0000 0.72949  0.27418  0.27491  Biso   1.000  O
  H1       1.0000 0.30710  0.68760  0.74420  Biso   1.000  H
  H2       1.0000 0.69290  0.31240  0.25580  Biso   1.000  H
  O19      1.0000 0.07953  0.84897  0.75435  Biso   1.000  O
  O20      1.0000 0.92047  0.15103  0.24565  Biso   1.000  O
  O21      1.0000 0.82670  0.82975  0.10240  Biso   1.000  O
  O22      1.0000 0.17330  0.17025  0.89760  Biso   1.000  O
  H3       1.0000 0.81880  0.81210  0.14470  Biso   1.000  H
  H4       1.0000 0.18120  0.18790  0.85530  Biso   1.000  H
  O23      1.0000 0.00539  0.94461  0.23631  Biso   1.000  O
  O24      1.0000 0.99461  0.05539  0.76369  Biso   1.000  O
  O25      1.0000 0.84730  0.99472  0.12570  Biso   1.000  O
  O26      1.0000 0.15270  0.00528  0.87430  Biso   1.000  O
  H5       1.0000 0.87960  0.04710  0.16670  Biso   1.000  H
  H6       1.0000 0.12040  0.95290  0.83330  Biso   1.000  H
  O27      1.0000 0.76567  0.76503  0.21594  Biso   1.000  O
  O28      1.0000 0.23433  0.23497  0.78406  Biso   1.000  O
  O29      1.0000 0.19860  0.83935  0.27118  Biso   1.000  O
  O30      1.0000 0.80140  0.16065  0.72882  Biso   1.000  O
  N1       1.0000 0.40750  0.01415  0.26477  Biso   1.000  N
  N2       1.0000 0.59250  0.98585  0.73523  Biso   1.000  N
  N3       1.0000 0.26070  0.04867  0.40865  Biso   1.000  N
  N4       1.0000 0.73930  0.95133  0.59135  Biso   1.000  N
  N5       1.0000 0.34990  0.92427  0.46183  Biso   1.000  N
  N6       1.0000 0.65010  0.07573  0.53817  Biso   1.000  N
  N7       1.0000 0.73900  0.56409  0.62434  Biso   1.000  N
  N8       1.0000 0.26100  0.43591  0.37566  Biso   1.000  N
  N9       1.0000 0.94847  0.47732  0.67383  Biso   1.000  N
  N10      1.0000 0.05153  0.52268  0.32617  Biso   1.000  N
  N11      1.0000 0.97400  0.56745  0.85070  Biso   1.000  N
  N12      1.0000 0.02600  0.43255  0.14930  Biso   1.000  N
  C1       1.0000 0.49790  0.99592  0.19492  Biso   1.000  C
  C2       1.0000 0.50210  0.00408  0.80508  Biso   1.000  C
  H7       1.0000 0.56990  0.94780  0.18240  Biso   1.000  H
  H8       1.0000 0.43010  0.05220  0.81760  Biso   1.000  H
  C3       1.0000 0.49060  0.04449  0.14004  Biso   1.000  C
  C4       1.0000 0.50940  0.95551  0.85996  Biso   1.000  C
  H9       1.0000 0.55670  0.02990  0.09110  Biso   1.000  H
  H10      1.0000 0.44330  0.97010  0.90890  Biso   1.000  H
  C5       1.0000 0.38560  0.11440  0.15769  Biso   1.000  C
  C6       1.0000 0.61440  0.88560  0.84231  Biso   1.000  C
  H11      1.0000 0.37610  0.14700  0.11960  Biso   1.000  H
  H12      1.0000 0.62390  0.85300  0.88040  Biso   1.000  H
  C7       1.0000 0.29390  0.13639  0.23207  Biso   1.000  C
  C8       1.0000 0.70610  0.86361  0.76793  Biso   1.000  C
  H13      1.0000 0.22210  0.18480  0.24620  Biso   1.000  H
  H14      1.0000 0.77790  0.81520  0.75380  Biso   1.000  H
  C9       1.0000 0.30970  0.08620  0.28486  Biso   1.000  C
  C10      1.0000 0.69030  0.91380  0.71514  Biso   1.000  C
  C11      1.0000 0.23490  0.10989  0.37214  Biso   1.000  C
  C12      1.0000 0.76510  0.89011  0.62786  Biso   1.000  C
  C13      1.0000 0.21550  0.06394  0.49266  Biso   1.000  C
  C14      1.0000 0.78450  0.93606  0.50734  Biso   1.000  C
  C15      1.0000 0.25520  0.98718  0.51908  Biso   1.000  C
  C16      1.0000 0.74480  0.01282  0.48092  Biso   1.000  C
  C17      1.0000 0.19920  0.97818  0.59439  Biso   1.000  C
  C18      1.0000 0.80080  0.02182  0.40561  Biso   1.000  C
  H15      1.0000 0.13460  0.02380  0.63440  Biso   1.000  H
  H16      1.0000 0.86540  0.97620  0.36560  Biso   1.000  H
  C19      1.0000 0.24010  0.90083  0.60978  Biso   1.000  C
  C20      1.0000 0.75990  0.09917  0.39022  Biso   1.000  C
  H17      1.0000 0.20230  0.89230  0.66020  Biso   1.000  H
  H18      1.0000 0.79770  0.10770  0.33980  Biso   1.000  H
  C21      1.0000 0.33650  0.83614  0.55092  Biso   1.000  C
  C22      1.0000 0.66350  0.16386  0.44908  Biso   1.000  C
  H19      1.0000 0.36550  0.78290  0.56040  Biso   1.000  H
  H20      1.0000 0.63450  0.21710  0.43960  Biso   1.000  H
  C23      1.0000 0.38980  0.85062  0.47778  Biso   1.000  C
  C24      1.0000 0.61020  0.14938  0.52222  Biso   1.000  C
  H21      1.0000 0.45680  0.80680  0.43790  Biso   1.000  H
  H22      1.0000 0.54320  0.19320  0.56210  Biso   1.000  H
  C25      1.0000 0.48680  0.74476  0.12060  Biso   1.000  C
  C26      1.0000 0.51320  0.25524  0.87940  Biso   1.000  C
  H23      1.0000 0.38040  0.72520  0.12410  Biso   1.000  H
  H24      1.0000 0.61960  0.27480  0.87590  Biso   1.000  H
  H25      1.0000 0.48090  0.80430  0.11450  Biso   1.000  H
  H26      1.0000 0.51910  0.19570  0.88550  Biso   1.000  H
  C27      1.0000 0.46860  0.67757  0.94705  Biso   1.000  C
  C28      1.0000 0.53140  0.32243  0.05295  Biso   1.000  C
  H27      1.0000 0.35920  0.65840  0.94310  Biso   1.000  H
  H28      1.0000 0.64080  0.34160  0.05690  Biso   1.000  H
  H29      1.0000 0.47100  0.74420  0.95880  Biso   1.000  H
  H30      1.0000 0.52900  0.25580  0.04120  Biso   1.000  H
  C29      1.0000 0.54970  0.67085  0.03195  Biso   1.000  C
  C30      1.0000 0.45030  0.32915  0.96805  Biso   1.000  C
  H31      1.0000 0.53140  0.60780  0.02850  Biso   1.000  H
  H32      1.0000 0.46860  0.39220  0.97150  Biso   1.000  H
  H33      1.0000 0.66210  0.68140  0.03340  Biso   1.000  H
  H34      1.0000 0.33790  0.31860  0.96660  Biso   1.000  H
  C31      1.0000 0.98440  0.62211  0.94243  Biso   1.000  C
  C32      1.0000 0.01560  0.37789  0.05757  Biso   1.000  C
  H35      1.0000 0.92040  0.67440  0.96590  Biso   1.000  H
  H36      1.0000 0.07960  0.32560  0.03410  Biso   1.000  H
  C33      1.0000 0.08540  0.60502  0.00436  Biso   1.000  C
  C34      1.0000 0.91460  0.39498  0.99564  Biso   1.000  C
  H37      1.0000 0.09180  0.64560  0.06890  Biso   1.000  H
  H38      1.0000 0.90820  0.35440  0.93110  Biso   1.000  H
  C35      1.0000 0.17680  0.52758  0.97028  Biso   1.000  C
  C36      1.0000 0.82320  0.47242  0.02972  Biso   1.000  C
  H39      1.0000 0.24660  0.51440  0.01140  Biso   1.000  H
  H40      1.0000 0.75340  0.48560  0.98860  Biso   1.000  H
  C37      1.0000 0.16530  0.46939  0.87518  Biso   1.000  C
  C38      1.0000 0.83470  0.53061  0.12482  Biso   1.000  C
  H41      1.0000 0.22640  0.41580  0.85050  Biso   1.000  H
  H42      1.0000 0.77360  0.58420  0.14950  Biso   1.000  H
  C39      1.0000 0.06270  0.49140  0.81739  Biso   1.000  C
  C40      1.0000 0.93730  0.50860  0.18261  Biso   1.000  C
  C41      1.0000 0.03780  0.43536  0.71512  Biso   1.000  C
  C42      1.0000 0.96220  0.56464  0.28488  Biso   1.000  C
  C43      1.0000 0.09400  0.34743  0.66387  Biso   1.000  C
  C44      1.0000 0.90600  0.65257  0.33613  Biso   1.000  C
  H43      1.0000 0.15700  0.31740  0.69330  Biso   1.000  H
  H44      1.0000 0.84300  0.68260  0.30670  Biso   1.000  H
  C45      1.0000 0.05540  0.30429  0.56750  Biso   1.000  C
  C46      1.0000 0.94460  0.69571  0.43250  Biso   1.000  C
  C47      1.0000 0.11900  0.21194  0.51022  Biso   1.000  C
  C48      1.0000 0.88100  0.78806  0.48978  Biso   1.000  C
  C49      1.0000 0.16030  0.19227  0.42091  Biso   1.000  C
  C50      1.0000 0.83970  0.80773  0.57909  Biso   1.000  C
  H45      1.0000 0.13780  0.23440  0.39390  Biso   1.000  H
  H46      1.0000 0.86220  0.76560  0.60610  Biso   1.000  H
  C51      1.0000 0.14570  0.14639  0.54677  Biso   1.000  C
  C52      1.0000 0.85430  0.85361  0.45323  Biso   1.000  C
  H47      1.0000 0.11690  0.15810  0.60710  Biso   1.000  H
  H48      1.0000 0.88310  0.84190  0.39290  Biso   1.000  H
  C53      1.0000 0.96190  0.34971  0.52576  Biso   1.000  C
  C54      1.0000 0.03810  0.65029  0.47424  Biso   1.000  C
  H49      1.0000 0.93580  0.32170  0.46050  Biso   1.000  H
  H50      1.0000 0.06420  0.67830  0.53950  Biso   1.000  H
  C55      1.0000 0.90790  0.43698  0.58215  Biso   1.000  C
  C56      1.0000 0.09210  0.56302  0.41785  Biso   1.000  C
  C57      1.0000 0.80030  0.49322  0.55252  Biso   1.000  C
  C58      1.0000 0.19970  0.50678  0.44748  Biso   1.000  C
  C59      1.0000 0.76390  0.47730  0.46114  Biso   1.000  C
  C60      1.0000 0.23610  0.52270  0.53886  Biso   1.000  C
  H51      1.0000 0.80810  0.42750  0.41190  Biso   1.000  H
  H52      1.0000 0.19190  0.57250  0.58810  Biso   1.000  H
  C61      1.0000 0.66070  0.53575  0.44239  Biso   1.000  C
  C62      1.0000 0.33930  0.46425  0.55761  Biso   1.000  C
  H53      1.0000 0.63480  0.52680  0.38020  Biso   1.000  H
  H54      1.0000 0.36520  0.47320  0.61980  Biso   1.000  H
  C63      1.0000 0.59690  0.60679  0.51585  Biso   1.000  C
  C64      1.0000 0.40310  0.39321  0.48415  Biso   1.000  C
  H55      1.0000 0.52550  0.64680  0.50460  Biso   1.000  H
  H56      1.0000 0.47450  0.35320  0.49540  Biso   1.000  H
  C65      1.0000 0.63840  0.61894  0.60624  Biso   1.000  C
  C66      1.0000 0.36160  0.38106  0.39376  Biso   1.000  C
  H57      1.0000 0.59390  0.66760  0.65650  Biso   1.000  H
  H58      1.0000 0.40610  0.33240  0.34350  Biso   1.000  H
  C67      1.0000 0.16130  0.80212  0.89471  Biso   1.000  C
  C68      1.0000 0.83870  0.19788  0.10529  Biso   1.000  C
  H59      1.0000 0.25270  0.84520  0.91430  Biso   1.000  H
  H60      1.0000 0.74730  0.15480  0.08570  Biso   1.000  H
  H61      1.0000 0.18980  0.74710  0.90590  Biso   1.000  H
  H62      1.0000 0.81020  0.25290  0.09410  Biso   1.000  H
  C69      1.0000 0.03200  0.85110  0.95623  Biso   1.000  C
  C70      1.0000 0.96800  0.14890  0.04377  Biso   1.000  C
  H63      1.0000 0.00070  0.90580  0.94530  Biso   1.000  H
  H64      1.0000 0.99930  0.09420  0.05470  Biso   1.000  H
  H65      1.0000 0.94130  0.80780  0.94000  Biso   1.000  H
  H66      1.0000 0.05870  0.19220  0.06000  Biso   1.000  H
  C71      1.0000 0.08690  0.88298  0.05930  Biso   1.000  C
  C72      1.0000 0.91310  0.11702  0.94070  Biso   1.000  C
  H67      1.0000 0.14290  0.83140  0.06580  Biso   1.000  H
  H68      1.0000 0.85710  0.16860  0.93420  Biso   1.000  H
  H69      1.0000 0.16120  0.93630  0.07780  Biso   1.000  H
  H70      1.0000 0.83880  0.06370  0.92220  Biso   1.000  H
