data_image0
_cell_length_a       10.7077
_cell_length_b       13.1843
_cell_length_c       13.3464
_cell_angle_alpha    90
_cell_angle_beta     98.373
_cell_angle_gamma    90

_symmetry_space_group_name_H-M    "P 1"
_symmetry_int_tables_number       1

loop_
  _symmetry_equiv_pos_as_xyz
  'x, y, z'

loop_
  _atom_site_label
  _atom_site_occupancy
  _atom_site_fract_x
  _atom_site_fract_y
  _atom_site_fract_z
  _atom_site_thermal_displace_type
  _atom_site_B_iso_or_equiv
  _atom_site_type_symbol
  Cu1      1.0000 0.04946  0.04993  0.13652  Biso   1.000  Cu
  Cu2      1.0000 0.54946  0.45007  0.63652  Biso   1.000  Cu
  Cu3      1.0000 0.95054  0.95007  0.86348  Biso   1.000  Cu
  Cu4      1.0000 0.45054  0.54993  0.36348  Biso   1.000  Cu
  V1       1.0000 0.83664  0.89729  0.40620  Biso   1.000  V
  V2       1.0000 0.33664  0.60271  0.90620  Biso   1.000  V
  V3       1.0000 0.16336  0.10271  0.59380  Biso   1.000  V
  V4       1.0000 0.66336  0.39729  0.09380  Biso   1.000  V
  P1       1.0000 0.79127  0.05609  0.22001  Biso   1.000  P
  P2       1.0000 0.29127  0.44391  0.72001  Biso   1.000  P
  P3       1.0000 0.20873  0.94391  0.77999  Biso   1.000  P
  P4       1.0000 0.70873  0.55609  0.27999  Biso   1.000  P
  P5       1.0000 0.01738  0.08495  0.37013  Biso   1.000  P
  P6       1.0000 0.51738  0.41505  0.87013  Biso   1.000  P
  P7       1.0000 0.98262  0.91505  0.62987  Biso   1.000  P
  P8       1.0000 0.48262  0.58495  0.12987  Biso   1.000  P
  O1       1.0000 0.86900  0.05846  0.13341  Biso   1.000  O
  O2       1.0000 0.36900  0.44154  0.63341  Biso   1.000  O
  O3       1.0000 0.13100  0.94154  0.86659  Biso   1.000  O
  O4       1.0000 0.63100  0.55846  0.36659  Biso   1.000  O
  O5       1.0000 0.77410  0.95280  0.26430  Biso   1.000  O
  O6       1.0000 0.27410  0.54720  0.76430  Biso   1.000  O
  O7       1.0000 0.22590  0.04720  0.73570  Biso   1.000  O
  O8       1.0000 0.72590  0.45280  0.23570  Biso   1.000  O
  O9       1.0000 0.10530  0.09191  0.29205  Biso   1.000  O
  O10      1.0000 0.60530  0.40809  0.79205  Biso   1.000  O
  O11      1.0000 0.89470  0.90809  0.70795  Biso   1.000  O
  O12      1.0000 0.39470  0.59191  0.20795  Biso   1.000  O
  O13      1.0000 0.99000  0.97359  0.39389  Biso   1.000  O
  O14      1.0000 0.49000  0.52641  0.89389  Biso   1.000  O
  O15      1.0000 0.01000  0.02641  0.60611  Biso   1.000  O
  O16      1.0000 0.51000  0.47359  0.10611  Biso   1.000  O
  O17      1.0000 0.06060  0.14758  0.46590  Biso   1.000  O
  O18      1.0000 0.56060  0.35242  0.96590  Biso   1.000  O
  O19      1.0000 0.93940  0.85242  0.53410  Biso   1.000  O
  O20      1.0000 0.43940  0.64758  0.03410  Biso   1.000  O
  O21      1.0000 0.80230  0.78070  0.37020  Biso   1.000  O
  O22      1.0000 0.30230  0.71930  0.87020  Biso   1.000  O
  O23      1.0000 0.19770  0.21930  0.62980  Biso   1.000  O
  O24      1.0000 0.69770  0.28070  0.12980  Biso   1.000  O
  O25      1.0000 0.72080  0.94430  0.45550  Biso   1.000  O
  O26      1.0000 0.22080  0.55570  0.95550  Biso   1.000  O
  O27      1.0000 0.27920  0.05570  0.54450  Biso   1.000  O
  O28      1.0000 0.77920  0.44430  0.04450  Biso   1.000  O
  O29      1.0000 0.65680  0.10000  0.18350  Biso   1.000  O
  O30      1.0000 0.15680  0.40000  0.68350  Biso   1.000  O
  O31      1.0000 0.34320  0.90000  0.81650  Biso   1.000  O
  O32      1.0000 0.84320  0.60000  0.31650  Biso   1.000  O
  H1       1.0000 0.66330  0.15960  0.16270  Biso   1.000  H
  H2       1.0000 0.16330  0.34040  0.66270  Biso   1.000  H
  H3       1.0000 0.33670  0.84040  0.83730  Biso   1.000  H
  H4       1.0000 0.83670  0.65960  0.33730  Biso   1.000  H
  N1       1.0000 0.09040  0.19780  0.10140  Biso   1.000  N
  N2       1.0000 0.59040  0.30220  0.60140  Biso   1.000  N
  N3       1.0000 0.90960  0.80220  0.89860  Biso   1.000  N
  N4       1.0000 0.40960  0.69780  0.39860  Biso   1.000  N
  N5       1.0000 0.21490  0.03360  0.09580  Biso   1.000  N
  N6       1.0000 0.71490  0.46640  0.59580  Biso   1.000  N
  N7       1.0000 0.78510  0.96640  0.90420  Biso   1.000  N
  N8       1.0000 0.28510  0.53360  0.40420  Biso   1.000  N
  N9       1.0000 0.06000  0.89600  0.13320  Biso   1.000  N
  N10      1.0000 0.56000  0.60400  0.63320  Biso   1.000  N
  N11      1.0000 0.94000  0.10400  0.86680  Biso   1.000  N
  N12      1.0000 0.44000  0.39600  0.36680  Biso   1.000  N
  C1       1.0000 0.02080  0.27910  0.11740  Biso   1.000  C
  C2       1.0000 0.52080  0.22090  0.61740  Biso   1.000  C
  C3       1.0000 0.97920  0.72090  0.88260  Biso   1.000  C
  C4       1.0000 0.47920  0.77910  0.38260  Biso   1.000  C
  H5       1.0000 0.93460  0.27000  0.12470  Biso   1.000  H
  H6       1.0000 0.43460  0.23000  0.62470  Biso   1.000  H
  H7       1.0000 0.06540  0.73000  0.87530  Biso   1.000  H
  H8       1.0000 0.56540  0.77000  0.37530  Biso   1.000  H
  C5       1.0000 0.07110  0.37600  0.12360  Biso   1.000  C
  C6       1.0000 0.57110  0.12400  0.62360  Biso   1.000  C
  C7       1.0000 0.92890  0.62400  0.87640  Biso   1.000  C
  C8       1.0000 0.42890  0.87600  0.37640  Biso   1.000  C
  H9       1.0000 0.01990  0.43260  0.13470  Biso   1.000  H
  H10      1.0000 0.51990  0.06740  0.63470  Biso   1.000  H
  H11      1.0000 0.98010  0.56740  0.86530  Biso   1.000  H
  H12      1.0000 0.48010  0.93260  0.36530  Biso   1.000  H
  C9       1.0000 0.19720  0.38930  0.11350  Biso   1.000  C
  C10      1.0000 0.69720  0.11070  0.61350  Biso   1.000  C
  C11      1.0000 0.80280  0.61070  0.88650  Biso   1.000  C
  C12      1.0000 0.30280  0.88930  0.38650  Biso   1.000  C
  H13      1.0000 0.23450  0.45480  0.12020  Biso   1.000  H
  H14      1.0000 0.73450  0.04520  0.62020  Biso   1.000  H
  H15      1.0000 0.76550  0.54520  0.87980  Biso   1.000  H
  H16      1.0000 0.26550  0.95480  0.37980  Biso   1.000  H
  C13      1.0000 0.26810  0.30570  0.09330  Biso   1.000  C
  C14      1.0000 0.76810  0.19430  0.59330  Biso   1.000  C
  C15      1.0000 0.73190  0.69430  0.90670  Biso   1.000  C
  C16      1.0000 0.23190  0.80570  0.40670  Biso   1.000  C
  H17      1.0000 0.35370  0.31330  0.08320  Biso   1.000  H
  H18      1.0000 0.85370  0.18670  0.58320  Biso   1.000  H
  H19      1.0000 0.64630  0.68670  0.91680  Biso   1.000  H
  H20      1.0000 0.14630  0.81330  0.41680  Biso   1.000  H
  C17      1.0000 0.21240  0.21130  0.08810  Biso   1.000  C
  C18      1.0000 0.71240  0.28870  0.58810  Biso   1.000  C
  C19      1.0000 0.78760  0.78870  0.91190  Biso   1.000  C
  C20      1.0000 0.28760  0.71130  0.41190  Biso   1.000  C
  C21      1.0000 0.27850  0.11480  0.07150  Biso   1.000  C
  C22      1.0000 0.77850  0.38520  0.57150  Biso   1.000  C
  C23      1.0000 0.72150  0.88520  0.92850  Biso   1.000  C
  C24      1.0000 0.22150  0.61480  0.42850  Biso   1.000  C
  C25      1.0000 0.39190  0.10510  0.03360  Biso   1.000  C
  C26      1.0000 0.89190  0.39490  0.53360  Biso   1.000  C
  C27      1.0000 0.60810  0.89490  0.96640  Biso   1.000  C
  C28      1.0000 0.10810  0.60510  0.46640  Biso   1.000  C
  H21      1.0000 0.43600  0.16350  0.01580  Biso   1.000  H
  H22      1.0000 0.93600  0.33650  0.51580  Biso   1.000  H
  H23      1.0000 0.56400  0.83650  0.98420  Biso   1.000  H
  H24      1.0000 0.06400  0.66350  0.48420  Biso   1.000  H
  C29      1.0000 0.44040  0.00740  0.02200  Biso   1.000  C
  C30      1.0000 0.94040  0.49260  0.52200  Biso   1.000  C
  C31      1.0000 0.55960  0.99260  0.97800  Biso   1.000  C
  C32      1.0000 0.05960  0.50740  0.47800  Biso   1.000  C
  C33      1.0000 0.37320  0.92400  0.05050  Biso   1.000  C
  C34      1.0000 0.87320  0.57600  0.55050  Biso   1.000  C
  C35      1.0000 0.62680  0.07600  0.94950  Biso   1.000  C
  C36      1.0000 0.12680  0.42400  0.44950  Biso   1.000  C
  H25      1.0000 0.40520  0.85730  0.04580  Biso   1.000  H
  H26      1.0000 0.90520  0.64270  0.54580  Biso   1.000  H
  H27      1.0000 0.59480  0.14270  0.95420  Biso   1.000  H
  H28      1.0000 0.09480  0.35730  0.45420  Biso   1.000  H
  C37      1.0000 0.25880  0.93990  0.08600  Biso   1.000  C
  C38      1.0000 0.75880  0.56010  0.58600  Biso   1.000  C
  C39      1.0000 0.74120  0.06010  0.91400  Biso   1.000  C
  C40      1.0000 0.24120  0.43990  0.41400  Biso   1.000  C
  C41      1.0000 0.17210  0.85990  0.11180  Biso   1.000  C
  C42      1.0000 0.67210  0.64010  0.61180  Biso   1.000  C
  C43      1.0000 0.82790  0.14010  0.88820  Biso   1.000  C
  C44      1.0000 0.32790  0.35990  0.38820  Biso   1.000  C
  C45      1.0000 0.20110  0.75780  0.11430  Biso   1.000  C
  C46      1.0000 0.70110  0.74220  0.61430  Biso   1.000  C
  C47      1.0000 0.79890  0.24220  0.88570  Biso   1.000  C
  C48      1.0000 0.29890  0.25780  0.38570  Biso   1.000  C
  H29      1.0000 0.28050  0.73480  0.09960  Biso   1.000  H
  H30      1.0000 0.78050  0.76520  0.59960  Biso   1.000  H
  H31      1.0000 0.71950  0.26520  0.90040  Biso   1.000  H
  H32      1.0000 0.21950  0.23480  0.40040  Biso   1.000  H
  C49      1.0000 0.11160  0.68970  0.13890  Biso   1.000  C
  C50      1.0000 0.61160  0.81030  0.63890  Biso   1.000  C
  C51      1.0000 0.88840  0.31030  0.86110  Biso   1.000  C
  C52      1.0000 0.38840  0.18970  0.36110  Biso   1.000  C
  H33      1.0000 0.12900  0.61900  0.14140  Biso   1.000  H
  H34      1.0000 0.62900  0.88100  0.64140  Biso   1.000  H
  H35      1.0000 0.87100  0.38100  0.85860  Biso   1.000  H
  H36      1.0000 0.37100  0.11900  0.35860  Biso   1.000  H
  C53      1.0000 0.99710  0.72570  0.15970  Biso   1.000  C
  C54      1.0000 0.49710  0.77430  0.65970  Biso   1.000  C
  C55      1.0000 0.00290  0.27430  0.84030  Biso   1.000  C
  C56      1.0000 0.50290  0.22570  0.34030  Biso   1.000  C
  H37      1.0000 0.93450  0.68010  0.17640  Biso   1.000  H
  H38      1.0000 0.43450  0.81990  0.67640  Biso   1.000  H
  H39      1.0000 0.06550  0.31990  0.82360  Biso   1.000  H
  H40      1.0000 0.56550  0.18010  0.32360  Biso   1.000  H
  C57      1.0000 0.97480  0.82880  0.15600  Biso   1.000  C
  C58      1.0000 0.47480  0.67120  0.65600  Biso   1.000  C
  C59      1.0000 0.02520  0.17120  0.84400  Biso   1.000  C
  C60      1.0000 0.52520  0.32880  0.34400  Biso   1.000  C
  H41      1.0000 0.89570  0.85310  0.17020  Biso   1.000  H
  H42      1.0000 0.39570  0.64690  0.67020  Biso   1.000  H
  H43      1.0000 0.10430  0.14690  0.82980  Biso   1.000  H
  H44      1.0000 0.60430  0.35310  0.32980  Biso   1.000  H
  C61      1.0000 0.86520  0.13720  0.31920  Biso   1.000  C
  C62      1.0000 0.36520  0.36280  0.81920  Biso   1.000  C
  C63      1.0000 0.13480  0.86280  0.68080  Biso   1.000  C
  C64      1.0000 0.63480  0.63720  0.18080  Biso   1.000  C
  H45      1.0000 0.87600  0.20500  0.29900  Biso   1.000  H
  H46      1.0000 0.37600  0.29500  0.79900  Biso   1.000  H
  H47      1.0000 0.12400  0.79500  0.70100  Biso   1.000  H
  H48      1.0000 0.62400  0.70500  0.20100  Biso   1.000  H
  H49      1.0000 0.81400  0.14500  0.36800  Biso   1.000  H
  H50      1.0000 0.31400  0.35500  0.86800  Biso   1.000  H
  H51      1.0000 0.18600  0.85500  0.63200  Biso   1.000  H
  H52      1.0000 0.68600  0.64500  0.13200  Biso   1.000  H
