data_image0
_cell_length_a       10.5197
_cell_length_b       12.5297
_cell_length_c       13.9836
_cell_angle_alpha    101.338
_cell_angle_beta     91.457
_cell_angle_gamma    94.363

_symmetry_space_group_name_H-M    "P 1"
_symmetry_int_tables_number       1

loop_
  _symmetry_equiv_pos_as_xyz
  'x, y, z'

loop_
  _atom_site_label
  _atom_site_occupancy
  _atom_site_fract_x
  _atom_site_fract_y
  _atom_site_fract_z
  _atom_site_thermal_displace_type
  _atom_site_B_iso_or_equiv
  _atom_site_type_symbol
  Cu1      1.0000 0.15783  0.59713  0.99677  Biso   1.000  Cu
  Cu2      1.0000 0.84217  0.40287  0.00323  Biso   1.000  Cu
  V1       1.0000 0.56347  0.42415  0.14048  Biso   1.000  V
  V2       1.0000 0.43653  0.57585  0.85952  Biso   1.000  V
  V3       1.0000 0.59675  0.68988  0.54661  Biso   1.000  V
  V4       1.0000 0.40325  0.31012  0.45339  Biso   1.000  V
  P1       1.0000 0.31981  0.40046  0.97371  Biso   1.000  P
  P2       1.0000 0.68019  0.59954  0.02629  Biso   1.000  P
  P3       1.0000 0.61742  0.47174  0.37907  Biso   1.000  P
  P4       1.0000 0.38258  0.52826  0.62093  Biso   1.000  P
  P5       1.0000 0.56284  0.79560  0.78305  Biso   1.000  P
  P6       1.0000 0.43716  0.20440  0.21695  Biso   1.000  P
  P7       1.0000 0.15895  0.13029  0.40107  Biso   1.000  P
  P8       1.0000 0.84105  0.86971  0.59893  Biso   1.000  P
  O1       1.0000 0.19480  0.45207  0.00084  Biso   1.000  O
  O2       1.0000 0.80520  0.54793  0.99916  Biso   1.000  O
  O3       1.0000 0.41860  0.43606  0.05746  Biso   1.000  O
  O4       1.0000 0.58140  0.56394  0.94254  Biso   1.000  O
  O5       1.0000 0.36930  0.42857  0.87849  Biso   1.000  O
  O6       1.0000 0.63070  0.57143  0.12151  Biso   1.000  O
  O7       1.0000 0.61810  0.48550  0.27376  Biso   1.000  O
  O8       1.0000 0.38190  0.51450  0.72624  Biso   1.000  O
  O9       1.0000 0.54770  0.68611  0.81186  Biso   1.000  O
  O10      1.0000 0.45230  0.31389  0.18814  Biso   1.000  O
  O11      1.0000 0.48640  0.42960  0.40537  Biso   1.000  O
  O12      1.0000 0.51360  0.57040  0.59463  Biso   1.000  O
  O13      1.0000 0.69460  0.85510  0.82557  Biso   1.000  O
  O14      1.0000 0.30540  0.14490  0.17443  Biso   1.000  O
  O15      1.0000 0.55680  0.79013  0.67341  Biso   1.000  O
  O16      1.0000 0.44320  0.20987  0.32659  Biso   1.000  O
  O17      1.0000 0.66760  0.57910  0.44450  Biso   1.000  O
  O18      1.0000 0.33240  0.42090  0.55550  Biso   1.000  O
  O19      1.0000 0.50980  0.74530  0.47910  Biso   1.000  O
  O20      1.0000 0.49020  0.25470  0.52090  Biso   1.000  O
  O21      1.0000 0.23020  0.24180  0.43830  Biso   1.000  O
  O22      1.0000 0.76980  0.75820  0.56170  Biso   1.000  O
  O23      1.0000 0.22670  0.03980  0.44170  Biso   1.000  O
  O24      1.0000 0.77330  0.96020  0.55830  Biso   1.000  O
  O25      1.0000 0.14630  0.09720  0.29200  Biso   1.000  O
  O26      1.0000 0.85370  0.90280  0.70800  Biso   1.000  O
  O27      1.0000 0.33280  0.64949  0.91616  Biso   1.000  O
  O28      1.0000 0.66720  0.35051  0.08384  Biso   1.000  O
  O29      1.0000 0.26600  0.07400  0.62790  Biso   1.000  O
  O30      1.0000 0.73400  0.92600  0.37210  Biso   1.000  O
  O31      1.0000 0.51690  0.02820  0.40830  Biso   1.000  O
  O32      1.0000 0.48310  0.97180  0.59170  Biso   1.000  O
  O33      1.0000 0.74340  0.70810  0.30020  Biso   1.000  O
  O34      1.0000 0.25660  0.29190  0.69980  Biso   1.000  O
  O35      1.0000 0.96780  0.78850  0.25940  Biso   1.000  O
  O36      1.0000 0.03220  0.21150  0.74060  Biso   1.000  O
  O37      1.0000 0.90310  0.99830  0.24000  Biso   1.000  O
  O38      1.0000 0.09690  0.00170  0.76000  Biso   1.000  O
  N1       1.0000 0.05230  0.56690  0.87010  Biso   1.000  N
  N2       1.0000 0.94770  0.43310  0.12990  Biso   1.000  N
  N3       1.0000 0.09010  0.73730  0.00300  Biso   1.000  N
  N4       1.0000 0.90990  0.26270  0.99700  Biso   1.000  N
  N5       1.0000 0.23140  0.67640  0.12790  Biso   1.000  N
  N6       1.0000 0.76860  0.32360  0.87210  Biso   1.000  N
  C1       1.0000 0.03630  0.47210  0.80550  Biso   1.000  C
  C2       1.0000 0.96370  0.52790  0.19450  Biso   1.000  C
  H1       1.0000 0.07770  0.41130  0.81830  Biso   1.000  H
  H2       1.0000 0.92230  0.58870  0.18170  Biso   1.000  H
  C3       1.0000 0.96190  0.46010  0.72110  Biso   1.000  C
  C4       1.0000 0.03810  0.53990  0.27890  Biso   1.000  C
  H3       1.0000 0.95380  0.39260  0.67560  Biso   1.000  H
  H4       1.0000 0.04620  0.60740  0.32440  Biso   1.000  H
  C5       1.0000 0.89940  0.54730  0.70360  Biso   1.000  C
  C6       1.0000 0.10060  0.45270  0.29640  Biso   1.000  C
  H5       1.0000 0.84510  0.53970  0.64690  Biso   1.000  H
  H6       1.0000 0.15490  0.46030  0.35310  Biso   1.000  H
  C7       1.0000 0.91590  0.64590  0.76890  Biso   1.000  C
  C8       1.0000 0.08410  0.35410  0.23110  Biso   1.000  C
  H7       1.0000 0.87460  0.70730  0.75730  Biso   1.000  H
  H8       1.0000 0.12540  0.29270  0.24270  Biso   1.000  H
  C9       1.0000 0.99380  0.65340  0.85140  Biso   1.000  C
  C10      1.0000 0.00620  0.34660  0.14860  Biso   1.000  C
  C11      1.0000 0.02140  0.75430  0.92670  Biso   1.000  C
  C12      1.0000 0.97860  0.24570  0.07330  Biso   1.000  C
  C13      1.0000 0.98570  0.85790  0.92270  Biso   1.000  C
  C14      1.0000 0.01430  0.14210  0.07730  Biso   1.000  C
  H9       1.0000 0.93920  0.86990  0.86720  Biso   1.000  H
  H10      1.0000 0.06080  0.13010  0.13280  Biso   1.000  H
  C15      1.0000 0.01890  0.94420  0.00100  Biso   1.000  C
  C16      1.0000 0.98110  0.05580  0.99900  Biso   1.000  C
  C17      1.0000 0.08780  0.92210  0.08030  Biso   1.000  C
  C18      1.0000 0.91220  0.07790  0.91970  Biso   1.000  C
  H11      1.0000 0.10960  0.97860  0.13560  Biso   1.000  H
  H12      1.0000 0.89040  0.02140  0.86440  Biso   1.000  H
  C19      1.0000 0.12440  0.81810  0.07840  Biso   1.000  C
  C20      1.0000 0.87560  0.18190  0.92160  Biso   1.000  C
  C21      1.0000 0.20460  0.78220  0.15390  Biso   1.000  C
  C22      1.0000 0.79540  0.21780  0.84610  Biso   1.000  C
  C23      1.0000 0.24800  0.84700  0.24090  Biso   1.000  C
  C24      1.0000 0.75200  0.15300  0.75910  Biso   1.000  C
  H13      1.0000 0.22570  0.92020  0.25810  Biso   1.000  H
  H14      1.0000 0.77430  0.07980  0.74190  Biso   1.000  H
  C25      1.0000 0.32540  0.80380  0.30370  Biso   1.000  C
  C26      1.0000 0.67460  0.19620  0.69630  Biso   1.000  C
  H15      1.0000 0.35810  0.84760  0.36380  Biso   1.000  H
  H16      1.0000 0.64190  0.15240  0.63620  Biso   1.000  H
  C27      1.0000 0.35390  0.69650  0.27720  Biso   1.000  C
  C28      1.0000 0.64610  0.30350  0.72280  Biso   1.000  C
  H17      1.0000 0.40690  0.66550  0.31860  Biso   1.000  H
  H18      1.0000 0.59310  0.33450  0.68140  Biso   1.000  H
  C29      1.0000 0.30400  0.63510  0.18960  Biso   1.000  C
  C30      1.0000 0.69600  0.36490  0.81040  Biso   1.000  C
  H19      1.0000 0.32180  0.56070  0.17220  Biso   1.000  H
  H20      1.0000 0.67820  0.43930  0.82780  Biso   1.000  H
  C31      1.0000 0.28500  0.25540  0.95220  Biso   1.000  C
  C32      1.0000 0.71500  0.74460  0.04780  Biso   1.000  C
  H21      1.0000 0.26210  0.23420  0.01450  Biso   1.000  H
  H22      1.0000 0.73790  0.76580  0.98550  Biso   1.000  H
  H23      1.0000 0.20990  0.23520  0.90640  Biso   1.000  H
  H24      1.0000 0.79010  0.76480  0.09360  Biso   1.000  H
  C33      1.0000 0.44270  0.87860  0.84010  Biso   1.000  C
  C34      1.0000 0.55730  0.12140  0.15990  Biso   1.000  C
  H25      1.0000 0.42970  0.86240  0.90580  Biso   1.000  H
  H26      1.0000 0.57030  0.13760  0.09420  Biso   1.000  H
  H27      1.0000 0.36140  0.85700  0.80150  Biso   1.000  H
  H28      1.0000 0.63860  0.14300  0.19850  Biso   1.000  H
  C35      1.0000 0.47240  0.00170  0.85070  Biso   1.000  C
  C36      1.0000 0.52760  0.99830  0.14930  Biso   1.000  C
  H29      1.0000 0.55160  0.02470  0.89170  Biso   1.000  H
  H30      1.0000 0.44840  0.97530  0.10830  Biso   1.000  H
  H31      1.0000 0.48770  0.01860  0.78540  Biso   1.000  H
  H32      1.0000 0.51230  0.98140  0.21460  Biso   1.000  H
  C37      1.0000 0.36440  0.06720  0.89650  Biso   1.000  C
  C38      1.0000 0.63560  0.93280  0.10350  Biso   1.000  C
  H33      1.0000 0.34710  0.04860  0.96080  Biso   1.000  H
  H34      1.0000 0.65290  0.95140  0.03920  Biso   1.000  H
  H35      1.0000 0.28590  0.04610  0.85440  Biso   1.000  H
  H36      1.0000 0.71410  0.95390  0.14560  Biso   1.000  H
  C39      1.0000 0.39620  0.19010  0.91000  Biso   1.000  C
  C40      1.0000 0.60380  0.80990  0.09000  Biso   1.000  C
  H37      1.0000 0.47250  0.21180  0.95450  Biso   1.000  H
  H38      1.0000 0.52750  0.78820  0.04550  Biso   1.000  H
  H39      1.0000 0.41700  0.20850  0.84620  Biso   1.000  H
  H40      1.0000 0.58300  0.79150  0.15380  Biso   1.000  H
  C41      1.0000 0.94740  0.24050  0.44430  Biso   1.000  C
  C42      1.0000 0.05260  0.75950  0.55570  Biso   1.000  C
  H41      1.0000 0.00850  0.30340  0.47300  Biso   1.000  H
  H42      1.0000 0.99150  0.69660  0.52700  Biso   1.000  H
  H43      1.0000 0.93280  0.24220  0.37440  Biso   1.000  H
  H44      1.0000 0.06720  0.75780  0.62560  Biso   1.000  H
  C43      1.0000 0.82420  0.25230  0.49440  Biso   1.000  C
  C44      1.0000 0.17580  0.74770  0.50560  Biso   1.000  C
  H45      1.0000 0.83770  0.24900  0.56400  Biso   1.000  H
  H46      1.0000 0.16230  0.75100  0.43600  Biso   1.000  H
  H47      1.0000 0.76160  0.19120  0.46430  Biso   1.000  H
  H48      1.0000 0.23840  0.80880  0.53570  Biso   1.000  H
  C45      1.0000 0.77180  0.36010  0.48660  Biso   1.000  C
  C46      1.0000 0.22820  0.63990  0.51340  Biso   1.000  C
  H49      1.0000 0.69480  0.36920  0.52570  Biso   1.000  H
  H50      1.0000 0.30520  0.63080  0.47430  Biso   1.000  H
  H51      1.0000 0.83620  0.42070  0.51450  Biso   1.000  H
  H52      1.0000 0.16380  0.57930  0.48550  Biso   1.000  H
  C47      1.0000 0.73760  0.36730  0.38210  Biso   1.000  C
  C48      1.0000 0.26240  0.63270  0.61790  Biso   1.000  C
  H53      1.0000 0.70140  0.29490  0.34590  Biso   1.000  H
  H54      1.0000 0.29860  0.70510  0.65410  Biso   1.000  H
  H55      1.0000 0.81560  0.38820  0.34960  Biso   1.000  H
  H56      1.0000 0.18440  0.61180  0.65040  Biso   1.000  H
  C49      1.0000 0.91490  0.19930  0.39990  Biso   1.000  C
  C50      1.0000 0.08510  0.80070  0.60010  Biso   1.000  C
  H57      1.0000 0.93040  0.18340  0.32910  Biso   1.000  H
  H58      1.0000 0.06960  0.81660  0.67090  Biso   1.000  H
  H59      1.0000 0.82550  0.17320  0.40840  Biso   1.000  H
  H60      1.0000 0.17450  0.82680  0.59160  Biso   1.000  H
  C51      1.0000 0.93260  0.32310  0.43770  Biso   1.000  C
  C52      1.0000 0.06740  0.67690  0.56230  Biso   1.000  C
  H61      1.0000 0.91920  0.33630  0.50870  Biso   1.000  H
  H62      1.0000 0.08080  0.66370  0.49130  Biso   1.000  H
  H63      1.0000 0.02300  0.34650  0.42970  Biso   1.000  H
  H64      1.0000 0.97700  0.65350  0.57030  Biso   1.000  H
  C53      1.0000 0.85130  0.39970  0.39460  Biso   1.000  C
  C54      1.0000 0.14870  0.60030  0.60540  Biso   1.000  C
  H65      1.0000 0.87890  0.47640  0.42540  Biso   1.000  H
  H66      1.0000 0.12110  0.52360  0.57460  Biso   1.000  H
  H67      1.0000 0.86470  0.39050  0.32370  Biso   1.000  H
  H68      1.0000 0.13530  0.60950  0.67630  Biso   1.000  H
  C55      1.0000 0.71010  0.37680  0.41070  Biso   1.000  C
  C56      1.0000 0.28990  0.62320  0.58930  Biso   1.000  C
  H69      1.0000 0.69900  0.37460  0.48040  Biso   1.000  H
  H70      1.0000 0.30100  0.62540  0.51960  Biso   1.000  H
  H71      1.0000 0.68020  0.30390  0.37180  Biso   1.000  H
  H72      1.0000 0.31980  0.69610  0.62820  Biso   1.000  H
  C57      1.0000 0.00550  0.13550  0.45280  Biso   1.000  C
  C58      1.0000 0.99450  0.86450  0.54720  Biso   1.000  C
  H73      1.0000 0.94840  0.07230  0.41860  Biso   1.000  H
  H74      1.0000 0.05160  0.92770  0.58140  Biso   1.000  H
  H75      1.0000 0.01370  0.13060  0.52240  Biso   1.000  H
  H76      1.0000 0.98630  0.86940  0.47760  Biso   1.000  H
