data_image0
_cell_length_a       9.7232
_cell_length_b       10.6767
_cell_length_c       10.9724
_cell_angle_alpha    87.833
_cell_angle_beta     65.826
_cell_angle_gamma    81.89

_symmetry_space_group_name_H-M    "P 1"
_symmetry_int_tables_number       1

loop_
  _symmetry_equiv_pos_as_xyz
  'x, y, z'

loop_
  _atom_site_label
  _atom_site_occupancy
  _atom_site_fract_x
  _atom_site_fract_y
  _atom_site_fract_z
  _atom_site_thermal_displace_type
  _atom_site_B_iso_or_equiv
  _atom_site_type_symbol
  Cu1      1.0000 0.32370  0.07040  0.22089  Biso   1.000  Cu
  Cu2      1.0000 0.67630  0.92960  0.77911  Biso   1.000  Cu
  V1       1.0000 0.44433  0.29094  0.64315  Biso   1.000  V
  V2       1.0000 0.55567  0.70906  0.35685  Biso   1.000  V
  P1       1.0000 0.45682  0.20004  0.91529  Biso   1.000  P
  P2       1.0000 0.54318  0.79996  0.08471  Biso   1.000  P
  O1       1.0000 0.33064  0.17493  0.04629  Biso   1.000  O
  O2       1.0000 0.66936  0.82507  0.95371  Biso   1.000  O
  O3       1.0000 0.58128  0.09156  0.85231  Biso   1.000  O
  O4       1.0000 0.41872  0.90844  0.14769  Biso   1.000  O
  O5       1.0000 0.37870  0.24553  0.81812  Biso   1.000  O
  O6       1.0000 0.62130  0.75447  0.18188  Biso   1.000  O
  O7       1.0000 0.47596  0.16032  0.54086  Biso   1.000  O
  O8       1.0000 0.52404  0.83968  0.45914  Biso   1.000  O
  H1       1.0000 0.45500  0.09770  0.58680  Biso   1.000  H
  H2       1.0000 0.54500  0.90230  0.41320  Biso   1.000  H
  O9       1.0000 0.30858  0.40239  0.63150  Biso   1.000  O
  O10      1.0000 0.69142  0.59761  0.36850  Biso   1.000  O
  O11      1.0000 0.60273  0.35015  0.59943  Biso   1.000  O
  O12      1.0000 0.39727  0.64985  0.40057  Biso   1.000  O
  O13      1.0000 0.93860  0.66408  0.92204  Biso   1.000  O
  O14      1.0000 0.06140  0.33592  0.07796  Biso   1.000  O
  O15      1.0000 0.99160  0.59258  0.15780  Biso   1.000  O
  O16      1.0000 0.00840  0.40742  0.84220  Biso   1.000  O
  N1       1.0000 0.10794  0.02429  0.28654  Biso   1.000  N
  N2       1.0000 0.89206  0.97571  0.71346  Biso   1.000  N
  N3       1.0000 0.20854  0.21550  0.33604  Biso   1.000  N
  N4       1.0000 0.79146  0.78450  0.66396  Biso   1.000  N
  N5       1.0000 0.49709  0.15439  0.22661  Biso   1.000  N
  N6       1.0000 0.50291  0.84561  0.77339  Biso   1.000  N
  C1       1.0000 0.06830  0.91570  0.26180  Biso   1.000  C
  C2       1.0000 0.93170  0.08430  0.73820  Biso   1.000  C
  H3       1.0000 0.14350  0.85430  0.20640  Biso   1.000  H
  H4       1.0000 0.85650  0.14570  0.79360  Biso   1.000  H
  C3       1.0000 0.91760  0.89229  0.31680  Biso   1.000  C
  C4       1.0000 0.08240  0.10771  0.68320  Biso   1.000  C
  H5       1.0000 0.89280  0.81620  0.29860  Biso   1.000  H
  H6       1.0000 0.10720  0.18380  0.70140  Biso   1.000  H
  C5       1.0000 0.80520  0.98371  0.39880  Biso   1.000  C
  C6       1.0000 0.19480  0.01629  0.60120  Biso   1.000  C
  H7       1.0000 0.70390  0.97000  0.43620  Biso   1.000  H
  H8       1.0000 0.29610  0.03000  0.56380  Biso   1.000  H
  C7       1.0000 0.84590  0.09641  0.42450  Biso   1.000  C
  C8       1.0000 0.15410  0.90359  0.57550  Biso   1.000  C
  H9       1.0000 0.77240  0.15890  0.47980  Biso   1.000  H
  H10      1.0000 0.22760  0.84110  0.52020  Biso   1.000  H
  C9       1.0000 0.99800  0.11403  0.36616  Biso   1.000  C
  C10      1.0000 0.00200  0.88597  0.63384  Biso   1.000  C
  C11      1.0000 0.05600  0.22873  0.38773  Biso   1.000  C
  C12      1.0000 0.94400  0.77127  0.61227  Biso   1.000  C
  C13      1.0000 0.96970  0.34030  0.45327  Biso   1.000  C
  C14      1.0000 0.03030  0.65970  0.54673  Biso   1.000  C
  H11      1.0000 0.86400  0.34930  0.48840  Biso   1.000  H
  H12      1.0000 0.13600  0.65070  0.51160  Biso   1.000  H
  C15      1.0000 0.04450  0.43937  0.46576  Biso   1.000  C
  C16      1.0000 0.95550  0.56063  0.53424  Biso   1.000  C
  C17      1.0000 0.20400  0.42094  0.41251  Biso   1.000  C
  C18      1.0000 0.79600  0.57906  0.58749  Biso   1.000  C
  H13      1.0000 0.25650  0.48460  0.41990  Biso   1.000  H
  H14      1.0000 0.74350  0.51540  0.58010  Biso   1.000  H
  C19      1.0000 0.28290  0.30646  0.34849  Biso   1.000  C
  C20      1.0000 0.71710  0.69354  0.65151  Biso   1.000  C
  C21      1.0000 0.45070  0.27089  0.28646  Biso   1.000  C
  C22      1.0000 0.54930  0.72911  0.71354  Biso   1.000  C
  C23      1.0000 0.55320  0.34819  0.28897  Biso   1.000  C
  C24      1.0000 0.44680  0.65181  0.71103  Biso   1.000  C
  H15      1.0000 0.51880  0.42700  0.33200  Biso   1.000  H
  H16      1.0000 0.48120  0.57300  0.66800  Biso   1.000  H
  C25      1.0000 0.70810  0.30532  0.22590  Biso   1.000  C
  C26      1.0000 0.29190  0.69468  0.77410  Biso   1.000  C
  H17      1.0000 0.77910  0.35550  0.22540  Biso   1.000  H
  H18      1.0000 0.22090  0.64450  0.77460  Biso   1.000  H
  C27      1.0000 0.75540  0.18647  0.16360  Biso   1.000  C
  C28      1.0000 0.24460  0.81353  0.83640  Biso   1.000  C
  H19      1.0000 0.85850  0.15600  0.12090  Biso   1.000  H
  H20      1.0000 0.14150  0.84400  0.87910  Biso   1.000  H
  C29      1.0000 0.64650  0.11395  0.16610  Biso   1.000  C
  C30      1.0000 0.35350  0.88605  0.83390  Biso   1.000  C
  H21      1.0000 0.67840  0.03450  0.12430  Biso   1.000  H
  H22      1.0000 0.32160  0.96550  0.87570  Biso   1.000  H
  C31      1.0000 0.55320  0.32738  0.92983  Biso   1.000  C
  C32      1.0000 0.44680  0.67262  0.07017  Biso   1.000  C
  H23      1.0000 0.61220  0.29790  0.98090  Biso   1.000  H
  H24      1.0000 0.38780  0.70210  0.01910  Biso   1.000  H
  H25      1.0000 0.62450  0.34610  0.84100  Biso   1.000  H
  H26      1.0000 0.37550  0.65390  0.15900  Biso   1.000  H
  C33      1.0000 0.45250  0.45036  0.99503  Biso   1.000  C
  C34      1.0000 0.54750  0.54964  0.00497  Biso   1.000  C
  H27      1.0000 0.37970  0.43340  0.08380  Biso   1.000  H
  H28      1.0000 0.62030  0.56660  0.91620  Biso   1.000  H
  H29      1.0000 0.39600  0.48340  0.94280  Biso   1.000  H
  H30      1.0000 0.60400  0.51660  0.05720  Biso   1.000  H
