data_image0
_cell_length_a       9.0548
_cell_length_b       15.4425
_cell_length_c       17.3746
_cell_angle_alpha    96.116
_cell_angle_beta     98.686
_cell_angle_gamma    95.396

_symmetry_space_group_name_H-M    "P 1"
_symmetry_int_tables_number       1

loop_
  _symmetry_equiv_pos_as_xyz
  'x, y, z'

loop_
  _atom_site_label
  _atom_site_occupancy
  _atom_site_fract_x
  _atom_site_fract_y
  _atom_site_fract_z
  _atom_site_thermal_displace_type
  _atom_site_B_iso_or_equiv
  _atom_site_type_symbol
  Cu1      1.0000 0.09406  0.63743  0.46340  Biso   1.000  Cu
  Cu2      1.0000 0.90594  0.36257  0.53660  Biso   1.000  Cu
  Cu3      1.0000 0.41692  0.35005  0.99770  Biso   1.000  Cu
  Cu4      1.0000 0.58308  0.64995  0.00230  Biso   1.000  Cu
  V1       1.0000 0.42749  0.78575  0.43077  Biso   1.000  V
  V2       1.0000 0.57251  0.21425  0.56923  Biso   1.000  V
  V3       1.0000 0.11908  0.27159  0.11666  Biso   1.000  V
  V4       1.0000 0.88092  0.72841  0.88334  Biso   1.000  V
  P1       1.0000 0.09773  0.73581  0.31847  Biso   1.000  P
  P2       1.0000 0.90227  0.26419  0.68153  Biso   1.000  P
  P3       1.0000 0.64433  0.20635  0.42332  Biso   1.000  P
  P4       1.0000 0.35567  0.79365  0.57668  Biso   1.000  P
  P5       1.0000 0.48185  0.29284  0.16232  Biso   1.000  P
  P6       1.0000 0.51815  0.70716  0.83768  Biso   1.000  P
  P7       1.0000 0.91535  0.78087  0.03708  Biso   1.000  P
  P8       1.0000 0.08465  0.21913  0.96292  Biso   1.000  P
  O1       1.0000 0.01310  0.68123  0.36915  Biso   1.000  O
  O2       1.0000 0.98690  0.31877  0.63085  Biso   1.000  O
  O3       1.0000 0.06060  0.68986  0.23267  Biso   1.000  O
  O4       1.0000 0.93940  0.31014  0.76733  Biso   1.000  O
  H1       1.0000 0.01760  0.72330  0.20370  Biso   1.000  H
  H2       1.0000 0.98240  0.27670  0.79630  Biso   1.000  H
  O5       1.0000 0.26750  0.74155  0.34248  Biso   1.000  O
  O6       1.0000 0.73250  0.25845  0.65752  Biso   1.000  O
  O7       1.0000 0.54940  0.71848  0.41357  Biso   1.000  O
  O8       1.0000 0.45060  0.28152  0.58643  Biso   1.000  O
  O9       1.0000 0.47570  0.87759  0.39828  Biso   1.000  O
  O10      1.0000 0.52430  0.12241  0.60172  Biso   1.000  O
  O11      1.0000 0.50270  0.16937  0.45413  Biso   1.000  O
  O12      1.0000 0.49730  0.83063  0.54587  Biso   1.000  O
  O13      1.0000 0.62080  0.26805  0.36340  Biso   1.000  O
  O14      1.0000 0.37920  0.73195  0.63660  Biso   1.000  O
  O15      1.0000 0.73600  0.24958  0.50432  Biso   1.000  O
  O16      1.0000 0.26400  0.75042  0.49568  Biso   1.000  O
  O17      1.0000 0.53770  0.32989  0.09279  Biso   1.000  O
  O18      1.0000 0.46230  0.67011  0.90721  Biso   1.000  O
  O19      1.0000 0.59450  0.33706  0.23636  Biso   1.000  O
  O20      1.0000 0.40550  0.66294  0.76364  Biso   1.000  O
  H3       1.0000 0.59820  0.30350  0.27140  Biso   1.000  H
  H4       1.0000 0.40180  0.69650  0.72860  Biso   1.000  H
  O21      1.0000 0.32400  0.31352  0.17217  Biso   1.000  O
  O22      1.0000 0.67600  0.68648  0.82783  Biso   1.000  O
  O23      1.0000 0.03690  0.35101  0.15632  Biso   1.000  O
  O24      1.0000 0.96310  0.64899  0.84368  Biso   1.000  O
  O25      1.0000 0.08860  0.18513  0.15953  Biso   1.000  O
  O26      1.0000 0.91140  0.81487  0.84047  Biso   1.000  O
  O27      1.0000 0.03070  0.75888  0.98275  Biso   1.000  O
  O28      1.0000 0.96930  0.24112  0.01725  Biso   1.000  O
  O29      1.0000 0.93120  0.74368  0.11373  Biso   1.000  O
  O30      1.0000 0.06880  0.25632  0.88627  Biso   1.000  O
  O31      1.0000 0.76780  0.74273  0.97975  Biso   1.000  O
  O32      1.0000 0.23220  0.25727  0.02025  Biso   1.000  O
  O33      1.0000 0.34630  0.02475  0.35261  Biso   1.000  O
  O34      1.0000 0.65370  0.97525  0.64739  Biso   1.000  O
  O35      1.0000 0.19740  0.01471  0.19550  Biso   1.000  O
  O36      1.0000 0.80260  0.98529  0.80450  Biso   1.000  O
  N1       1.0000 0.21270  0.54199  0.42116  Biso   1.000  N
  N2       1.0000 0.78730  0.45801  0.57884  Biso   1.000  N
  N3       1.0000 0.13600  0.57690  0.55479  Biso   1.000  N
  N4       1.0000 0.86400  0.42310  0.44521  Biso   1.000  N
  N5       1.0000 0.96790  0.69831  0.53491  Biso   1.000  N
  N6       1.0000 0.03210  0.30169  0.46509  Biso   1.000  N
  N7       1.0000 0.50370  0.26768  0.92114  Biso   1.000  N
  N8       1.0000 0.49630  0.73232  0.07886  Biso   1.000  N
  N9       1.0000 0.34140  0.39137  0.89964  Biso   1.000  N
  N10      1.0000 0.65860  0.60863  0.10036  Biso   1.000  N
  N11      1.0000 0.33390  0.46295  0.03813  Biso   1.000  N
  N12      1.0000 0.66610  0.53705  0.96187  Biso   1.000  N
  C1       1.0000 0.23960  0.52475  0.34744  Biso   1.000  C
  C2       1.0000 0.76040  0.47525  0.65256  Biso   1.000  C
  H5       1.0000 0.20100  0.55990  0.30910  Biso   1.000  H
  H6       1.0000 0.79900  0.44010  0.69090  Biso   1.000  H
  C3       1.0000 0.32120  0.45798  0.32536  Biso   1.000  C
  C4       1.0000 0.67880  0.54202  0.67464  Biso   1.000  C
  H7       1.0000 0.33640  0.44670  0.27250  Biso   1.000  H
  H8       1.0000 0.66360  0.55330  0.72750  Biso   1.000  H
  C5       1.0000 0.38060  0.40770  0.38096  Biso   1.000  C
  C6       1.0000 0.61940  0.59230  0.61904  Biso   1.000  C
  H9       1.0000 0.43930  0.36240  0.36710  Biso   1.000  H
  H10      1.0000 0.56070  0.63760  0.63290  Biso   1.000  H
  C7       1.0000 0.35350  0.42414  0.45765  Biso   1.000  C
  C8       1.0000 0.64650  0.57586  0.54235  Biso   1.000  C
  H11      1.0000 0.39330  0.39050  0.49700  Biso   1.000  H
  H12      1.0000 0.60670  0.60950  0.50300  Biso   1.000  H
  C9       1.0000 0.26700  0.49071  0.47529  Biso   1.000  C
  C10      1.0000 0.73300  0.50929  0.52471  Biso   1.000  C
  C11      1.0000 0.22230  0.51149  0.55318  Biso   1.000  C
  C12      1.0000 0.77770  0.48851  0.44682  Biso   1.000  C
  C13      1.0000 0.25960  0.46911  0.61872  Biso   1.000  C
  C14      1.0000 0.74040  0.53089  0.38128  Biso   1.000  C
  H13      1.0000 0.32100  0.42250  0.61690  Biso   1.000  H
  H14      1.0000 0.67900  0.57750  0.38310  Biso   1.000  H
  C15      1.0000 0.20510  0.49624  0.68764  Biso   1.000  C
  C16      1.0000 0.79490  0.50376  0.31236  Biso   1.000  C
  C17      1.0000 0.11330  0.56456  0.68758  Biso   1.000  C
  C18      1.0000 0.88670  0.43544  0.31242  Biso   1.000  C
  H15      1.0000 0.07210  0.58290  0.73300  Biso   1.000  H
  H16      1.0000 0.92790  0.41710  0.26700  Biso   1.000  H
  C19      1.0000 0.08360  0.60487  0.61997  Biso   1.000  C
  C20      1.0000 0.91640  0.39513  0.38003  Biso   1.000  C
  C21      1.0000 0.99340  0.67870  0.61007  Biso   1.000  C
  C22      1.0000 0.00660  0.32130  0.38993  Biso   1.000  C
  C23      1.0000 0.94180  0.72702  0.67005  Biso   1.000  C
  C24      1.0000 0.05820  0.27298  0.32995  Biso   1.000  C
  H17      1.0000 0.96170  0.71320  0.72230  Biso   1.000  H
  H18      1.0000 0.03830  0.28680  0.27770  Biso   1.000  H
  C25      1.0000 0.86010  0.79640  0.65253  Biso   1.000  C
  C26      1.0000 0.13990  0.20360  0.34747  Biso   1.000  C
  H19      1.0000 0.82310  0.83050  0.69270  Biso   1.000  H
  H20      1.0000 0.17690  0.16950  0.30730  Biso   1.000  H
  C27      1.0000 0.83340  0.81530  0.57563  Biso   1.000  C
  C28      1.0000 0.16660  0.18470  0.42437  Biso   1.000  C
  H21      1.0000 0.77790  0.86240  0.56240  Biso   1.000  H
  H22      1.0000 0.22210  0.13760  0.43760  Biso   1.000  H
  C29      1.0000 0.88900  0.76417  0.51855  Biso   1.000  C
  C30      1.0000 0.11100  0.23583  0.48145  Biso   1.000  C
  H23      1.0000 0.87000  0.77670  0.46580  Biso   1.000  H
  H24      1.0000 0.13000  0.22330  0.53420  Biso   1.000  H
  C31      1.0000 0.59430  0.20705  0.93918  Biso   1.000  C
  C32      1.0000 0.40570  0.79295  0.06082  Biso   1.000  C
  H25      1.0000 0.62760  0.20220  0.99290  Biso   1.000  H
  H26      1.0000 0.37240  0.79780  0.00710  Biso   1.000  H
  C33      1.0000 0.64210  0.15068  0.88241  Biso   1.000  C
  C34      1.0000 0.35790  0.84932  0.11759  Biso   1.000  C
  H27      1.0000 0.70510  0.10730  0.89700  Biso   1.000  H
  H28      1.0000 0.29490  0.89270  0.10300  Biso   1.000  H
  C35      1.0000 0.59580  0.15921  0.80406  Biso   1.000  C
  C36      1.0000 0.40420  0.84079  0.19594  Biso   1.000  C
  H29      1.0000 0.62690  0.12160  0.76410  Biso   1.000  H
  H30      1.0000 0.37310  0.87840  0.23590  Biso   1.000  H
  C37      1.0000 0.50350  0.22325  0.78448  Biso   1.000  C
  C38      1.0000 0.49650  0.77675  0.21552  Biso   1.000  C
  H31      1.0000 0.47100  0.23020  0.73110  Biso   1.000  H
  H32      1.0000 0.52900  0.76980  0.26890  Biso   1.000  H
  C39      1.0000 0.45950  0.27685  0.84441  Biso   1.000  C
  C40      1.0000 0.54050  0.72315  0.15559  Biso   1.000  C
  C41      1.0000 0.36820  0.35011  0.83191  Biso   1.000  C
  C42      1.0000 0.63180  0.64989  0.16809  Biso   1.000  C
  C43      1.0000 0.32140  0.38065  0.76102  Biso   1.000  C
  C44      1.0000 0.67860  0.61935  0.23898  Biso   1.000  C
  H33      1.0000 0.33920  0.35050  0.71330  Biso   1.000  H
  H34      1.0000 0.66080  0.64950  0.28670  Biso   1.000  H
  C45      1.0000 0.24760  0.45659  0.76047  Biso   1.000  C
  C46      1.0000 0.75240  0.54341  0.23953  Biso   1.000  C
  C47      1.0000 0.22200  0.49830  0.83255  Biso   1.000  C
  C48      1.0000 0.77800  0.50170  0.16745  Biso   1.000  C
  H35      1.0000 0.17280  0.55000  0.83440  Biso   1.000  H
  H36      1.0000 0.82720  0.45000  0.16560  Biso   1.000  H
  C49      1.0000 0.26950  0.46296  0.90038  Biso   1.000  C
  C50      1.0000 0.73050  0.53704  0.09962  Biso   1.000  C
  C51      1.0000 0.25670  0.50143  0.98057  Biso   1.000  C
  C52      1.0000 0.74330  0.49857  0.01943  Biso   1.000  C
  C53      1.0000 0.17840  0.57219  0.99674  Biso   1.000  C
  C54      1.0000 0.82160  0.42781  0.00326  Biso   1.000  C
  H37      1.0000 0.12610  0.59870  0.95550  Biso   1.000  H
  H38      1.0000 0.87390  0.40130  0.04450  Biso   1.000  H
  C55      1.0000 0.17790  0.60347  0.07432  Biso   1.000  C
  C56      1.0000 0.82210  0.39653  0.92568  Biso   1.000  C
  H39      1.0000 0.12200  0.65060  0.08700  Biso   1.000  H
  H40      1.0000 0.87800  0.34940  0.91300  Biso   1.000  H
  C57      1.0000 0.25910  0.56582  0.13310  Biso   1.000  C
  C58      1.0000 0.74090  0.43418  0.86690  Biso   1.000  C
  H41      1.0000 0.26220  0.58770  0.18660  Biso   1.000  H
  H42      1.0000 0.73780  0.41230  0.81340  Biso   1.000  H
  C59      1.0000 0.33580  0.49591  0.11299  Biso   1.000  C
  C60      1.0000 0.66420  0.50409  0.88701  Biso   1.000  C
  H43      1.0000 0.39180  0.47020  0.15360  Biso   1.000  H
  H44      1.0000 0.60820  0.52980  0.84640  Biso   1.000  H
  C61      1.0000 0.03840  0.84364  0.32285  Biso   1.000  C
  C62      1.0000 0.96160  0.15636  0.67715  Biso   1.000  C
  H45      1.0000 0.07730  0.87530  0.37570  Biso   1.000  H
  H46      1.0000 0.92270  0.12470  0.62430  Biso   1.000  H
  H47      1.0000 0.08430  0.87570  0.28440  Biso   1.000  H
  H48      1.0000 0.91570  0.12430  0.71560  Biso   1.000  H
  C63      1.0000 0.86780  0.84557  0.30622  Biso   1.000  C
  C64      1.0000 0.13220  0.15443  0.69378  Biso   1.000  C
  H49      1.0000 0.82060  0.80540  0.33860  Biso   1.000  H
  H50      1.0000 0.17940  0.19460  0.66140  Biso   1.000  H
  H51      1.0000 0.83130  0.82270  0.25050  Biso   1.000  H
  H52      1.0000 0.16870  0.17730  0.74950  Biso   1.000  H
  C65      1.0000 0.81440  0.93638  0.32249  Biso   1.000  C
  C66      1.0000 0.18560  0.06362  0.67751  Biso   1.000  C
  H53      1.0000 0.85290  0.97530  0.28650  Biso   1.000  H
  H54      1.0000 0.14710  0.02470  0.71350  Biso   1.000  H
  H55      1.0000 0.70320  0.93050  0.31100  Biso   1.000  H
  H56      1.0000 0.29680  0.06950  0.68900  Biso   1.000  H
  C67      1.0000 0.86610  0.97911  0.40723  Biso   1.000  C
  C68      1.0000 0.13390  0.02089  0.59277  Biso   1.000  C
  H57      1.0000 0.87080  0.93240  0.44210  Biso   1.000  H
  H58      1.0000 0.12920  0.06760  0.55790  Biso   1.000  H
  H59      1.0000 0.96910  0.00900  0.41160  Biso   1.000  H
  H60      1.0000 0.03090  0.99100  0.58840  Biso   1.000  H
  C69      1.0000 0.73770  0.11764  0.38442  Biso   1.000  C
  C70      1.0000 0.26230  0.88236  0.61558  Biso   1.000  C
  H61      1.0000 0.83570  0.14250  0.37300  Biso   1.000  H
  H62      1.0000 0.16430  0.85750  0.62700  Biso   1.000  H
  H63      1.0000 0.67680  0.09060  0.33390  Biso   1.000  H
  H64      1.0000 0.32320  0.90940  0.66610  Biso   1.000  H
  C71      1.0000 0.76590  0.04538  0.43655  Biso   1.000  C
  C72      1.0000 0.23410  0.95462  0.56345  Biso   1.000  C
  H65      1.0000 0.81300  0.07280  0.48980  Biso   1.000  H
  H66      1.0000 0.18700  0.92720  0.51020  Biso   1.000  H
  H67      1.0000 0.66790  0.01370  0.44100  Biso   1.000  H
  H68      1.0000 0.33210  0.98630  0.55900  Biso   1.000  H
  C73      1.0000 0.48880  0.17767  0.15615  Biso   1.000  C
  C74      1.0000 0.51120  0.82233  0.84385  Biso   1.000  C
  H69      1.0000 0.45130  0.15610  0.20210  Biso   1.000  H
  H70      1.0000 0.54870  0.84390  0.79790  Biso   1.000  H
  H71      1.0000 0.42020  0.14930  0.10850  Biso   1.000  H
  H72      1.0000 0.57980  0.85070  0.89150  Biso   1.000  H
  C75      1.0000 0.64630  0.14953  0.15328  Biso   1.000  C
  C76      1.0000 0.35370  0.85047  0.84672  Biso   1.000  C
  H73      1.0000 0.69490  0.18240  0.11620  Biso   1.000  H
  H74      1.0000 0.30510  0.81760  0.88380  Biso   1.000  H
  H75      1.0000 0.70860  0.16420  0.20590  Biso   1.000  H
  H76      1.0000 0.29140  0.83580  0.79410  Biso   1.000  H
  C77      1.0000 0.63960  0.05177  0.12772  Biso   1.000  C
  C78      1.0000 0.36040  0.94823  0.87228  Biso   1.000  C
  H77      1.0000 0.61010  0.01940  0.17030  Biso   1.000  H
  H78      1.0000 0.38990  0.98060  0.82970  Biso   1.000  H
  H79      1.0000 0.56060  0.03540  0.08110  Biso   1.000  H
  H80      1.0000 0.43940  0.96460  0.91890  Biso   1.000  H
  C79      1.0000 0.78680  0.02331  0.10805  Biso   1.000  C
  C80      1.0000 0.21320  0.97669  0.89195  Biso   1.000  C
  H81      1.0000 0.81490  0.05390  0.06420  Biso   1.000  H
  H82      1.0000 0.18510  0.94610  0.93580  Biso   1.000  H
  H83      1.0000 0.86670  0.04100  0.15410  Biso   1.000  H
  H84      1.0000 0.13330  0.95900  0.84590  Biso   1.000  H
  C81      1.0000 0.91680  0.89747  0.05400  Biso   1.000  C
  C82      1.0000 0.08320  0.10253  0.94600  Biso   1.000  C
  H85      1.0000 0.92360  0.92220  0.00420  Biso   1.000  H
  H86      1.0000 0.07640  0.07780  0.99580  Biso   1.000  H
  H87      1.0000 0.00740  0.92220  0.09210  Biso   1.000  H
  H88      1.0000 0.99260  0.07780  0.90790  Biso   1.000  H
  C83      1.0000 0.77760  0.92552  0.08526  Biso   1.000  C
  C84      1.0000 0.22240  0.07448  0.91474  Biso   1.000  C
  H89      1.0000 0.76430  0.89540  0.13170  Biso   1.000  H
  H90      1.0000 0.23570  0.10460  0.86830  Biso   1.000  H
  H91      1.0000 0.68810  0.90660  0.04460  Biso   1.000  H
  H92      1.0000 0.31190  0.09340  0.95540  Biso   1.000  H
