data_image0
_cell_length_a       15.298
_cell_length_b       15.298
_cell_length_c       22.517
_cell_angle_alpha    90
_cell_angle_beta     90
_cell_angle_gamma    90

_symmetry_space_group_name_H-M    "P 1"
_symmetry_int_tables_number       1

loop_
  _symmetry_equiv_pos_as_xyz
  'x, y, z'

loop_
  _atom_site_label
  _atom_site_occupancy
  _atom_site_fract_x
  _atom_site_fract_y
  _atom_site_fract_z
  _atom_site_thermal_displace_type
  _atom_site_B_iso_or_equiv
  _atom_site_type_symbol
  Cu1      1.0000 0.96010  0.01854  0.55583  Biso   1.000  Cu
  Cu2      1.0000 0.03990  0.48146  0.55583  Biso   1.000  Cu
  Cu3      1.0000 0.73146  0.21010  0.80583  Biso   1.000  Cu
  Cu4      1.0000 0.26854  0.28990  0.80583  Biso   1.000  Cu
  Cu5      1.0000 0.46010  0.51854  0.05583  Biso   1.000  Cu
  Cu6      1.0000 0.53990  0.98146  0.05583  Biso   1.000  Cu
  Cu7      1.0000 0.23146  0.71010  0.30583  Biso   1.000  Cu
  Cu8      1.0000 0.76854  0.78990  0.30583  Biso   1.000  Cu
  Cu9      1.0000 0.03990  0.98146  0.44417  Biso   1.000  Cu
  Cu10     1.0000 0.96010  0.51854  0.44417  Biso   1.000  Cu
  Cu11     1.0000 0.76854  0.28990  0.69417  Biso   1.000  Cu
  Cu12     1.0000 0.23146  0.21010  0.69417  Biso   1.000  Cu
  Cu13     1.0000 0.53990  0.48146  0.94417  Biso   1.000  Cu
  Cu14     1.0000 0.46010  0.01854  0.94417  Biso   1.000  Cu
  Cu15     1.0000 0.26854  0.78990  0.19417  Biso   1.000  Cu
  Cu16     1.0000 0.73146  0.71010  0.19417  Biso   1.000  Cu
  N1       1.0000 0.71780  0.88310  0.53290  Biso   1.000  N
  N2       1.0000 0.28220  0.61690  0.53290  Biso   1.000  N
  N3       1.0000 0.86690  0.96780  0.78290  Biso   1.000  N
  N4       1.0000 0.13310  0.53220  0.78290  Biso   1.000  N
  N5       1.0000 0.21780  0.38310  0.03290  Biso   1.000  N
  N6       1.0000 0.78220  0.11690  0.03290  Biso   1.000  N
  N7       1.0000 0.36690  0.46780  0.28290  Biso   1.000  N
  N8       1.0000 0.63310  0.03220  0.28290  Biso   1.000  N
  N9       1.0000 0.28220  0.11690  0.46710  Biso   1.000  N
  N10      1.0000 0.71780  0.38310  0.46710  Biso   1.000  N
  N11      1.0000 0.63310  0.53220  0.71710  Biso   1.000  N
  N12      1.0000 0.36690  0.96780  0.71710  Biso   1.000  N
  N13      1.0000 0.78220  0.61690  0.96710  Biso   1.000  N
  N14      1.0000 0.21780  0.88310  0.96710  Biso   1.000  N
  N15      1.0000 0.13310  0.03220  0.21710  Biso   1.000  N
  N16      1.0000 0.86690  0.46780  0.21710  Biso   1.000  N
  C1       1.0000 0.78310  0.92820  0.55430  Biso   1.000  C
  C2       1.0000 0.21690  0.57180  0.55430  Biso   1.000  C
  C3       1.0000 0.82180  0.03310  0.80430  Biso   1.000  C
  C4       1.0000 0.17820  0.46690  0.80430  Biso   1.000  C
  C5       1.0000 0.28310  0.42820  0.05430  Biso   1.000  C
  C6       1.0000 0.71690  0.07180  0.05430  Biso   1.000  C
  C7       1.0000 0.32180  0.53310  0.30430  Biso   1.000  C
  C8       1.0000 0.67820  0.96690  0.30430  Biso   1.000  C
  C9       1.0000 0.21690  0.07180  0.44570  Biso   1.000  C
  C10      1.0000 0.78310  0.42820  0.44570  Biso   1.000  C
  C11      1.0000 0.67820  0.46690  0.69570  Biso   1.000  C
  C12      1.0000 0.32180  0.03310  0.69570  Biso   1.000  C
  C13      1.0000 0.71690  0.57180  0.94570  Biso   1.000  C
  C14      1.0000 0.28310  0.92820  0.94570  Biso   1.000  C
  C15      1.0000 0.17820  0.96690  0.19570  Biso   1.000  C
  C16      1.0000 0.82180  0.53310  0.19570  Biso   1.000  C
  H1       1.0000 0.77580  0.95070  0.59230  Biso   1.000  H
  H2       1.0000 0.22420  0.54930  0.59230  Biso   1.000  H
  H3       1.0000 0.79930  0.02580  0.84230  Biso   1.000  H
  H4       1.0000 0.20070  0.47420  0.84230  Biso   1.000  H
  H5       1.0000 0.27580  0.45070  0.09230  Biso   1.000  H
  H6       1.0000 0.72420  0.04930  0.09230  Biso   1.000  H
  H7       1.0000 0.29930  0.52580  0.34230  Biso   1.000  H
  H8       1.0000 0.70070  0.97420  0.34230  Biso   1.000  H
  H9       1.0000 0.22420  0.04930  0.40770  Biso   1.000  H
  H10      1.0000 0.77580  0.45070  0.40770  Biso   1.000  H
  H11      1.0000 0.70070  0.47420  0.65770  Biso   1.000  H
  H12      1.0000 0.29930  0.02580  0.65770  Biso   1.000  H
  H13      1.0000 0.72420  0.54930  0.90770  Biso   1.000  H
  H14      1.0000 0.27580  0.95070  0.90770  Biso   1.000  H
  H15      1.0000 0.20070  0.97420  0.15770  Biso   1.000  H
  H16      1.0000 0.79930  0.52580  0.15770  Biso   1.000  H
  N17      1.0000 0.85890  0.94540  0.52780  Biso   1.000  N
  N18      1.0000 0.14110  0.55460  0.52780  Biso   1.000  N
  N19      1.0000 0.80460  0.10890  0.77780  Biso   1.000  N
  N20      1.0000 0.19540  0.39110  0.77780  Biso   1.000  N
  N21      1.0000 0.35890  0.44540  0.02780  Biso   1.000  N
  N22      1.0000 0.64110  0.05460  0.02780  Biso   1.000  N
  N23      1.0000 0.30460  0.60890  0.27780  Biso   1.000  N
  N24      1.0000 0.69540  0.89110  0.27780  Biso   1.000  N
  N25      1.0000 0.14110  0.05460  0.47220  Biso   1.000  N
  N26      1.0000 0.85890  0.44540  0.47220  Biso   1.000  N
  N27      1.0000 0.69540  0.39110  0.72220  Biso   1.000  N
  N28      1.0000 0.30460  0.10890  0.72220  Biso   1.000  N
  N29      1.0000 0.64110  0.55460  0.97220  Biso   1.000  N
  N30      1.0000 0.35890  0.94540  0.97220  Biso   1.000  N
  N31      1.0000 0.19540  0.89110  0.22220  Biso   1.000  N
  N32      1.0000 0.80460  0.60890  0.22220  Biso   1.000  N
  C17      1.0000 0.86190  0.91250  0.47190  Biso   1.000  C
  C18      1.0000 0.13810  0.58750  0.47190  Biso   1.000  C
  C19      1.0000 0.83750  0.11190  0.72190  Biso   1.000  C
  C20      1.0000 0.16250  0.38810  0.72190  Biso   1.000  C
  C21      1.0000 0.36190  0.41250  0.97190  Biso   1.000  C
  C22      1.0000 0.63810  0.08750  0.97190  Biso   1.000  C
  C23      1.0000 0.33750  0.61190  0.22190  Biso   1.000  C
  C24      1.0000 0.66250  0.88810  0.22190  Biso   1.000  C
  C25      1.0000 0.13810  0.08750  0.52810  Biso   1.000  C
  C26      1.0000 0.86190  0.41250  0.52810  Biso   1.000  C
  C27      1.0000 0.66250  0.38810  0.77810  Biso   1.000  C
  C28      1.0000 0.33750  0.11190  0.77810  Biso   1.000  C
  C29      1.0000 0.63810  0.58750  0.02810  Biso   1.000  C
  C30      1.0000 0.36190  0.91250  0.02810  Biso   1.000  C
  C31      1.0000 0.16250  0.88810  0.27810  Biso   1.000  C
  C32      1.0000 0.83750  0.61190  0.27810  Biso   1.000  C
  C33      1.0000 0.79380  0.86810  0.44200  Biso   1.000  C
  C34      1.0000 0.20620  0.63190  0.44200  Biso   1.000  C
  C35      1.0000 0.88190  0.04380  0.69200  Biso   1.000  C
  C36      1.0000 0.11810  0.45620  0.69200  Biso   1.000  C
  C37      1.0000 0.29380  0.36810  0.94200  Biso   1.000  C
  C38      1.0000 0.70620  0.13190  0.94200  Biso   1.000  C
  C39      1.0000 0.38190  0.54380  0.19200  Biso   1.000  C
  C40      1.0000 0.61810  0.95620  0.19200  Biso   1.000  C
  C41      1.0000 0.20620  0.13190  0.55800  Biso   1.000  C
  C42      1.0000 0.79380  0.36810  0.55800  Biso   1.000  C
  C43      1.0000 0.61810  0.45620  0.80800  Biso   1.000  C
  C44      1.0000 0.38190  0.04380  0.80800  Biso   1.000  C
  C45      1.0000 0.70620  0.63190  0.05800  Biso   1.000  C
  C46      1.0000 0.29380  0.86810  0.05800  Biso   1.000  C
  C47      1.0000 0.11810  0.95620  0.30800  Biso   1.000  C
  C48      1.0000 0.88190  0.54380  0.30800  Biso   1.000  C
  C49      1.0000 0.72250  0.85110  0.47290  Biso   1.000  C
  C50      1.0000 0.27750  0.64890  0.47290  Biso   1.000  C
  C51      1.0000 0.89890  0.97250  0.72290  Biso   1.000  C
  C52      1.0000 0.10110  0.52750  0.72290  Biso   1.000  C
  C53      1.0000 0.22250  0.35110  0.97290  Biso   1.000  C
  C54      1.0000 0.77750  0.14890  0.97290  Biso   1.000  C
  C55      1.0000 0.39890  0.47250  0.22290  Biso   1.000  C
  C56      1.0000 0.60110  0.02750  0.22290  Biso   1.000  C
  C57      1.0000 0.27750  0.14890  0.52710  Biso   1.000  C
  C58      1.0000 0.72250  0.35110  0.52710  Biso   1.000  C
  C59      1.0000 0.60110  0.52750  0.77710  Biso   1.000  C
  C60      1.0000 0.39890  0.97250  0.77710  Biso   1.000  C
  C61      1.0000 0.77750  0.64890  0.02710  Biso   1.000  C
  C62      1.0000 0.22250  0.85110  0.02710  Biso   1.000  C
  C63      1.0000 0.10110  0.02750  0.27710  Biso   1.000  C
  C64      1.0000 0.89890  0.47250  0.27710  Biso   1.000  C
  N33      1.0000 0.65160  0.80860  0.45030  Biso   1.000  N
  N34      1.0000 0.34840  0.69140  0.45030  Biso   1.000  N
  N35      1.0000 0.94140  0.90160  0.70030  Biso   1.000  N
  N36      1.0000 0.05860  0.59840  0.70030  Biso   1.000  N
  N37      1.0000 0.15160  0.30860  0.95030  Biso   1.000  N
  N38      1.0000 0.84840  0.19140  0.95030  Biso   1.000  N
  N39      1.0000 0.44140  0.40160  0.20030  Biso   1.000  N
  N40      1.0000 0.55860  0.09840  0.20030  Biso   1.000  N
  N41      1.0000 0.34840  0.19140  0.54970  Biso   1.000  N
  N42      1.0000 0.65160  0.30860  0.54970  Biso   1.000  N
  N43      1.0000 0.55860  0.59840  0.79970  Biso   1.000  N
  N44      1.0000 0.44140  0.90160  0.79970  Biso   1.000  N
  N45      1.0000 0.84840  0.69140  0.04970  Biso   1.000  N
  N46      1.0000 0.15160  0.80860  0.04970  Biso   1.000  N
  N47      1.0000 0.05860  0.09840  0.29970  Biso   1.000  N
  N48      1.0000 0.94140  0.40160  0.29970  Biso   1.000  N
  H17      1.0000 0.65180  0.79120  0.41400  Biso   1.000  H
  H18      1.0000 0.34820  0.70880  0.41400  Biso   1.000  H
  H19      1.0000 0.95880  0.90180  0.66400  Biso   1.000  H
  H20      1.0000 0.04120  0.59820  0.66400  Biso   1.000  H
  H21      1.0000 0.15180  0.29120  0.91400  Biso   1.000  H
  H22      1.0000 0.84820  0.20880  0.91400  Biso   1.000  H
  H23      1.0000 0.45880  0.40180  0.16400  Biso   1.000  H
  H24      1.0000 0.54120  0.09820  0.16400  Biso   1.000  H
  H25      1.0000 0.34820  0.20880  0.58600  Biso   1.000  H
  H26      1.0000 0.65180  0.29120  0.58600  Biso   1.000  H
  H27      1.0000 0.54120  0.59820  0.83600  Biso   1.000  H
  H28      1.0000 0.45880  0.90180  0.83600  Biso   1.000  H
  H29      1.0000 0.84820  0.70880  0.08600  Biso   1.000  H
  H30      1.0000 0.15180  0.79120  0.08600  Biso   1.000  H
  H31      1.0000 0.04120  0.09820  0.33600  Biso   1.000  H
  H32      1.0000 0.95880  0.40180  0.33600  Biso   1.000  H
  H33      1.0000 0.60670  0.79910  0.47230  Biso   1.000  H
  H34      1.0000 0.39330  0.70090  0.47230  Biso   1.000  H
  H35      1.0000 0.95090  0.85670  0.72230  Biso   1.000  H
  H36      1.0000 0.04910  0.64330  0.72230  Biso   1.000  H
  H37      1.0000 0.10670  0.29910  0.97230  Biso   1.000  H
  H38      1.0000 0.89330  0.20090  0.97230  Biso   1.000  H
  H39      1.0000 0.45090  0.35670  0.22230  Biso   1.000  H
  H40      1.0000 0.54910  0.14330  0.22230  Biso   1.000  H
  H41      1.0000 0.39330  0.20090  0.52770  Biso   1.000  H
  H42      1.0000 0.60670  0.29910  0.52770  Biso   1.000  H
  H43      1.0000 0.54910  0.64330  0.77770  Biso   1.000  H
  H44      1.0000 0.45090  0.85670  0.77770  Biso   1.000  H
  H45      1.0000 0.89330  0.70090  0.02770  Biso   1.000  H
  H46      1.0000 0.10670  0.79910  0.02770  Biso   1.000  H
  H47      1.0000 0.04910  0.14330  0.27770  Biso   1.000  H
  H48      1.0000 0.95090  0.35670  0.27770  Biso   1.000  H
  N49      1.0000 0.81880  0.84700  0.38660  Biso   1.000  N
  N50      1.0000 0.18120  0.65300  0.38660  Biso   1.000  N
  N51      1.0000 0.90300  0.06880  0.63660  Biso   1.000  N
  N52      1.0000 0.09700  0.43120  0.63660  Biso   1.000  N
  N53      1.0000 0.31880  0.34700  0.88660  Biso   1.000  N
  N54      1.0000 0.68120  0.15300  0.88660  Biso   1.000  N
  N55      1.0000 0.40300  0.56880  0.13660  Biso   1.000  N
  N56      1.0000 0.59700  0.93120  0.13660  Biso   1.000  N
  N57      1.0000 0.18120  0.15300  0.61340  Biso   1.000  N
  N58      1.0000 0.81880  0.34700  0.61340  Biso   1.000  N
  N59      1.0000 0.59700  0.43120  0.86340  Biso   1.000  N
  N60      1.0000 0.40300  0.06880  0.86340  Biso   1.000  N
  N61      1.0000 0.68120  0.65300  0.11340  Biso   1.000  N
  N62      1.0000 0.31880  0.84700  0.11340  Biso   1.000  N
  N63      1.0000 0.09700  0.93120  0.36340  Biso   1.000  N
  N64      1.0000 0.90300  0.56880  0.36340  Biso   1.000  N
  C65      1.0000 0.89920  0.88040  0.38370  Biso   1.000  C
  C66      1.0000 0.10080  0.61960  0.38370  Biso   1.000  C
  C67      1.0000 0.86960  0.14920  0.63370  Biso   1.000  C
  C68      1.0000 0.13040  0.35080  0.63370  Biso   1.000  C
  C69      1.0000 0.39920  0.38040  0.88370  Biso   1.000  C
  C70      1.0000 0.60080  0.11960  0.88370  Biso   1.000  C
  C71      1.0000 0.36960  0.64920  0.13370  Biso   1.000  C
  C72      1.0000 0.63040  0.85080  0.13370  Biso   1.000  C
  C73      1.0000 0.10080  0.11960  0.61630  Biso   1.000  C
  C74      1.0000 0.89920  0.38040  0.61630  Biso   1.000  C
  C75      1.0000 0.63040  0.35080  0.86630  Biso   1.000  C
  C76      1.0000 0.36960  0.14920  0.86630  Biso   1.000  C
  C77      1.0000 0.60080  0.61960  0.11630  Biso   1.000  C
  C78      1.0000 0.39920  0.88040  0.11630  Biso   1.000  C
  C79      1.0000 0.13040  0.85080  0.36630  Biso   1.000  C
  C80      1.0000 0.86960  0.64920  0.36630  Biso   1.000  C
  H49      1.0000 0.93310  0.87700  0.34950  Biso   1.000  H
  H50      1.0000 0.06690  0.62300  0.34950  Biso   1.000  H
  H51      1.0000 0.87300  0.18310  0.59950  Biso   1.000  H
  H52      1.0000 0.12700  0.31690  0.59950  Biso   1.000  H
  H53      1.0000 0.43310  0.37700  0.84950  Biso   1.000  H
  H54      1.0000 0.56690  0.12300  0.84950  Biso   1.000  H
  H55      1.0000 0.37300  0.68310  0.09950  Biso   1.000  H
  H56      1.0000 0.62700  0.81690  0.09950  Biso   1.000  H
  H57      1.0000 0.06690  0.12300  0.65050  Biso   1.000  H
  H58      1.0000 0.93310  0.37700  0.65050  Biso   1.000  H
  H59      1.0000 0.62700  0.31690  0.90050  Biso   1.000  H
  H60      1.0000 0.37300  0.18310  0.90050  Biso   1.000  H
  H61      1.0000 0.56690  0.62300  0.15050  Biso   1.000  H
  H62      1.0000 0.43310  0.87700  0.15050  Biso   1.000  H
  H63      1.0000 0.12700  0.81690  0.40050  Biso   1.000  H
  H64      1.0000 0.87300  0.68310  0.40050  Biso   1.000  H
  N65      1.0000 0.92790  0.91920  0.43340  Biso   1.000  N
  N66      1.0000 0.07210  0.58080  0.43340  Biso   1.000  N
  N67      1.0000 0.83080  0.17790  0.68340  Biso   1.000  N
  N68      1.0000 0.16920  0.32210  0.68340  Biso   1.000  N
  N69      1.0000 0.42790  0.41920  0.93340  Biso   1.000  N
  N70      1.0000 0.57210  0.08080  0.93340  Biso   1.000  N
  N71      1.0000 0.33080  0.67790  0.18340  Biso   1.000  N
  N72      1.0000 0.66920  0.82210  0.18340  Biso   1.000  N
  N73      1.0000 0.07210  0.08080  0.56660  Biso   1.000  N
  N74      1.0000 0.92790  0.41920  0.56660  Biso   1.000  N
  N75      1.0000 0.66920  0.32210  0.81660  Biso   1.000  N
  N76      1.0000 0.33080  0.17790  0.81660  Biso   1.000  N
  N77      1.0000 0.57210  0.58080  0.06660  Biso   1.000  N
  N78      1.0000 0.42790  0.91920  0.06660  Biso   1.000  N
  N79      1.0000 0.16920  0.82210  0.31660  Biso   1.000  N
  N80      1.0000 0.83080  0.67790  0.31660  Biso   1.000  N
  O1       1.0000 0.01840  0.90850  0.58190  Biso   1.000  O
  O2       1.0000 0.98160  0.59150  0.58190  Biso   1.000  O
  O3       1.0000 0.84150  0.26840  0.83190  Biso   1.000  O
  O4       1.0000 0.15850  0.23160  0.83190  Biso   1.000  O
  O5       1.0000 0.51840  0.40850  0.08190  Biso   1.000  O
  O6       1.0000 0.48160  0.09150  0.08190  Biso   1.000  O
  O7       1.0000 0.34150  0.76840  0.33190  Biso   1.000  O
  O8       1.0000 0.65850  0.73160  0.33190  Biso   1.000  O
  O9       1.0000 0.98160  0.09150  0.41810  Biso   1.000  O
  O10      1.0000 0.01840  0.40850  0.41810  Biso   1.000  O
  O11      1.0000 0.65850  0.23160  0.66810  Biso   1.000  O
  O12      1.0000 0.34150  0.26840  0.66810  Biso   1.000  O
  O13      1.0000 0.48160  0.59150  0.91810  Biso   1.000  O
  O14      1.0000 0.51840  0.90850  0.91810  Biso   1.000  O
  O15      1.0000 0.15850  0.73160  0.16810  Biso   1.000  O
  O16      1.0000 0.84150  0.76840  0.16810  Biso   1.000  O
  O17      1.0000 0.08540  0.88270  0.49660  Biso   1.000  O
  O18      1.0000 0.91460  0.61730  0.49660  Biso   1.000  O
  O19      1.0000 0.86730  0.33540  0.74660  Biso   1.000  O
  O20      1.0000 0.13270  0.16460  0.74660  Biso   1.000  O
  O21      1.0000 0.58540  0.38270  0.99660  Biso   1.000  O
  O22      1.0000 0.41460  0.11730  0.99660  Biso   1.000  O
  O23      1.0000 0.36730  0.83540  0.24660  Biso   1.000  O
  O24      1.0000 0.63270  0.66460  0.24660  Biso   1.000  O
  O25      1.0000 0.91460  0.11730  0.50340  Biso   1.000  O
  O26      1.0000 0.08540  0.38270  0.50340  Biso   1.000  O
  O27      1.0000 0.63270  0.16460  0.75340  Biso   1.000  O
  O28      1.0000 0.36730  0.33540  0.75340  Biso   1.000  O
  O29      1.0000 0.41460  0.61730  0.00340  Biso   1.000  O
  O30      1.0000 0.58540  0.88270  0.00340  Biso   1.000  O
  O31      1.0000 0.13270  0.66460  0.25340  Biso   1.000  O
  O32      1.0000 0.86730  0.83540  0.25340  Biso   1.000  O
  C81      1.0000 0.07000  0.86710  0.54990  Biso   1.000  C
  C82      1.0000 0.93000  0.63290  0.54990  Biso   1.000  C
  C83      1.0000 0.88290  0.32000  0.79990  Biso   1.000  C
  C84      1.0000 0.11710  0.18000  0.79990  Biso   1.000  C
  C85      1.0000 0.57000  0.36710  0.04990  Biso   1.000  C
  C86      1.0000 0.43000  0.13290  0.04990  Biso   1.000  C
  C87      1.0000 0.38290  0.82000  0.29990  Biso   1.000  C
  C88      1.0000 0.61710  0.68000  0.29990  Biso   1.000  C
  C89      1.0000 0.93000  0.13290  0.45010  Biso   1.000  C
  C90      1.0000 0.07000  0.36710  0.45010  Biso   1.000  C
  C91      1.0000 0.61710  0.18000  0.70010  Biso   1.000  C
  C92      1.0000 0.38290  0.32000  0.70010  Biso   1.000  C
  C93      1.0000 0.43000  0.63290  0.95010  Biso   1.000  C
  C94      1.0000 0.57000  0.86710  0.95010  Biso   1.000  C
  C95      1.0000 0.11710  0.68000  0.20010  Biso   1.000  C
  C96      1.0000 0.88290  0.82000  0.20010  Biso   1.000  C
  C97      1.0000 0.11580  0.78720  0.57520  Biso   1.000  C
  C98      1.0000 0.88420  0.71280  0.57520  Biso   1.000  C
  C99      1.0000 0.96280  0.36580  0.82520  Biso   1.000  C
  C100     1.0000 0.03720  0.13420  0.82520  Biso   1.000  C
  C101     1.0000 0.61580  0.28720  0.07520  Biso   1.000  C
  C102     1.0000 0.38420  0.21280  0.07520  Biso   1.000  C
  C103     1.0000 0.46280  0.86580  0.32520  Biso   1.000  C
  C104     1.0000 0.53720  0.63420  0.32520  Biso   1.000  C
  C105     1.0000 0.88420  0.21280  0.42480  Biso   1.000  C
  C106     1.0000 0.11580  0.28720  0.42480  Biso   1.000  C
  C107     1.0000 0.53720  0.13420  0.67480  Biso   1.000  C
  C108     1.0000 0.46280  0.36580  0.67480  Biso   1.000  C
  C109     1.0000 0.38420  0.71280  0.92480  Biso   1.000  C
  C110     1.0000 0.61580  0.78720  0.92480  Biso   1.000  C
  C111     1.0000 0.03720  0.63420  0.17480  Biso   1.000  C
  C112     1.0000 0.96280  0.86580  0.17480  Biso   1.000  C
  H65      1.0000 0.09840  0.77900  0.61580  Biso   1.000  H
  H66      1.0000 0.90160  0.72100  0.61580  Biso   1.000  H
  H67      1.0000 0.97100  0.34840  0.86580  Biso   1.000  H
  H68      1.0000 0.02900  0.15160  0.86580  Biso   1.000  H
  H69      1.0000 0.59840  0.27900  0.11580  Biso   1.000  H
  H70      1.0000 0.40160  0.22100  0.11580  Biso   1.000  H
  H71      1.0000 0.47100  0.84840  0.36580  Biso   1.000  H
  H72      1.0000 0.52900  0.65160  0.36580  Biso   1.000  H
  H73      1.0000 0.90160  0.22100  0.38420  Biso   1.000  H
  H74      1.0000 0.09840  0.27900  0.38420  Biso   1.000  H
  H75      1.0000 0.52900  0.15160  0.63420  Biso   1.000  H
  H76      1.0000 0.47100  0.34840  0.63420  Biso   1.000  H
  H77      1.0000 0.40160  0.72100  0.88420  Biso   1.000  H
  H78      1.0000 0.59840  0.77900  0.88420  Biso   1.000  H
  H79      1.0000 0.02900  0.65160  0.13420  Biso   1.000  H
  H80      1.0000 0.97100  0.84840  0.13420  Biso   1.000  H
  H81      1.0000 0.10010  0.73650  0.55250  Biso   1.000  H
  H82      1.0000 0.89990  0.76350  0.55250  Biso   1.000  H
  H83      1.0000 0.01350  0.35010  0.80250  Biso   1.000  H
  H84      1.0000 0.98650  0.14990  0.80250  Biso   1.000  H
  H85      1.0000 0.60010  0.23650  0.05250  Biso   1.000  H
  H86      1.0000 0.39990  0.26350  0.05250  Biso   1.000  H
  H87      1.0000 0.51350  0.85010  0.30250  Biso   1.000  H
  H88      1.0000 0.48650  0.64990  0.30250  Biso   1.000  H
  H89      1.0000 0.89990  0.26350  0.44750  Biso   1.000  H
  H90      1.0000 0.10010  0.23650  0.44750  Biso   1.000  H
  H91      1.0000 0.48650  0.14990  0.69750  Biso   1.000  H
  H92      1.0000 0.51350  0.35010  0.69750  Biso   1.000  H
  H93      1.0000 0.39990  0.76350  0.94750  Biso   1.000  H
  H94      1.0000 0.60010  0.73650  0.94750  Biso   1.000  H
  H95      1.0000 0.98650  0.64990  0.19750  Biso   1.000  H
  H96      1.0000 0.01350  0.85010  0.19750  Biso   1.000  H
  H97      1.0000 0.17800  0.79550  0.57340  Biso   1.000  H
  H98      1.0000 0.82200  0.70450  0.57340  Biso   1.000  H
  H99      1.0000 0.95450  0.42800  0.82340  Biso   1.000  H
  H100     1.0000 0.04550  0.07200  0.82340  Biso   1.000  H
  H101     1.0000 0.67800  0.29550  0.07340  Biso   1.000  H
  H102     1.0000 0.32200  0.20450  0.07340  Biso   1.000  H
  H103     1.0000 0.45450  0.92800  0.32340  Biso   1.000  H
  H104     1.0000 0.54550  0.57200  0.32340  Biso   1.000  H
  H105     1.0000 0.82200  0.20450  0.42660  Biso   1.000  H
  H106     1.0000 0.17800  0.29550  0.42660  Biso   1.000  H
  H107     1.0000 0.54550  0.07200  0.67660  Biso   1.000  H
  H108     1.0000 0.45450  0.42800  0.67660  Biso   1.000  H
  H109     1.0000 0.32200  0.70450  0.92660  Biso   1.000  H
  H110     1.0000 0.67800  0.79550  0.92660  Biso   1.000  H
  H111     1.0000 0.04550  0.57200  0.17660  Biso   1.000  H
  H112     1.0000 0.95450  0.92800  0.17660  Biso   1.000  H
  O33      1.0000 0.38830  0.17050  0.37940  Biso   1.000  O
  O34      1.0000 0.61170  0.32950  0.37940  Biso   1.000  O
  O35      1.0000 0.57950  0.63830  0.62940  Biso   1.000  O
  O36      1.0000 0.42050  0.86170  0.62940  Biso   1.000  O
  O37      1.0000 0.88830  0.67050  0.87940  Biso   1.000  O
  O38      1.0000 0.11170  0.82950  0.87940  Biso   1.000  O
  O39      1.0000 0.07950  0.13830  0.12940  Biso   1.000  O
  O40      1.0000 0.92050  0.36170  0.12940  Biso   1.000  O
  O41      1.0000 0.61170  0.82950  0.62060  Biso   1.000  O
  O42      1.0000 0.38830  0.67050  0.62060  Biso   1.000  O
  O43      1.0000 0.92050  0.86170  0.87060  Biso   1.000  O
  O44      1.0000 0.07950  0.63830  0.87060  Biso   1.000  O
  O45      1.0000 0.11170  0.32950  0.12060  Biso   1.000  O
  O46      1.0000 0.88830  0.17050  0.12060  Biso   1.000  O
  O47      1.0000 0.42050  0.36170  0.37060  Biso   1.000  O
  O48      1.0000 0.57950  0.13830  0.37060  Biso   1.000  O
  O49      1.0000 0.44000  0.91000  0.49860  Biso   1.000  O
  O50      1.0000 0.56000  0.59000  0.49860  Biso   1.000  O
  O51      1.0000 0.84000  0.69000  0.74860  Biso   1.000  O
  O52      1.0000 0.16000  0.81000  0.74860  Biso   1.000  O
  O53      1.0000 0.94000  0.41000  0.99860  Biso   1.000  O
  O54      1.0000 0.06000  0.09000  0.99860  Biso   1.000  O
  O55      1.0000 0.34000  0.19000  0.24860  Biso   1.000  O
  O56      1.0000 0.66000  0.31000  0.24860  Biso   1.000  O
  O57      1.0000 0.56000  0.09000  0.50140  Biso   1.000  O
  O58      1.0000 0.44000  0.41000  0.50140  Biso   1.000  O
  O59      1.0000 0.66000  0.81000  0.75140  Biso   1.000  O
  O60      1.0000 0.34000  0.69000  0.75140  Biso   1.000  O
  O61      1.0000 0.06000  0.59000  0.00140  Biso   1.000  O
  O62      1.0000 0.94000  0.91000  0.00140  Biso   1.000  O
  O63      1.0000 0.16000  0.31000  0.25140  Biso   1.000  O
  O64      1.0000 0.84000  0.19000  0.25140  Biso   1.000  O
  O65      1.0000 0.29500  0.92100  0.53500  Biso   1.000  O
  O66      1.0000 0.70500  0.57900  0.53500  Biso   1.000  O
  O67      1.0000 0.82900  0.54500  0.78500  Biso   1.000  O
  O68      1.0000 0.17100  0.95500  0.78500  Biso   1.000  O
  O69      1.0000 0.79500  0.42100  0.03500  Biso   1.000  O
  O70      1.0000 0.20500  0.07900  0.03500  Biso   1.000  O
  O71      1.0000 0.32900  0.04500  0.28500  Biso   1.000  O
  O72      1.0000 0.67100  0.45500  0.28500  Biso   1.000  O
  O73      1.0000 0.70500  0.07900  0.46500  Biso   1.000  O
  O74      1.0000 0.29500  0.42100  0.46500  Biso   1.000  O
  O75      1.0000 0.67100  0.95500  0.71500  Biso   1.000  O
  O76      1.0000 0.32900  0.54500  0.71500  Biso   1.000  O
  O77      1.0000 0.20500  0.57900  0.96500  Biso   1.000  O
  O78      1.0000 0.79500  0.92100  0.96500  Biso   1.000  O
  O79      1.0000 0.17100  0.45500  0.21500  Biso   1.000  O
  O80      1.0000 0.82900  0.04500  0.21500  Biso   1.000  O
  O81      1.0000 0.50000  0.25000  0.48140  Biso   1.000  O
  O82      1.0000 0.50000  0.75000  0.73140  Biso   1.000  O
  O83      1.0000 0.00000  0.75000  0.98140  Biso   1.000  O
  O84      1.0000 0.00000  0.25000  0.23140  Biso   1.000  O
  O85      1.0000 0.50000  0.75000  0.51860  Biso   1.000  O
  O86      1.0000 0.00000  0.75000  0.76860  Biso   1.000  O
  O87      1.0000 0.00000  0.25000  0.01860  Biso   1.000  O
  O88      1.0000 0.50000  0.25000  0.26860  Biso   1.000  O
