data_image0
_cell_length_a       11.4229
_cell_length_b       11.441
_cell_length_c       14.0936
_cell_angle_alpha    105.066
_cell_angle_beta     95.834
_cell_angle_gamma    109.95

_symmetry_space_group_name_H-M    "P 1"
_symmetry_int_tables_number       1

loop_
  _symmetry_equiv_pos_as_xyz
  'x, y, z'

loop_
  _atom_site_label
  _atom_site_occupancy
  _atom_site_fract_x
  _atom_site_fract_y
  _atom_site_fract_z
  _atom_site_thermal_displace_type
  _atom_site_B_iso_or_equiv
  _atom_site_type_symbol
  Cu1      1.0000 0.00000  0.00000  0.00000  Biso   1.000  Cu
  O1       1.0000 0.44920  0.35260  0.37660  Biso   1.000  O
  O2       1.0000 0.55080  0.64740  0.62340  Biso   1.000  O
  C1       1.0000 0.41190  0.14400  0.26800  Biso   1.000  C
  C2       1.0000 0.58810  0.85600  0.73200  Biso   1.000  C
  F1       1.0000 0.51460  0.19740  0.22090  Biso   1.000  F
  F2       1.0000 0.48540  0.80260  0.77910  Biso   1.000  F
  F3       1.0000 0.31200  0.12800  0.21520  Biso   1.000  F
  F4       1.0000 0.68800  0.87200  0.78480  Biso   1.000  F
  F5       1.0000 0.42500  0.03730  0.26550  Biso   1.000  F
  F6       1.0000 0.57500  0.96270  0.73450  Biso   1.000  F
  C3       1.0000 0.44110  0.23970  0.37440  Biso   1.000  C
  C4       1.0000 0.55890  0.76030  0.62560  Biso   1.000  C
  C5       1.0000 0.45330  0.19370  0.45380  Biso   1.000  C
  C6       1.0000 0.54670  0.80630  0.54620  Biso   1.000  C
  H1       1.0000 0.44550  0.10710  0.44080  Biso   1.000  H
  H2       1.0000 0.55450  0.89290  0.55920  Biso   1.000  H
  C7       1.0000 0.47640  0.26980  0.55150  Biso   1.000  C
  C8       1.0000 0.52360  0.73020  0.44850  Biso   1.000  C
  C9       1.0000 0.48720  0.21060  0.63650  Biso   1.000  C
  C10      1.0000 0.51280  0.78940  0.36350  Biso   1.000  C
  F7       1.0000 0.46120  0.08810  0.60530  Biso   1.000  F
  F8       1.0000 0.53880  0.91190  0.39470  Biso   1.000  F
  F9       1.0000 0.60700  0.22900  0.66200  Biso   1.000  F
  F10      1.0000 0.39300  0.77100  0.33800  Biso   1.000  F
  F11      1.0000 0.45720  0.26040  0.71290  Biso   1.000  F
  F12      1.0000 0.54280  0.73960  0.28710  Biso   1.000  F
  O3       1.0000 0.49190  0.38790  0.58340  Biso   1.000  O
  O4       1.0000 0.50810  0.61210  0.41660  Biso   1.000  O
  Cu2      1.0000 0.50000  0.50000  0.50000  Biso   1.000  Cu
  O5       1.0000 0.15380  0.06230  0.95050  Biso   1.000  O
  O6       1.0000 0.84620  0.93770  0.04950  Biso   1.000  O
  C11      1.0000 0.34660  0.07730  0.90100  Biso   1.000  C
  C12      1.0000 0.65340  0.92270  0.09900  Biso   1.000  C
  F13      1.0000 0.41200  0.19100  0.95600  Biso   1.000  F
  F14      1.0000 0.58800  0.80900  0.04400  Biso   1.000  F
  F15      1.0000 0.41800  0.02000  0.88400  Biso   1.000  F
  F16      1.0000 0.58200  0.98000  0.11600  Biso   1.000  F
  F17      1.0000 0.30200  0.08500  0.82200  Biso   1.000  F
  F18      1.0000 0.69800  0.91500  0.17800  Biso   1.000  F
  C13      1.0000 0.23720  0.01340  0.94750  Biso   1.000  C
  C14      1.0000 0.76280  0.98660  0.05250  Biso   1.000  C
  C15      1.0000 0.24190  0.91490  0.98220  Biso   1.000  C
  C16      1.0000 0.75810  0.08510  0.01780  Biso   1.000  C
  H3       1.0000 0.30830  0.88660  0.97280  Biso   1.000  H
  H4       1.0000 0.69170  0.11340  0.02720  Biso   1.000  H
  C17      1.0000 0.15190  0.85480  0.03110  Biso   1.000  C
  C18      1.0000 0.84810  0.14520  0.96890  Biso   1.000  C
  C19      1.0000 0.16390  0.74180  0.06510  Biso   1.000  C
  C20      1.0000 0.83610  0.25820  0.93490  Biso   1.000  C
  F19      1.0000 0.11800  0.72800  0.13820  Biso   1.000  F
  F20      1.0000 0.88200  0.27200  0.86180  Biso   1.000  F
  F21      1.0000 0.28140  0.74110  0.07300  Biso   1.000  F
  F22      1.0000 0.71860  0.25890  0.92700  Biso   1.000  F
  F23      1.0000 0.10200  0.63640  0.99100  Biso   1.000  F
  F24      1.0000 0.89800  0.36360  0.00900  Biso   1.000  F
  O7       1.0000 0.05770  0.88150  0.05260  Biso   1.000  O
  O8       1.0000 0.94230  0.11850  0.94740  Biso   1.000  O
  O9       1.0000 0.29050  0.50230  0.50300  Biso   1.000  O
  O10      1.0000 0.70950  0.49770  0.49700  Biso   1.000  O
  N1       1.0000 0.19010  0.41080  0.51040  Biso   1.000  N
  N2       1.0000 0.80990  0.58920  0.48960  Biso   1.000  N
  C21      1.0000 0.14400  0.41870  0.60650  Biso   1.000  C
  C22      1.0000 0.85600  0.58130  0.39350  Biso   1.000  C
  C23      1.0000 0.25150  0.46020  0.69570  Biso   1.000  C
  C24      1.0000 0.74850  0.53980  0.30430  Biso   1.000  C
  H5       1.0000 0.24710  0.38590  0.71840  Biso   1.000  H
  H6       1.0000 0.75290  0.61410  0.28160  Biso   1.000  H
  H7       1.0000 0.33300  0.49330  0.67710  Biso   1.000  H
  H8       1.0000 0.66700  0.50670  0.32290  Biso   1.000  H
  C25      1.0000 0.23870  0.55850  0.77270  Biso   1.000  C
  C26      1.0000 0.76130  0.44150  0.22730  Biso   1.000  C
  H9       1.0000 0.31910  0.63340  0.79560  Biso   1.000  H
  H10      1.0000 0.68090  0.36660  0.20440  Biso   1.000  H
  H11      1.0000 0.22070  0.52610  0.82890  Biso   1.000  H
  H12      1.0000 0.77930  0.47390  0.17110  Biso   1.000  H
  C27      1.0000 0.14030  0.60080  0.74290  Biso   1.000  C
  C28      1.0000 0.85970  0.39920  0.25710  Biso   1.000  C
  H13      1.0000 0.17250  0.69540  0.75970  Biso   1.000  H
  H14      1.0000 0.82750  0.30460  0.24030  Biso   1.000  H
  H15      1.0000 0.06940  0.57260  0.77520  Biso   1.000  H
  H16      1.0000 0.93060  0.42740  0.22480  Biso   1.000  H
  C29      1.0000 0.10030  0.53580  0.63010  Biso   1.000  C
  C30      1.0000 0.89970  0.46420  0.36990  Biso   1.000  C
  H17      1.0000 0.14040  0.59710  0.59570  Biso   1.000  H
  H18      1.0000 0.85960  0.40290  0.40430  Biso   1.000  H
  H19      1.0000 0.00860  0.50510  0.60870  Biso   1.000  H
  H20      1.0000 0.99140  0.49490  0.39130  Biso   1.000  H
  C31      1.0000 0.03710  0.28260  0.57950  Biso   1.000  C
  C32      1.0000 0.96290  0.71740  0.42050  Biso   1.000  C
  C33      1.0000 0.90630  0.27630  0.61050  Biso   1.000  C
  C34      1.0000 0.09370  0.72370  0.38950  Biso   1.000  C
  H21      1.0000 0.92020  0.34120  0.67490  Biso   1.000  H
  H22      1.0000 0.07980  0.65880  0.32510  Biso   1.000  H
  H23      1.0000 0.85240  0.29010  0.56030  Biso   1.000  H
  H24      1.0000 0.14760  0.70990  0.43970  Biso   1.000  H
  C35      1.0000 0.84820  0.13880  0.61650  Biso   1.000  C
  C36      1.0000 0.15180  0.86120  0.38350  Biso   1.000  C
  H25      1.0000 0.80430  0.07590  0.55070  Biso   1.000  H
  H26      1.0000 0.19570  0.92410  0.44930  Biso   1.000  H
  H27      1.0000 0.78910  0.13330  0.66150  Biso   1.000  H
  H28      1.0000 0.21090  0.86670  0.33850  Biso   1.000  H
  C37      1.0000 0.97420  0.11490  0.66110  Biso   1.000  C
  C38      1.0000 0.02580  0.88510  0.33890  Biso   1.000  C
  H29      1.0000 0.99840  0.15280  0.73370  Biso   1.000  H
  H30      1.0000 0.00160  0.84720  0.26630  Biso   1.000  H
  H31      1.0000 0.95790  0.02220  0.64320  Biso   1.000  H
  H32      1.0000 0.04210  0.97780  0.35680  Biso   1.000  H
  C39      1.0000 0.07230  0.18060  0.61420  Biso   1.000  C
  C40      1.0000 0.92770  0.81940  0.38580  Biso   1.000  C
  H33      1.0000 0.08050  0.11720  0.55710  Biso   1.000  H
  H34      1.0000 0.91950  0.88280  0.44290  Biso   1.000  H
  H35      1.0000 0.15340  0.22310  0.66180  Biso   1.000  H
  H36      1.0000 0.84660  0.77690  0.33820  Biso   1.000  H
  N3       1.0000 0.01510  0.23880  0.46790  Biso   1.000  N
  N4       1.0000 0.98490  0.76120  0.53210  Biso   1.000  N
  C41      1.0000 0.10860  0.31090  0.43310  Biso   1.000  C
  C42      1.0000 0.89140  0.68910  0.56690  Biso   1.000  C
  O11      1.0000 0.91970  0.13690  0.41360  Biso   1.000  O
  O12      1.0000 0.08030  0.86310  0.58640  Biso   1.000  O
  C43      1.0000 0.11800  0.28680  0.32920  Biso   1.000  C
  C44      1.0000 0.88200  0.71320  0.67080  Biso   1.000  C
  C45      1.0000 0.04770  0.17530  0.24700  Biso   1.000  C
  C46      1.0000 0.95230  0.82470  0.75300  Biso   1.000  C
  H37      1.0000 0.98510  0.10080  0.25170  Biso   1.000  H
  H38      1.0000 0.01490  0.89920  0.74830  Biso   1.000  H
  N5       1.0000 0.08050  0.18840  0.16190  Biso   1.000  N
  N6       1.0000 0.91950  0.81160  0.83810  Biso   1.000  N
  N7       1.0000 0.17340  0.30920  0.18980  Biso   1.000  N
  N8       1.0000 0.82660  0.69080  0.81020  Biso   1.000  N
  C47      1.0000 0.22770  0.36220  0.11120  Biso   1.000  C
  C48      1.0000 0.77230  0.63780  0.88880  Biso   1.000  C
  H39      1.0000 0.21420  0.28840  0.05260  Biso   1.000  H
  H40      1.0000 0.78580  0.71160  0.94740  Biso   1.000  H
  H41      1.0000 0.17880  0.41000  0.09200  Biso   1.000  H
  H42      1.0000 0.82120  0.59000  0.90800  Biso   1.000  H
  C49      1.0000 0.34240  0.43520  0.13160  Biso   1.000  C
  C50      1.0000 0.65760  0.56480  0.86840  Biso   1.000  C
  H43      1.0000 0.36450  0.46200  0.07460  Biso   1.000  H
  H44      1.0000 0.63550  0.53800  0.92540  Biso   1.000  H
  H45      1.0000 0.35780  0.51110  0.18780  Biso   1.000  H
  H46      1.0000 0.64220  0.48890  0.81220  Biso   1.000  H
  H47      1.0000 0.39330  0.38890  0.14830  Biso   1.000  H
  H48      1.0000 0.60670  0.61110  0.85170  Biso   1.000  H
  C51      1.0000 0.19830  0.37050  0.28850  Biso   1.000  C
  C52      1.0000 0.80170  0.62950  0.71150  Biso   1.000  C
  H49      1.0000 0.25850  0.45410  0.32300  Biso   1.000  H
  H50      1.0000 0.74150  0.54590  0.67700  Biso   1.000  H
  F25      1.0000 0.46800  0.06800  0.25920  Biso   1.000  F
  F26      1.0000 0.53200  0.93200  0.74080  Biso   1.000  F
  F27      1.0000 0.42620  0.19370  0.20130  Biso   1.000  F
  F28      1.0000 0.57380  0.80630  0.79870  Biso   1.000  F
  F29      1.0000 0.28560  0.06630  0.24720  Biso   1.000  F
  F30      1.0000 0.71440  0.93370  0.75280  Biso   1.000  F
  F31      1.0000 0.59500  0.28000  0.70060  Biso   1.000  F
  F32      1.0000 0.40500  0.72000  0.29940  Biso   1.000  F
  F33      1.0000 0.38500  0.19800  0.67500  Biso   1.000  F
  F34      1.0000 0.61500  0.80200  0.32500  Biso   1.000  F
  F35      1.0000 0.35900  0.20200  0.90000  Biso   1.000  F
  F36      1.0000 0.64100  0.79800  0.10000  Biso   1.000  F
  F37      1.0000 0.45020  0.06800  0.93200  Biso   1.000  F
  F38      1.0000 0.54980  0.93200  0.06800  Biso   1.000  F
  F39      1.0000 0.31360  0.01440  0.79850  Biso   1.000  F
  F40      1.0000 0.68640  0.98560  0.20150  Biso   1.000  F
  F41      1.0000 0.06200  0.67400  0.08800  Biso   1.000  F
  F42      1.0000 0.93800  0.32600  0.91200  Biso   1.000  F
  F43      1.0000 0.24700  0.77900  0.14140  Biso   1.000  F
  F44      1.0000 0.75300  0.22100  0.85860  Biso   1.000  F
  F45      1.0000 0.18500  0.65600  0.99900  Biso   1.000  F
  F46      1.0000 0.81500  0.34400  0.00100  Biso   1.000  F
