data_image0
_cell_length_a       15.348
_cell_length_b       15.348
_cell_length_c       22.702
_cell_angle_alpha    90
_cell_angle_beta     90
_cell_angle_gamma    90

_symmetry_space_group_name_H-M    "P 1"
_symmetry_int_tables_number       1

loop_
  _symmetry_equiv_pos_as_xyz
  'x, y, z'

loop_
  _atom_site_label
  _atom_site_occupancy
  _atom_site_fract_x
  _atom_site_fract_y
  _atom_site_fract_z
  _atom_site_thermal_displace_type
  _atom_site_B_iso_or_equiv
  _atom_site_type_symbol
  Cu1      1.0000 0.96224  0.01813  0.55612  Biso   1.000  Cu
  Cu2      1.0000 0.03776  0.48187  0.55612  Biso   1.000  Cu
  Cu3      1.0000 0.73187  0.21224  0.80612  Biso   1.000  Cu
  Cu4      1.0000 0.26813  0.28776  0.80612  Biso   1.000  Cu
  Cu5      1.0000 0.46224  0.51813  0.05612  Biso   1.000  Cu
  Cu6      1.0000 0.53776  0.98187  0.05612  Biso   1.000  Cu
  Cu7      1.0000 0.23187  0.71224  0.30612  Biso   1.000  Cu
  Cu8      1.0000 0.76813  0.78776  0.30612  Biso   1.000  Cu
  Cu9      1.0000 0.03776  0.98187  0.44388  Biso   1.000  Cu
  Cu10     1.0000 0.96224  0.51813  0.44388  Biso   1.000  Cu
  Cu11     1.0000 0.76813  0.28776  0.69388  Biso   1.000  Cu
  Cu12     1.0000 0.23187  0.21224  0.69388  Biso   1.000  Cu
  Cu13     1.0000 0.53776  0.48187  0.94388  Biso   1.000  Cu
  Cu14     1.0000 0.46224  0.01813  0.94388  Biso   1.000  Cu
  Cu15     1.0000 0.26813  0.78776  0.19388  Biso   1.000  Cu
  Cu16     1.0000 0.73187  0.71224  0.19388  Biso   1.000  Cu
  N1       1.0000 0.72230  0.88340  0.53410  Biso   1.000  N
  N2       1.0000 0.27770  0.61660  0.53410  Biso   1.000  N
  N3       1.0000 0.86660  0.97230  0.78410  Biso   1.000  N
  N4       1.0000 0.13340  0.52770  0.78410  Biso   1.000  N
  N5       1.0000 0.22230  0.38340  0.03410  Biso   1.000  N
  N6       1.0000 0.77770  0.11660  0.03410  Biso   1.000  N
  N7       1.0000 0.36660  0.47230  0.28410  Biso   1.000  N
  N8       1.0000 0.63340  0.02770  0.28410  Biso   1.000  N
  N9       1.0000 0.27770  0.11660  0.46590  Biso   1.000  N
  N10      1.0000 0.72230  0.38340  0.46590  Biso   1.000  N
  N11      1.0000 0.63340  0.52770  0.71590  Biso   1.000  N
  N12      1.0000 0.36660  0.97230  0.71590  Biso   1.000  N
  N13      1.0000 0.77770  0.61660  0.96590  Biso   1.000  N
  N14      1.0000 0.22230  0.88340  0.96590  Biso   1.000  N
  N15      1.0000 0.13340  0.02770  0.21590  Biso   1.000  N
  N16      1.0000 0.86660  0.47230  0.21590  Biso   1.000  N
  C1       1.0000 0.78850  0.92980  0.55620  Biso   1.000  C
  C2       1.0000 0.21150  0.57020  0.55620  Biso   1.000  C
  C3       1.0000 0.82020  0.03850  0.80620  Biso   1.000  C
  C4       1.0000 0.17980  0.46150  0.80620  Biso   1.000  C
  C5       1.0000 0.28850  0.42980  0.05620  Biso   1.000  C
  C6       1.0000 0.71150  0.07020  0.05620  Biso   1.000  C
  C7       1.0000 0.32020  0.53850  0.30620  Biso   1.000  C
  C8       1.0000 0.67980  0.96150  0.30620  Biso   1.000  C
  C9       1.0000 0.21150  0.07020  0.44380  Biso   1.000  C
  C10      1.0000 0.78850  0.42980  0.44380  Biso   1.000  C
  C11      1.0000 0.67980  0.46150  0.69380  Biso   1.000  C
  C12      1.0000 0.32020  0.03850  0.69380  Biso   1.000  C
  C13      1.0000 0.71150  0.57020  0.94380  Biso   1.000  C
  C14      1.0000 0.28850  0.92980  0.94380  Biso   1.000  C
  C15      1.0000 0.17980  0.96150  0.19380  Biso   1.000  C
  C16      1.0000 0.82020  0.53850  0.19380  Biso   1.000  C
  H1       1.0000 0.78250  0.95120  0.59430  Biso   1.000  H
  H2       1.0000 0.21750  0.54880  0.59430  Biso   1.000  H
  H3       1.0000 0.79880  0.03250  0.84430  Biso   1.000  H
  H4       1.0000 0.20120  0.46750  0.84430  Biso   1.000  H
  H5       1.0000 0.28250  0.45120  0.09430  Biso   1.000  H
  H6       1.0000 0.71750  0.04880  0.09430  Biso   1.000  H
  H7       1.0000 0.29880  0.53250  0.34430  Biso   1.000  H
  H8       1.0000 0.70120  0.96750  0.34430  Biso   1.000  H
  H9       1.0000 0.21750  0.04880  0.40570  Biso   1.000  H
  H10      1.0000 0.78250  0.45120  0.40570  Biso   1.000  H
  H11      1.0000 0.70120  0.46750  0.65570  Biso   1.000  H
  H12      1.0000 0.29880  0.03250  0.65570  Biso   1.000  H
  H13      1.0000 0.71750  0.54880  0.90570  Biso   1.000  H
  H14      1.0000 0.28250  0.95120  0.90570  Biso   1.000  H
  H15      1.0000 0.20120  0.96750  0.15570  Biso   1.000  H
  H16      1.0000 0.79880  0.53250  0.15570  Biso   1.000  H
  N17      1.0000 0.86420  0.94820  0.52720  Biso   1.000  N
  N18      1.0000 0.13580  0.55180  0.52720  Biso   1.000  N
  N19      1.0000 0.80180  0.11420  0.77720  Biso   1.000  N
  N20      1.0000 0.19820  0.38580  0.77720  Biso   1.000  N
  N21      1.0000 0.36420  0.44820  0.02720  Biso   1.000  N
  N22      1.0000 0.63580  0.05180  0.02720  Biso   1.000  N
  N23      1.0000 0.30180  0.61420  0.27720  Biso   1.000  N
  N24      1.0000 0.69820  0.88580  0.27720  Biso   1.000  N
  N25      1.0000 0.13580  0.05180  0.47280  Biso   1.000  N
  N26      1.0000 0.86420  0.44820  0.47280  Biso   1.000  N
  N27      1.0000 0.69820  0.38580  0.72280  Biso   1.000  N
  N28      1.0000 0.30180  0.11420  0.72280  Biso   1.000  N
  N29      1.0000 0.63580  0.55180  0.97280  Biso   1.000  N
  N30      1.0000 0.36420  0.94820  0.97280  Biso   1.000  N
  N31      1.0000 0.19820  0.88580  0.22280  Biso   1.000  N
  N32      1.0000 0.80180  0.61420  0.22280  Biso   1.000  N
  C17      1.0000 0.86360  0.91690  0.47220  Biso   1.000  C
  C18      1.0000 0.13640  0.58310  0.47220  Biso   1.000  C
  C19      1.0000 0.83310  0.11360  0.72220  Biso   1.000  C
  C20      1.0000 0.16690  0.38640  0.72220  Biso   1.000  C
  C21      1.0000 0.36360  0.41690  0.97220  Biso   1.000  C
  C22      1.0000 0.63640  0.08310  0.97220  Biso   1.000  C
  C23      1.0000 0.33310  0.61360  0.22220  Biso   1.000  C
  C24      1.0000 0.66690  0.88640  0.22220  Biso   1.000  C
  C25      1.0000 0.13640  0.08310  0.52780  Biso   1.000  C
  C26      1.0000 0.86360  0.41690  0.52780  Biso   1.000  C
  C27      1.0000 0.66690  0.38640  0.77780  Biso   1.000  C
  C28      1.0000 0.33310  0.11360  0.77780  Biso   1.000  C
  C29      1.0000 0.63640  0.58310  0.02780  Biso   1.000  C
  C30      1.0000 0.36360  0.91690  0.02780  Biso   1.000  C
  C31      1.0000 0.16690  0.88640  0.27780  Biso   1.000  C
  C32      1.0000 0.83310  0.61360  0.27780  Biso   1.000  C
  C33      1.0000 0.79260  0.86530  0.44200  Biso   1.000  C
  C34      1.0000 0.20740  0.63470  0.44200  Biso   1.000  C
  C35      1.0000 0.88470  0.04260  0.69200  Biso   1.000  C
  C36      1.0000 0.11530  0.45740  0.69200  Biso   1.000  C
  C37      1.0000 0.29260  0.36530  0.94200  Biso   1.000  C
  C38      1.0000 0.70740  0.13470  0.94200  Biso   1.000  C
  C39      1.0000 0.38470  0.54260  0.19200  Biso   1.000  C
  C40      1.0000 0.61530  0.95740  0.19200  Biso   1.000  C
  C41      1.0000 0.20740  0.13470  0.55800  Biso   1.000  C
  C42      1.0000 0.79260  0.36530  0.55800  Biso   1.000  C
  C43      1.0000 0.61530  0.45740  0.80800  Biso   1.000  C
  C44      1.0000 0.38470  0.04260  0.80800  Biso   1.000  C
  C45      1.0000 0.70740  0.63470  0.05800  Biso   1.000  C
  C46      1.0000 0.29260  0.86530  0.05800  Biso   1.000  C
  C47      1.0000 0.11530  0.95740  0.30800  Biso   1.000  C
  C48      1.0000 0.88470  0.54260  0.30800  Biso   1.000  C
  C49      1.0000 0.72830  0.85200  0.47520  Biso   1.000  C
  C50      1.0000 0.27170  0.64800  0.47520  Biso   1.000  C
  C51      1.0000 0.89800  0.97830  0.72520  Biso   1.000  C
  C52      1.0000 0.10200  0.52170  0.72520  Biso   1.000  C
  C53      1.0000 0.22830  0.35200  0.97520  Biso   1.000  C
  C54      1.0000 0.77170  0.14800  0.97520  Biso   1.000  C
  C55      1.0000 0.39800  0.47830  0.22520  Biso   1.000  C
  C56      1.0000 0.60200  0.02170  0.22520  Biso   1.000  C
  C57      1.0000 0.27170  0.14800  0.52480  Biso   1.000  C
  C58      1.0000 0.72830  0.35200  0.52480  Biso   1.000  C
  C59      1.0000 0.60200  0.52170  0.77480  Biso   1.000  C
  C60      1.0000 0.39800  0.97830  0.77480  Biso   1.000  C
  C61      1.0000 0.77170  0.64800  0.02480  Biso   1.000  C
  C62      1.0000 0.22830  0.85200  0.02480  Biso   1.000  C
  C63      1.0000 0.10200  0.02170  0.27480  Biso   1.000  C
  C64      1.0000 0.89800  0.47830  0.27480  Biso   1.000  C
  N33      1.0000 0.65620  0.80300  0.44960  Biso   1.000  N
  N34      1.0000 0.34380  0.69700  0.44960  Biso   1.000  N
  N35      1.0000 0.94700  0.90620  0.69960  Biso   1.000  N
  N36      1.0000 0.05300  0.59380  0.69960  Biso   1.000  N
  N37      1.0000 0.15620  0.30300  0.94960  Biso   1.000  N
  N38      1.0000 0.84380  0.19700  0.94960  Biso   1.000  N
  N39      1.0000 0.44700  0.40620  0.19960  Biso   1.000  N
  N40      1.0000 0.55300  0.09380  0.19960  Biso   1.000  N
  N41      1.0000 0.34380  0.19700  0.55040  Biso   1.000  N
  N42      1.0000 0.65620  0.30300  0.55040  Biso   1.000  N
  N43      1.0000 0.55300  0.59380  0.80040  Biso   1.000  N
  N44      1.0000 0.44700  0.90620  0.80040  Biso   1.000  N
  N45      1.0000 0.84380  0.69700  0.05040  Biso   1.000  N
  N46      1.0000 0.15620  0.80300  0.05040  Biso   1.000  N
  N47      1.0000 0.05300  0.09380  0.30040  Biso   1.000  N
  N48      1.0000 0.94700  0.40620  0.30040  Biso   1.000  N
  H17      1.0000 0.65920  0.78510  0.41380  Biso   1.000  H
  H18      1.0000 0.34080  0.71490  0.41380  Biso   1.000  H
  H19      1.0000 0.96490  0.90920  0.66380  Biso   1.000  H
  H20      1.0000 0.03510  0.59080  0.66380  Biso   1.000  H
  H21      1.0000 0.15920  0.28510  0.91380  Biso   1.000  H
  H22      1.0000 0.84080  0.21490  0.91380  Biso   1.000  H
  H23      1.0000 0.46490  0.40920  0.16380  Biso   1.000  H
  H24      1.0000 0.53510  0.09080  0.16380  Biso   1.000  H
  H25      1.0000 0.34080  0.21490  0.58620  Biso   1.000  H
  H26      1.0000 0.65920  0.28510  0.58620  Biso   1.000  H
  H27      1.0000 0.53510  0.59080  0.83620  Biso   1.000  H
  H28      1.0000 0.46490  0.90920  0.83620  Biso   1.000  H
  H29      1.0000 0.84080  0.71490  0.08620  Biso   1.000  H
  H30      1.0000 0.15920  0.78510  0.08620  Biso   1.000  H
  H31      1.0000 0.03510  0.09080  0.33620  Biso   1.000  H
  H32      1.0000 0.96490  0.40920  0.33620  Biso   1.000  H
  H33      1.0000 0.61060  0.79200  0.47040  Biso   1.000  H
  H34      1.0000 0.38940  0.70800  0.47040  Biso   1.000  H
  H35      1.0000 0.95800  0.86060  0.72040  Biso   1.000  H
  H36      1.0000 0.04200  0.63940  0.72040  Biso   1.000  H
  H37      1.0000 0.11060  0.29200  0.97040  Biso   1.000  H
  H38      1.0000 0.88940  0.20800  0.97040  Biso   1.000  H
  H39      1.0000 0.45800  0.36060  0.22040  Biso   1.000  H
  H40      1.0000 0.54200  0.13940  0.22040  Biso   1.000  H
  H41      1.0000 0.38940  0.20800  0.52960  Biso   1.000  H
  H42      1.0000 0.61060  0.29200  0.52960  Biso   1.000  H
  H43      1.0000 0.54200  0.63940  0.77960  Biso   1.000  H
  H44      1.0000 0.45800  0.86060  0.77960  Biso   1.000  H
  H45      1.0000 0.88940  0.70800  0.02960  Biso   1.000  H
  H46      1.0000 0.11060  0.79200  0.02960  Biso   1.000  H
  H47      1.0000 0.04200  0.13940  0.27960  Biso   1.000  H
  H48      1.0000 0.95800  0.36060  0.27960  Biso   1.000  H
  N49      1.0000 0.81690  0.84520  0.38570  Biso   1.000  N
  N50      1.0000 0.18310  0.65480  0.38570  Biso   1.000  N
  N51      1.0000 0.90480  0.06690  0.63570  Biso   1.000  N
  N52      1.0000 0.09520  0.43310  0.63570  Biso   1.000  N
  N53      1.0000 0.31690  0.34520  0.88570  Biso   1.000  N
  N54      1.0000 0.68310  0.15480  0.88570  Biso   1.000  N
  N55      1.0000 0.40480  0.56690  0.13570  Biso   1.000  N
  N56      1.0000 0.59520  0.93310  0.13570  Biso   1.000  N
  N57      1.0000 0.18310  0.15480  0.61430  Biso   1.000  N
  N58      1.0000 0.81690  0.34520  0.61430  Biso   1.000  N
  N59      1.0000 0.59520  0.43310  0.86430  Biso   1.000  N
  N60      1.0000 0.40480  0.06690  0.86430  Biso   1.000  N
  N61      1.0000 0.68310  0.65480  0.11430  Biso   1.000  N
  N62      1.0000 0.31690  0.84520  0.11430  Biso   1.000  N
  N63      1.0000 0.09520  0.93310  0.36430  Biso   1.000  N
  N64      1.0000 0.90480  0.56690  0.36430  Biso   1.000  N
  C65      1.0000 0.89880  0.88230  0.38470  Biso   1.000  C
  C66      1.0000 0.10120  0.61770  0.38470  Biso   1.000  C
  C67      1.0000 0.86770  0.14880  0.63470  Biso   1.000  C
  C68      1.0000 0.13230  0.35120  0.63470  Biso   1.000  C
  C69      1.0000 0.39880  0.38230  0.88470  Biso   1.000  C
  C70      1.0000 0.60120  0.11770  0.88470  Biso   1.000  C
  C71      1.0000 0.36770  0.64880  0.13470  Biso   1.000  C
  C72      1.0000 0.63230  0.85120  0.13470  Biso   1.000  C
  C73      1.0000 0.10120  0.11770  0.61530  Biso   1.000  C
  C74      1.0000 0.89880  0.38230  0.61530  Biso   1.000  C
  C75      1.0000 0.63230  0.35120  0.86530  Biso   1.000  C
  C76      1.0000 0.36770  0.14880  0.86530  Biso   1.000  C
  C77      1.0000 0.60120  0.61770  0.11530  Biso   1.000  C
  C78      1.0000 0.39880  0.88230  0.11530  Biso   1.000  C
  C79      1.0000 0.13230  0.85120  0.36530  Biso   1.000  C
  C80      1.0000 0.86770  0.64880  0.36530  Biso   1.000  C
  H49      1.0000 0.93310  0.87930  0.35100  Biso   1.000  H
  H50      1.0000 0.06690  0.62070  0.35100  Biso   1.000  H
  H51      1.0000 0.87070  0.18310  0.60100  Biso   1.000  H
  H52      1.0000 0.12930  0.31690  0.60100  Biso   1.000  H
  H53      1.0000 0.43310  0.37930  0.85100  Biso   1.000  H
  H54      1.0000 0.56690  0.12070  0.85100  Biso   1.000  H
  H55      1.0000 0.37070  0.68310  0.10100  Biso   1.000  H
  H56      1.0000 0.62930  0.81690  0.10100  Biso   1.000  H
  H57      1.0000 0.06690  0.12070  0.64900  Biso   1.000  H
  H58      1.0000 0.93310  0.37930  0.64900  Biso   1.000  H
  H59      1.0000 0.62930  0.31690  0.89900  Biso   1.000  H
  H60      1.0000 0.37070  0.18310  0.89900  Biso   1.000  H
  H61      1.0000 0.56690  0.62070  0.14900  Biso   1.000  H
  H62      1.0000 0.43310  0.87930  0.14900  Biso   1.000  H
  H63      1.0000 0.12930  0.81690  0.39900  Biso   1.000  H
  H64      1.0000 0.87070  0.68310  0.39900  Biso   1.000  H
  N65      1.0000 0.92800  0.92310  0.43320  Biso   1.000  N
  N66      1.0000 0.07200  0.57690  0.43320  Biso   1.000  N
  N67      1.0000 0.82690  0.17800  0.68320  Biso   1.000  N
  N68      1.0000 0.17310  0.32200  0.68320  Biso   1.000  N
  N69      1.0000 0.42800  0.42310  0.93320  Biso   1.000  N
  N70      1.0000 0.57200  0.07690  0.93320  Biso   1.000  N
  N71      1.0000 0.32690  0.67800  0.18320  Biso   1.000  N
  N72      1.0000 0.67310  0.82200  0.18320  Biso   1.000  N
  N73      1.0000 0.07200  0.07690  0.56680  Biso   1.000  N
  N74      1.0000 0.92800  0.42310  0.56680  Biso   1.000  N
  N75      1.0000 0.67310  0.32200  0.81680  Biso   1.000  N
  N76      1.0000 0.32690  0.17800  0.81680  Biso   1.000  N
  N77      1.0000 0.57200  0.57690  0.06680  Biso   1.000  N
  N78      1.0000 0.42800  0.92310  0.06680  Biso   1.000  N
  N79      1.0000 0.17310  0.82200  0.31680  Biso   1.000  N
  N80      1.0000 0.82690  0.67800  0.31680  Biso   1.000  N
  C81      1.0000 0.93130  0.13290  0.45300  Biso   1.000  C
  C82      1.0000 0.06870  0.36710  0.45300  Biso   1.000  C
  C83      1.0000 0.61710  0.18130  0.70300  Biso   1.000  C
  C84      1.0000 0.38290  0.31870  0.70300  Biso   1.000  C
  C85      1.0000 0.43130  0.63290  0.95300  Biso   1.000  C
  C86      1.0000 0.56870  0.86710  0.95300  Biso   1.000  C
  C87      1.0000 0.11710  0.68130  0.20300  Biso   1.000  C
  C88      1.0000 0.88290  0.81870  0.20300  Biso   1.000  C
  C89      1.0000 0.06870  0.86710  0.54700  Biso   1.000  C
  C90      1.0000 0.93130  0.63290  0.54700  Biso   1.000  C
  C91      1.0000 0.88290  0.31870  0.79700  Biso   1.000  C
  C92      1.0000 0.11710  0.18130  0.79700  Biso   1.000  C
  C93      1.0000 0.56870  0.36710  0.04700  Biso   1.000  C
  C94      1.0000 0.43130  0.13290  0.04700  Biso   1.000  C
  C95      1.0000 0.38290  0.81870  0.29700  Biso   1.000  C
  C96      1.0000 0.61710  0.68130  0.29700  Biso   1.000  C
  O1       1.0000 0.91870  0.11560  0.50590  Biso   1.000  O
  O2       1.0000 0.08130  0.38440  0.50590  Biso   1.000  O
  O3       1.0000 0.63440  0.16870  0.75590  Biso   1.000  O
  O4       1.0000 0.36560  0.33130  0.75590  Biso   1.000  O
  O5       1.0000 0.41870  0.61560  0.00590  Biso   1.000  O
  O6       1.0000 0.58130  0.88440  0.00590  Biso   1.000  O
  O7       1.0000 0.13440  0.66870  0.25590  Biso   1.000  O
  O8       1.0000 0.86560  0.83130  0.25590  Biso   1.000  O
  O9       1.0000 0.08130  0.88440  0.49410  Biso   1.000  O
  O10      1.0000 0.91870  0.61560  0.49410  Biso   1.000  O
  O11      1.0000 0.86560  0.33130  0.74410  Biso   1.000  O
  O12      1.0000 0.13440  0.16870  0.74410  Biso   1.000  O
  O13      1.0000 0.58130  0.38440  0.99410  Biso   1.000  O
  O14      1.0000 0.41870  0.11560  0.99410  Biso   1.000  O
  O15      1.0000 0.36560  0.83130  0.24410  Biso   1.000  O
  O16      1.0000 0.63440  0.66870  0.24410  Biso   1.000  O
  O17      1.0000 0.97940  0.09200  0.41840  Biso   1.000  O
  O18      1.0000 0.02060  0.40800  0.41840  Biso   1.000  O
  O19      1.0000 0.65800  0.22940  0.66840  Biso   1.000  O
  O20      1.0000 0.34200  0.27060  0.66840  Biso   1.000  O
  O21      1.0000 0.47940  0.59200  0.91840  Biso   1.000  O
  O22      1.0000 0.52060  0.90800  0.91840  Biso   1.000  O
  O23      1.0000 0.15800  0.72940  0.16840  Biso   1.000  O
  O24      1.0000 0.84200  0.77060  0.16840  Biso   1.000  O
  O25      1.0000 0.02060  0.90800  0.58160  Biso   1.000  O
  O26      1.0000 0.97940  0.59200  0.58160  Biso   1.000  O
  O27      1.0000 0.84200  0.27060  0.83160  Biso   1.000  O
  O28      1.0000 0.15800  0.22940  0.83160  Biso   1.000  O
  O29      1.0000 0.52060  0.40800  0.08160  Biso   1.000  O
  O30      1.0000 0.47940  0.09200  0.08160  Biso   1.000  O
  O31      1.0000 0.34200  0.77060  0.33160  Biso   1.000  O
  O32      1.0000 0.65800  0.72940  0.33160  Biso   1.000  O
  C97      1.0000 0.87930  0.20940  0.42630  Biso   1.000  C
  C98      1.0000 0.12070  0.29060  0.42630  Biso   1.000  C
  C99      1.0000 0.54060  0.12930  0.67630  Biso   1.000  C
  C100     1.0000 0.45940  0.37070  0.67630  Biso   1.000  C
  C101     1.0000 0.37930  0.70940  0.92630  Biso   1.000  C
  C102     1.0000 0.62070  0.79060  0.92630  Biso   1.000  C
  C103     1.0000 0.04060  0.62930  0.17630  Biso   1.000  C
  C104     1.0000 0.95940  0.87070  0.17630  Biso   1.000  C
  C105     1.0000 0.12070  0.79060  0.57370  Biso   1.000  C
  C106     1.0000 0.87930  0.70940  0.57370  Biso   1.000  C
  C107     1.0000 0.95940  0.37070  0.82370  Biso   1.000  C
  C108     1.0000 0.04060  0.12930  0.82370  Biso   1.000  C
  C109     1.0000 0.62070  0.29060  0.07370  Biso   1.000  C
  C110     1.0000 0.37930  0.20940  0.07370  Biso   1.000  C
  C111     1.0000 0.45940  0.87070  0.32370  Biso   1.000  C
  C112     1.0000 0.54060  0.62930  0.32370  Biso   1.000  C
  H65      1.0000 0.82350  0.21040  0.44630  Biso   1.000  H
  H66      1.0000 0.17650  0.28960  0.44630  Biso   1.000  H
  H67      1.0000 0.53960  0.07350  0.69630  Biso   1.000  H
  H68      1.0000 0.46040  0.42650  0.69630  Biso   1.000  H
  H69      1.0000 0.32350  0.71040  0.94630  Biso   1.000  H
  H70      1.0000 0.67650  0.78960  0.94630  Biso   1.000  H
  H71      1.0000 0.03960  0.57350  0.19630  Biso   1.000  H
  H72      1.0000 0.96040  0.92650  0.19630  Biso   1.000  H
  H73      1.0000 0.17650  0.78960  0.55370  Biso   1.000  H
  H74      1.0000 0.82350  0.71040  0.55370  Biso   1.000  H
  H75      1.0000 0.96040  0.42650  0.80370  Biso   1.000  H
  H76      1.0000 0.03960  0.07350  0.80370  Biso   1.000  H
  H77      1.0000 0.67650  0.28960  0.05370  Biso   1.000  H
  H78      1.0000 0.32350  0.21040  0.05370  Biso   1.000  H
  H79      1.0000 0.46040  0.92650  0.30370  Biso   1.000  H
  H80      1.0000 0.53960  0.57350  0.30370  Biso   1.000  H
  H81      1.0000 0.90950  0.26230  0.43770  Biso   1.000  H
  H82      1.0000 0.09050  0.23770  0.43770  Biso   1.000  H
  H83      1.0000 0.48770  0.15950  0.68770  Biso   1.000  H
  H84      1.0000 0.51230  0.34050  0.68770  Biso   1.000  H
  H85      1.0000 0.40950  0.76230  0.93770  Biso   1.000  H
  H86      1.0000 0.59050  0.73770  0.93770  Biso   1.000  H
  H87      1.0000 0.98770  0.65950  0.18770  Biso   1.000  H
  H88      1.0000 0.01230  0.84050  0.18770  Biso   1.000  H
  H89      1.0000 0.09050  0.73770  0.56230  Biso   1.000  H
  H90      1.0000 0.90950  0.76230  0.56230  Biso   1.000  H
  H91      1.0000 0.01230  0.34050  0.81230  Biso   1.000  H
  H92      1.0000 0.98770  0.15950  0.81230  Biso   1.000  H
  H93      1.0000 0.59050  0.23770  0.06230  Biso   1.000  H
  H94      1.0000 0.40950  0.26230  0.06230  Biso   1.000  H
  H95      1.0000 0.51230  0.84050  0.31230  Biso   1.000  H
  H96      1.0000 0.48770  0.65950  0.31230  Biso   1.000  H
  C113     1.0000 0.86120  0.21710  0.36470  Biso   1.000  C
  C114     1.0000 0.13880  0.28290  0.36470  Biso   1.000  C
  C115     1.0000 0.53290  0.11120  0.61470  Biso   1.000  C
  C116     1.0000 0.46710  0.38880  0.61470  Biso   1.000  C
  C117     1.0000 0.36120  0.71710  0.86470  Biso   1.000  C
  C118     1.0000 0.63880  0.78290  0.86470  Biso   1.000  C
  C119     1.0000 0.03290  0.61120  0.11470  Biso   1.000  C
  C120     1.0000 0.96710  0.88880  0.11470  Biso   1.000  C
  C121     1.0000 0.13880  0.78290  0.63530  Biso   1.000  C
  C122     1.0000 0.86120  0.71710  0.63530  Biso   1.000  C
  C123     1.0000 0.96710  0.38880  0.88530  Biso   1.000  C
  C124     1.0000 0.03290  0.11120  0.88530  Biso   1.000  C
  C125     1.0000 0.63880  0.28290  0.13530  Biso   1.000  C
  C126     1.0000 0.36120  0.21710  0.13530  Biso   1.000  C
  C127     1.0000 0.46710  0.88880  0.38530  Biso   1.000  C
  C128     1.0000 0.53290  0.61120  0.38530  Biso   1.000  C
  H97      1.0000 0.91590  0.22530  0.34410  Biso   1.000  H
  H98      1.0000 0.08410  0.27470  0.34410  Biso   1.000  H
  H99      1.0000 0.52470  0.16590  0.59410  Biso   1.000  H
  H100     1.0000 0.47530  0.33410  0.59410  Biso   1.000  H
  H101     1.0000 0.41590  0.72530  0.84410  Biso   1.000  H
  H102     1.0000 0.58410  0.77470  0.84410  Biso   1.000  H
  H103     1.0000 0.02470  0.66590  0.09410  Biso   1.000  H
  H104     1.0000 0.97530  0.83410  0.09410  Biso   1.000  H
  H105     1.0000 0.08410  0.77470  0.65590  Biso   1.000  H
  H106     1.0000 0.91590  0.72530  0.65590  Biso   1.000  H
  H107     1.0000 0.97530  0.33410  0.90590  Biso   1.000  H
  H108     1.0000 0.02470  0.16590  0.90590  Biso   1.000  H
  H109     1.0000 0.58410  0.27470  0.15590  Biso   1.000  H
  H110     1.0000 0.41590  0.22530  0.15590  Biso   1.000  H
  H111     1.0000 0.47530  0.83410  0.40590  Biso   1.000  H
  H112     1.0000 0.52470  0.66590  0.40590  Biso   1.000  H
  H113     1.0000 0.82640  0.26910  0.35860  Biso   1.000  H
  H114     1.0000 0.17360  0.23090  0.35860  Biso   1.000  H
  H115     1.0000 0.48090  0.07640  0.60860  Biso   1.000  H
  H116     1.0000 0.51910  0.42360  0.60860  Biso   1.000  H
  H117     1.0000 0.32640  0.76910  0.85860  Biso   1.000  H
  H118     1.0000 0.67360  0.73090  0.85860  Biso   1.000  H
  H119     1.0000 0.98090  0.57640  0.10860  Biso   1.000  H
  H120     1.0000 0.01910  0.92360  0.10860  Biso   1.000  H
  H121     1.0000 0.17360  0.73090  0.64140  Biso   1.000  H
  H122     1.0000 0.82640  0.76910  0.64140  Biso   1.000  H
  H123     1.0000 0.01910  0.42360  0.89140  Biso   1.000  H
  H124     1.0000 0.98090  0.07640  0.89140  Biso   1.000  H
  H125     1.0000 0.67360  0.23090  0.14140  Biso   1.000  H
  H126     1.0000 0.32640  0.26910  0.14140  Biso   1.000  H
  H127     1.0000 0.51910  0.92360  0.39140  Biso   1.000  H
  H128     1.0000 0.48090  0.57640  0.39140  Biso   1.000  H
  C129     1.0000 0.81580  0.14380  0.33820  Biso   1.000  C
  C130     1.0000 0.18420  0.35620  0.33820  Biso   1.000  C
  C131     1.0000 0.60620  0.06580  0.58820  Biso   1.000  C
  C132     1.0000 0.39380  0.43420  0.58820  Biso   1.000  C
  C133     1.0000 0.31580  0.64380  0.83820  Biso   1.000  C
  C134     1.0000 0.68420  0.85620  0.83820  Biso   1.000  C
  C135     1.0000 0.10620  0.56580  0.08820  Biso   1.000  C
  C136     1.0000 0.89380  0.93420  0.08820  Biso   1.000  C
  C137     1.0000 0.18420  0.85620  0.66180  Biso   1.000  C
  C138     1.0000 0.81580  0.64380  0.66180  Biso   1.000  C
  C139     1.0000 0.89380  0.43420  0.91180  Biso   1.000  C
  C140     1.0000 0.10620  0.06580  0.91180  Biso   1.000  C
  C141     1.0000 0.68420  0.35620  0.16180  Biso   1.000  C
  C142     1.0000 0.31580  0.14380  0.16180  Biso   1.000  C
  C143     1.0000 0.39380  0.93420  0.41180  Biso   1.000  C
  C144     1.0000 0.60620  0.56580  0.41180  Biso   1.000  C
  H129     1.0000 0.75440  0.14890  0.34570  Biso   1.000  H
  H130     1.0000 0.24560  0.35110  0.34570  Biso   1.000  H
  H131     1.0000 0.60110  0.00440  0.59570  Biso   1.000  H
  H132     1.0000 0.39890  0.49560  0.59570  Biso   1.000  H
  H133     1.0000 0.25440  0.64890  0.84570  Biso   1.000  H
  H134     1.0000 0.74560  0.85110  0.84570  Biso   1.000  H
  H135     1.0000 0.10110  0.50440  0.09570  Biso   1.000  H
  H136     1.0000 0.89890  0.99560  0.09570  Biso   1.000  H
  H137     1.0000 0.24560  0.85110  0.65430  Biso   1.000  H
  H138     1.0000 0.75440  0.64890  0.65430  Biso   1.000  H
  H139     1.0000 0.89890  0.49560  0.90430  Biso   1.000  H
  H140     1.0000 0.10110  0.00440  0.90430  Biso   1.000  H
  H141     1.0000 0.74560  0.35110  0.15430  Biso   1.000  H
  H142     1.0000 0.25440  0.14890  0.15430  Biso   1.000  H
  H143     1.0000 0.39890  0.99560  0.40430  Biso   1.000  H
  H144     1.0000 0.60110  0.50440  0.40430  Biso   1.000  H
  H145     1.0000 0.83710  0.09040  0.35490  Biso   1.000  H
  H146     1.0000 0.16290  0.40960  0.35490  Biso   1.000  H
  H147     1.0000 0.65960  0.08710  0.60490  Biso   1.000  H
  H148     1.0000 0.34040  0.41290  0.60490  Biso   1.000  H
  H149     1.0000 0.33710  0.59040  0.85490  Biso   1.000  H
  H150     1.0000 0.66290  0.90960  0.85490  Biso   1.000  H
  H151     1.0000 0.15960  0.58710  0.10490  Biso   1.000  H
  H152     1.0000 0.84040  0.91290  0.10490  Biso   1.000  H
  H153     1.0000 0.16290  0.90960  0.64510  Biso   1.000  H
  H154     1.0000 0.83710  0.59040  0.64510  Biso   1.000  H
  H155     1.0000 0.84040  0.41290  0.89510  Biso   1.000  H
  H156     1.0000 0.15960  0.08710  0.89510  Biso   1.000  H
  H157     1.0000 0.66290  0.40960  0.14510  Biso   1.000  H
  H158     1.0000 0.33710  0.09040  0.14510  Biso   1.000  H
  H159     1.0000 0.34040  0.91290  0.39510  Biso   1.000  H
  H160     1.0000 0.65960  0.58710  0.39510  Biso   1.000  H
  H161     1.0000 0.82590  0.14360  0.29650  Biso   1.000  H
  H162     1.0000 0.17410  0.35640  0.29650  Biso   1.000  H
  H163     1.0000 0.60640  0.07590  0.54650  Biso   1.000  H
  H164     1.0000 0.39360  0.42410  0.54650  Biso   1.000  H
  H165     1.0000 0.32590  0.64360  0.79650  Biso   1.000  H
  H166     1.0000 0.67410  0.85640  0.79650  Biso   1.000  H
  H167     1.0000 0.10640  0.57590  0.04650  Biso   1.000  H
  H168     1.0000 0.89360  0.92410  0.04650  Biso   1.000  H
  H169     1.0000 0.17410  0.85640  0.70350  Biso   1.000  H
  H170     1.0000 0.82590  0.64360  0.70350  Biso   1.000  H
  H171     1.0000 0.89360  0.42410  0.95350  Biso   1.000  H
  H172     1.0000 0.10640  0.07590  0.95350  Biso   1.000  H
  H173     1.0000 0.67410  0.35640  0.20350  Biso   1.000  H
  H174     1.0000 0.32590  0.14360  0.20350  Biso   1.000  H
  H175     1.0000 0.39360  0.92410  0.45350  Biso   1.000  H
  H176     1.0000 0.60640  0.57590  0.45350  Biso   1.000  H
  O33      1.0000 0.37650  0.18080  0.36590  Biso   1.000  O
  O34      1.0000 0.62350  0.31920  0.36590  Biso   1.000  O
  O35      1.0000 0.56920  0.62650  0.61590  Biso   1.000  O
  O36      1.0000 0.43080  0.87350  0.61590  Biso   1.000  O
  O37      1.0000 0.87650  0.68080  0.86590  Biso   1.000  O
  O38      1.0000 0.12350  0.81920  0.86590  Biso   1.000  O
  O39      1.0000 0.06920  0.12650  0.11590  Biso   1.000  O
  O40      1.0000 0.93080  0.37350  0.11590  Biso   1.000  O
  O41      1.0000 0.62350  0.81920  0.63410  Biso   1.000  O
  O42      1.0000 0.37650  0.68080  0.63410  Biso   1.000  O
  O43      1.0000 0.93080  0.87350  0.88410  Biso   1.000  O
  O44      1.0000 0.06920  0.62650  0.88410  Biso   1.000  O
  O45      1.0000 0.12350  0.31920  0.13410  Biso   1.000  O
  O46      1.0000 0.87650  0.18080  0.13410  Biso   1.000  O
  O47      1.0000 0.43080  0.37350  0.38410  Biso   1.000  O
  O48      1.0000 0.56920  0.12650  0.38410  Biso   1.000  O
  O49      1.0000 0.06300  0.27200  0.24830  Biso   1.000  O
  O50      1.0000 0.93700  0.22800  0.24830  Biso   1.000  O
  O51      1.0000 0.47800  0.31300  0.49830  Biso   1.000  O
  O52      1.0000 0.52200  0.18700  0.49830  Biso   1.000  O
  O53      1.0000 0.56300  0.77200  0.74830  Biso   1.000  O
  O54      1.0000 0.43700  0.72800  0.74830  Biso   1.000  O
  O55      1.0000 0.97800  0.81300  0.99830  Biso   1.000  O
  O56      1.0000 0.02200  0.68700  0.99830  Biso   1.000  O
  O57      1.0000 0.93700  0.72800  0.75170  Biso   1.000  O
  O58      1.0000 0.06300  0.77200  0.75170  Biso   1.000  O
  O59      1.0000 0.02200  0.18700  0.00170  Biso   1.000  O
  O60      1.0000 0.97800  0.31300  0.00170  Biso   1.000  O
  O61      1.0000 0.43700  0.22800  0.25170  Biso   1.000  O
  O62      1.0000 0.56300  0.27200  0.25170  Biso   1.000  O
  O63      1.0000 0.52200  0.68700  0.50170  Biso   1.000  O
  O64      1.0000 0.47800  0.81300  0.50170  Biso   1.000  O
  C145     1.0000 0.80000  0.16520  0.39230  Biso   1.000  C
  C146     1.0000 0.20000  0.33480  0.39230  Biso   1.000  C
  C147     1.0000 0.58480  0.05000  0.64230  Biso   1.000  C
  C148     1.0000 0.41520  0.45000  0.64230  Biso   1.000  C
  C149     1.0000 0.30000  0.66520  0.89230  Biso   1.000  C
  C150     1.0000 0.70000  0.83480  0.89230  Biso   1.000  C
  C151     1.0000 0.08480  0.55000  0.14230  Biso   1.000  C
  C152     1.0000 0.91520  0.95000  0.14230  Biso   1.000  C
  C153     1.0000 0.20000  0.83480  0.60770  Biso   1.000  C
  C154     1.0000 0.80000  0.66520  0.60770  Biso   1.000  C
  C155     1.0000 0.91520  0.45000  0.85770  Biso   1.000  C
  C156     1.0000 0.08480  0.05000  0.85770  Biso   1.000  C
  C157     1.0000 0.70000  0.33480  0.10770  Biso   1.000  C
  C158     1.0000 0.30000  0.16520  0.10770  Biso   1.000  C
  C159     1.0000 0.41520  0.95000  0.35770  Biso   1.000  C
  C160     1.0000 0.58480  0.55000  0.35770  Biso   1.000  C
  C161     1.0000 0.73660  0.13280  0.43700  Biso   1.000  C
  C162     1.0000 0.26340  0.36720  0.43700  Biso   1.000  C
  C163     1.0000 0.61720  0.98660  0.68700  Biso   1.000  C
  C164     1.0000 0.38280  0.51340  0.68700  Biso   1.000  C
  C165     1.0000 0.23660  0.63280  0.93700  Biso   1.000  C
  C166     1.0000 0.76340  0.86720  0.93700  Biso   1.000  C
  C167     1.0000 0.11720  0.48660  0.18700  Biso   1.000  C
  C168     1.0000 0.88280  0.01340  0.18700  Biso   1.000  C
  C169     1.0000 0.26340  0.86720  0.56300  Biso   1.000  C
  C170     1.0000 0.73660  0.63280  0.56300  Biso   1.000  C
  C171     1.0000 0.88280  0.51340  0.81300  Biso   1.000  C
  C172     1.0000 0.11720  0.98660  0.81300  Biso   1.000  C
  C173     1.0000 0.76340  0.36720  0.06300  Biso   1.000  C
  C174     1.0000 0.23660  0.13280  0.06300  Biso   1.000  C
  C175     1.0000 0.38280  0.01340  0.31300  Biso   1.000  C
  C176     1.0000 0.61720  0.48660  0.31300  Biso   1.000  C
  H177     1.0000 0.77220  0.20740  0.36670  Biso   1.000  H
  H178     1.0000 0.22780  0.29260  0.36670  Biso   1.000  H
  H179     1.0000 0.54260  0.02220  0.61670  Biso   1.000  H
  H180     1.0000 0.45740  0.47780  0.61670  Biso   1.000  H
  H181     1.0000 0.27220  0.70740  0.86670  Biso   1.000  H
  H182     1.0000 0.72780  0.79260  0.86670  Biso   1.000  H
  H183     1.0000 0.04260  0.52220  0.11670  Biso   1.000  H
  H184     1.0000 0.95740  0.97780  0.11670  Biso   1.000  H
  H185     1.0000 0.22780  0.79260  0.63330  Biso   1.000  H
  H186     1.0000 0.77220  0.70740  0.63330  Biso   1.000  H
  H187     1.0000 0.95740  0.47780  0.88330  Biso   1.000  H
  H188     1.0000 0.04260  0.02220  0.88330  Biso   1.000  H
  H189     1.0000 0.72780  0.29260  0.13330  Biso   1.000  H
  H190     1.0000 0.27220  0.20740  0.13330  Biso   1.000  H
  H191     1.0000 0.45740  0.97780  0.38330  Biso   1.000  H
  H192     1.0000 0.54260  0.52220  0.38330  Biso   1.000  H
  H193     1.0000 0.82090  0.11730  0.36830  Biso   1.000  H
  H194     1.0000 0.17910  0.38270  0.36830  Biso   1.000  H
  H195     1.0000 0.63270  0.07090  0.61830  Biso   1.000  H
  H196     1.0000 0.36730  0.42910  0.61830  Biso   1.000  H
  H197     1.0000 0.32090  0.61730  0.86830  Biso   1.000  H
  H198     1.0000 0.67910  0.88270  0.86830  Biso   1.000  H
  H199     1.0000 0.13270  0.57090  0.11830  Biso   1.000  H
  H200     1.0000 0.86730  0.92910  0.11830  Biso   1.000  H
  H201     1.0000 0.17910  0.88270  0.63170  Biso   1.000  H
  H202     1.0000 0.82090  0.61730  0.63170  Biso   1.000  H
  H203     1.0000 0.86730  0.42910  0.88170  Biso   1.000  H
  H204     1.0000 0.13270  0.07090  0.88170  Biso   1.000  H
  H205     1.0000 0.67910  0.38270  0.13170  Biso   1.000  H
  H206     1.0000 0.32090  0.11730  0.13170  Biso   1.000  H
  H207     1.0000 0.36730  0.92910  0.38170  Biso   1.000  H
  H208     1.0000 0.63270  0.57090  0.38170  Biso   1.000  H
  H209     1.0000 0.72960  0.17560  0.46750  Biso   1.000  H
  H210     1.0000 0.27040  0.32440  0.46750  Biso   1.000  H
  H211     1.0000 0.57440  0.97960  0.71750  Biso   1.000  H
  H212     1.0000 0.42560  0.52040  0.71750  Biso   1.000  H
  H213     1.0000 0.22960  0.67560  0.96750  Biso   1.000  H
  H214     1.0000 0.77040  0.82440  0.96750  Biso   1.000  H
  H215     1.0000 0.07440  0.47960  0.21750  Biso   1.000  H
  H216     1.0000 0.92560  0.02040  0.21750  Biso   1.000  H
  H217     1.0000 0.27040  0.82440  0.53250  Biso   1.000  H
  H218     1.0000 0.72960  0.67560  0.53250  Biso   1.000  H
  H219     1.0000 0.92560  0.52040  0.78250  Biso   1.000  H
  H220     1.0000 0.07440  0.97960  0.78250  Biso   1.000  H
  H221     1.0000 0.77040  0.32440  0.03250  Biso   1.000  H
  H222     1.0000 0.22960  0.17560  0.03250  Biso   1.000  H
  H223     1.0000 0.42560  0.02040  0.28250  Biso   1.000  H
  H224     1.0000 0.57440  0.47960  0.28250  Biso   1.000  H
  H225     1.0000 0.75790  0.07960  0.45390  Biso   1.000  H
  H226     1.0000 0.24210  0.42040  0.45390  Biso   1.000  H
  H227     1.0000 0.67040  0.00790  0.70390  Biso   1.000  H
  H228     1.0000 0.32960  0.49210  0.70390  Biso   1.000  H
  H229     1.0000 0.25790  0.57960  0.95390  Biso   1.000  H
  H230     1.0000 0.74210  0.92040  0.95390  Biso   1.000  H
  H231     1.0000 0.17040  0.50790  0.20390  Biso   1.000  H
  H232     1.0000 0.82960  0.99210  0.20390  Biso   1.000  H
  H233     1.0000 0.24210  0.92040  0.54610  Biso   1.000  H
  H234     1.0000 0.75790  0.57960  0.54610  Biso   1.000  H
  H235     1.0000 0.82960  0.49210  0.79610  Biso   1.000  H
  H236     1.0000 0.17040  0.00790  0.79610  Biso   1.000  H
  H237     1.0000 0.74210  0.42040  0.04610  Biso   1.000  H
  H238     1.0000 0.25790  0.07960  0.04610  Biso   1.000  H
  H239     1.0000 0.32960  0.99210  0.29610  Biso   1.000  H
  H240     1.0000 0.67040  0.50790  0.29610  Biso   1.000  H
  H241     1.0000 0.68140  0.12220  0.41850  Biso   1.000  H
  H242     1.0000 0.31860  0.37780  0.41850  Biso   1.000  H
  H243     1.0000 0.62780  0.93140  0.66850  Biso   1.000  H
  H244     1.0000 0.37220  0.56860  0.66850  Biso   1.000  H
  H245     1.0000 0.18140  0.62220  0.91850  Biso   1.000  H
  H246     1.0000 0.81860  0.87780  0.91850  Biso   1.000  H
  H247     1.0000 0.12780  0.43140  0.16850  Biso   1.000  H
  H248     1.0000 0.87220  0.06860  0.16850  Biso   1.000  H
  H249     1.0000 0.31860  0.87780  0.58150  Biso   1.000  H
  H250     1.0000 0.68140  0.62220  0.58150  Biso   1.000  H
  H251     1.0000 0.87220  0.56860  0.83150  Biso   1.000  H
  H252     1.0000 0.12780  0.93140  0.83150  Biso   1.000  H
  H253     1.0000 0.81860  0.37780  0.08150  Biso   1.000  H
  H254     1.0000 0.18140  0.12220  0.08150  Biso   1.000  H
  H255     1.0000 0.37220  0.06860  0.33150  Biso   1.000  H
  H256     1.0000 0.62780  0.43140  0.33150  Biso   1.000  H
  O65      1.0000 0.40690  0.19810  0.39880  Biso   1.000  O
  O66      1.0000 0.59310  0.30190  0.39880  Biso   1.000  O
  O67      1.0000 0.55190  0.65690  0.64880  Biso   1.000  O
  O68      1.0000 0.44810  0.84310  0.64880  Biso   1.000  O
  O69      1.0000 0.90690  0.69810  0.89880  Biso   1.000  O
  O70      1.0000 0.09310  0.80190  0.89880  Biso   1.000  O
  O71      1.0000 0.05190  0.15690  0.14880  Biso   1.000  O
  O72      1.0000 0.94810  0.34310  0.14880  Biso   1.000  O
  O73      1.0000 0.59310  0.80190  0.60120  Biso   1.000  O
  O74      1.0000 0.40690  0.69810  0.60120  Biso   1.000  O
  O75      1.0000 0.94810  0.84310  0.85120  Biso   1.000  O
  O76      1.0000 0.05190  0.65690  0.85120  Biso   1.000  O
  O77      1.0000 0.09310  0.30190  0.10120  Biso   1.000  O
  O78      1.0000 0.90690  0.19810  0.10120  Biso   1.000  O
  O79      1.0000 0.44810  0.34310  0.35120  Biso   1.000  O
  O80      1.0000 0.55190  0.15690  0.35120  Biso   1.000  O
  O81      1.0000 0.00000  0.25000  0.22650  Biso   1.000  O
  O82      1.0000 0.50000  0.25000  0.47650  Biso   1.000  O
  O83      1.0000 0.50000  0.75000  0.72650  Biso   1.000  O
  O84      1.0000 0.00000  0.75000  0.97650  Biso   1.000  O
  O85      1.0000 0.00000  0.75000  0.77350  Biso   1.000  O
  O86      1.0000 0.00000  0.25000  0.02350  Biso   1.000  O
  O87      1.0000 0.50000  0.25000  0.27350  Biso   1.000  O
  O88      1.0000 0.50000  0.75000  0.52350  Biso   1.000  O
