data_image0
_cell_length_a       11.7108
_cell_length_b       11.7108
_cell_length_c       13.0325
_cell_angle_alpha    90
_cell_angle_beta     90
_cell_angle_gamma    90

_symmetry_space_group_name_H-M    "P 1"
_symmetry_int_tables_number       1

loop_
  _symmetry_equiv_pos_as_xyz
  'x, y, z'

loop_
  _atom_site_label
  _atom_site_occupancy
  _atom_site_fract_x
  _atom_site_fract_y
  _atom_site_fract_z
  _atom_site_thermal_displace_type
  _atom_site_B_iso_or_equiv
  _atom_site_type_symbol
  Cu1      1.0000 0.10928  0.39097  0.18489  Biso   1.000  Cu
  Cu2      1.0000 0.89072  0.60903  0.18489  Biso   1.000  Cu
  Cu3      1.0000 0.39097  0.89072  0.81511  Biso   1.000  Cu
  Cu4      1.0000 0.60903  0.10928  0.81511  Biso   1.000  Cu
  Cu5      1.0000 0.60928  0.89097  0.68489  Biso   1.000  Cu
  Cu6      1.0000 0.39072  0.10903  0.68489  Biso   1.000  Cu
  Cu7      1.0000 0.89097  0.39072  0.31511  Biso   1.000  Cu
  Cu8      1.0000 0.10903  0.60928  0.31511  Biso   1.000  Cu
  O1       1.0000 0.10000  0.55790  0.17460  Biso   1.000  O
  O2       1.0000 0.90000  0.44210  0.17460  Biso   1.000  O
  O3       1.0000 0.55790  0.90000  0.82540  Biso   1.000  O
  O4       1.0000 0.44210  0.10000  0.82540  Biso   1.000  O
  O5       1.0000 0.60000  0.05790  0.67460  Biso   1.000  O
  O6       1.0000 0.40000  0.94210  0.67460  Biso   1.000  O
  O7       1.0000 0.05790  0.40000  0.32540  Biso   1.000  O
  O8       1.0000 0.94210  0.60000  0.32540  Biso   1.000  O
  O9       1.0000 0.11370  0.22620  0.17980  Biso   1.000  O
  O10      1.0000 0.88630  0.77380  0.17980  Biso   1.000  O
  O11      1.0000 0.22620  0.88630  0.82020  Biso   1.000  O
  O12      1.0000 0.77380  0.11370  0.82020  Biso   1.000  O
  O13      1.0000 0.61370  0.72620  0.67980  Biso   1.000  O
  O14      1.0000 0.38630  0.27380  0.67980  Biso   1.000  O
  O15      1.0000 0.72620  0.38630  0.32020  Biso   1.000  O
  O16      1.0000 0.27380  0.61370  0.32020  Biso   1.000  O
  O17      1.0000 0.93820  0.19630  0.24410  Biso   1.000  O
  O18      1.0000 0.06180  0.80370  0.24410  Biso   1.000  O
  O19      1.0000 0.19630  0.06180  0.75590  Biso   1.000  O
  O20      1.0000 0.80370  0.93820  0.75590  Biso   1.000  O
  O21      1.0000 0.43820  0.69630  0.74410  Biso   1.000  O
  O22      1.0000 0.56180  0.30370  0.74410  Biso   1.000  O
  O23      1.0000 0.69630  0.56180  0.25590  Biso   1.000  O
  O24      1.0000 0.30370  0.43820  0.25590  Biso   1.000  O
  O25      1.0000 0.50000  0.50000  0.00000  Biso   1.000  O
  O26      1.0000 0.00000  0.00000  0.50000  Biso   1.000  O
  N1       1.0000 0.14370  0.40590  0.03610  Biso   1.000  N
  N2       1.0000 0.85630  0.59410  0.03610  Biso   1.000  N
  N3       1.0000 0.40590  0.85630  0.96390  Biso   1.000  N
  N4       1.0000 0.59410  0.14370  0.96390  Biso   1.000  N
  N5       1.0000 0.64370  0.90590  0.53610  Biso   1.000  N
  N6       1.0000 0.35630  0.09410  0.53610  Biso   1.000  N
  N7       1.0000 0.90590  0.35630  0.46390  Biso   1.000  N
  N8       1.0000 0.09410  0.64370  0.46390  Biso   1.000  N
  C1       1.0000 0.14600  0.32030  0.96710  Biso   1.000  C
  C2       1.0000 0.85400  0.67970  0.96710  Biso   1.000  C
  C3       1.0000 0.32030  0.85400  0.03290  Biso   1.000  C
  C4       1.0000 0.67970  0.14600  0.03290  Biso   1.000  C
  C5       1.0000 0.64600  0.82030  0.46710  Biso   1.000  C
  C6       1.0000 0.35400  0.17970  0.46710  Biso   1.000  C
  C7       1.0000 0.82030  0.35400  0.53290  Biso   1.000  C
  C8       1.0000 0.17970  0.64600  0.53290  Biso   1.000  C
  H1       1.0000 0.13520  0.24480  0.98960  Biso   1.000  H
  H2       1.0000 0.86480  0.75520  0.98960  Biso   1.000  H
  H3       1.0000 0.24480  0.86480  0.01040  Biso   1.000  H
  H4       1.0000 0.75520  0.13520  0.01040  Biso   1.000  H
  H5       1.0000 0.63520  0.74480  0.48960  Biso   1.000  H
  H6       1.0000 0.36480  0.25520  0.48960  Biso   1.000  H
  H7       1.0000 0.74480  0.36480  0.51040  Biso   1.000  H
  H8       1.0000 0.25520  0.63520  0.51040  Biso   1.000  H
  C9       1.0000 0.16390  0.34060  0.86430  Biso   1.000  C
  C10      1.0000 0.83610  0.65940  0.86430  Biso   1.000  C
  C11      1.0000 0.34060  0.83610  0.13570  Biso   1.000  C
  C12      1.0000 0.65940  0.16390  0.13570  Biso   1.000  C
  C13      1.0000 0.66390  0.84060  0.36430  Biso   1.000  C
  C14      1.0000 0.33610  0.15940  0.36430  Biso   1.000  C
  C15      1.0000 0.84060  0.33610  0.63570  Biso   1.000  C
  C16      1.0000 0.15940  0.66390  0.63570  Biso   1.000  C
  H9       1.0000 0.16610  0.27980  0.81720  Biso   1.000  H
  H10      1.0000 0.83390  0.72020  0.81720  Biso   1.000  H
  H11      1.0000 0.27980  0.83390  0.18280  Biso   1.000  H
  H12      1.0000 0.72020  0.16610  0.18280  Biso   1.000  H
  H13      1.0000 0.66610  0.77980  0.31720  Biso   1.000  H
  H14      1.0000 0.33390  0.22020  0.31720  Biso   1.000  H
  H15      1.0000 0.77980  0.33390  0.68280  Biso   1.000  H
  H16      1.0000 0.22020  0.66610  0.68280  Biso   1.000  H
  C17      1.0000 0.17850  0.45160  0.83150  Biso   1.000  C
  C18      1.0000 0.82150  0.54840  0.83150  Biso   1.000  C
  C19      1.0000 0.45160  0.82150  0.16850  Biso   1.000  C
  C20      1.0000 0.54840  0.17850  0.16850  Biso   1.000  C
  C21      1.0000 0.67850  0.95160  0.33150  Biso   1.000  C
  C22      1.0000 0.32150  0.04840  0.33150  Biso   1.000  C
  C23      1.0000 0.95160  0.32150  0.66850  Biso   1.000  C
  C24      1.0000 0.04840  0.67850  0.66850  Biso   1.000  C
  H17      1.0000 0.18960  0.46750  0.76150  Biso   1.000  H
  H18      1.0000 0.81040  0.53250  0.76150  Biso   1.000  H
  H19      1.0000 0.46750  0.81040  0.23850  Biso   1.000  H
  H20      1.0000 0.53250  0.18960  0.23850  Biso   1.000  H
  H21      1.0000 0.68960  0.96750  0.26150  Biso   1.000  H
  H22      1.0000 0.31040  0.03250  0.26150  Biso   1.000  H
  H23      1.0000 0.96750  0.31040  0.73850  Biso   1.000  H
  H24      1.0000 0.03250  0.68960  0.73850  Biso   1.000  H
  C25      1.0000 0.17670  0.53940  0.90270  Biso   1.000  C
  C26      1.0000 0.82330  0.46060  0.90270  Biso   1.000  C
  C27      1.0000 0.53940  0.82330  0.09730  Biso   1.000  C
  C28      1.0000 0.46060  0.17670  0.09730  Biso   1.000  C
  C29      1.0000 0.67670  0.03940  0.40270  Biso   1.000  C
  C30      1.0000 0.32330  0.96060  0.40270  Biso   1.000  C
  C31      1.0000 0.03940  0.32330  0.59730  Biso   1.000  C
  C32      1.0000 0.96060  0.67670  0.59730  Biso   1.000  C
  H25      1.0000 0.18670  0.61560  0.88160  Biso   1.000  H
  H26      1.0000 0.81330  0.38440  0.88160  Biso   1.000  H
  H27      1.0000 0.61560  0.81330  0.11840  Biso   1.000  H
  H28      1.0000 0.38440  0.18670  0.11840  Biso   1.000  H
  H29      1.0000 0.68670  0.11560  0.38160  Biso   1.000  H
  H30      1.0000 0.31330  0.88440  0.38160  Biso   1.000  H
  H31      1.0000 0.11560  0.31330  0.61840  Biso   1.000  H
  H32      1.0000 0.88440  0.68670  0.61840  Biso   1.000  H
  C33      1.0000 0.15980  0.51360  0.00490  Biso   1.000  C
  C34      1.0000 0.84020  0.48640  0.00490  Biso   1.000  C
  C35      1.0000 0.51360  0.84020  0.99510  Biso   1.000  C
  C36      1.0000 0.48640  0.15980  0.99510  Biso   1.000  C
  C37      1.0000 0.65980  0.01360  0.50490  Biso   1.000  C
  C38      1.0000 0.34020  0.98640  0.50490  Biso   1.000  C
  C39      1.0000 0.01360  0.34020  0.49510  Biso   1.000  C
  C40      1.0000 0.98640  0.65980  0.49510  Biso   1.000  C
  C41      1.0000 0.15880  0.60110  0.09000  Biso   1.000  C
  C42      1.0000 0.84120  0.39890  0.09000  Biso   1.000  C
  C43      1.0000 0.60110  0.84120  0.91000  Biso   1.000  C
  C44      1.0000 0.39890  0.15880  0.91000  Biso   1.000  C
  C45      1.0000 0.65880  0.10110  0.59000  Biso   1.000  C
  C46      1.0000 0.34120  0.89890  0.59000  Biso   1.000  C
  C47      1.0000 0.10110  0.34120  0.41000  Biso   1.000  C
  C48      1.0000 0.89890  0.65880  0.41000  Biso   1.000  C
  H33      1.0000 0.23740  0.61990  0.10970  Biso   1.000  H
  H34      1.0000 0.76260  0.38010  0.10970  Biso   1.000  H
  H35      1.0000 0.61990  0.76260  0.89030  Biso   1.000  H
  H36      1.0000 0.38010  0.23740  0.89030  Biso   1.000  H
  H37      1.0000 0.73740  0.11990  0.60970  Biso   1.000  H
  H38      1.0000 0.26260  0.88010  0.60970  Biso   1.000  H
  H39      1.0000 0.11990  0.26260  0.39030  Biso   1.000  H
  H40      1.0000 0.88010  0.73740  0.39030  Biso   1.000  H
  H41      1.0000 0.12170  0.67120  0.06590  Biso   1.000  H
  H42      1.0000 0.87830  0.32880  0.06590  Biso   1.000  H
  H43      1.0000 0.67120  0.87830  0.93410  Biso   1.000  H
  H44      1.0000 0.32880  0.12170  0.93410  Biso   1.000  H
  H45      1.0000 0.62170  0.17120  0.56590  Biso   1.000  H
  H46      1.0000 0.37830  0.82880  0.56590  Biso   1.000  H
  H47      1.0000 0.17120  0.37830  0.43410  Biso   1.000  H
  H48      1.0000 0.82880  0.62170  0.43410  Biso   1.000  H
  C49      1.0000 0.02910  0.16350  0.20760  Biso   1.000  C
  C50      1.0000 0.97090  0.83650  0.20760  Biso   1.000  C
  C51      1.0000 0.16350  0.97090  0.79240  Biso   1.000  C
  C52      1.0000 0.83650  0.02910  0.79240  Biso   1.000  C
  C53      1.0000 0.52910  0.66350  0.70760  Biso   1.000  C
  C54      1.0000 0.47090  0.33650  0.70760  Biso   1.000  C
  C55      1.0000 0.66350  0.47090  0.29240  Biso   1.000  C
  C56      1.0000 0.33650  0.52910  0.29240  Biso   1.000  C
  C57      1.0000 0.05330  0.03610  0.19580  Biso   1.000  C
  C58      1.0000 0.94670  0.96390  0.19580  Biso   1.000  C
  C59      1.0000 0.03610  0.94670  0.80420  Biso   1.000  C
  C60      1.0000 0.96390  0.05330  0.80420  Biso   1.000  C
  C61      1.0000 0.55330  0.53610  0.69580  Biso   1.000  C
  C62      1.0000 0.44670  0.46390  0.69580  Biso   1.000  C
  C63      1.0000 0.53610  0.44670  0.30420  Biso   1.000  C
  C64      1.0000 0.46390  0.55330  0.30420  Biso   1.000  C
  H49      1.0000 0.11100  0.02600  0.25100  Biso   1.000  H
  H50      1.0000 0.88900  0.97400  0.25100  Biso   1.000  H
  H51      1.0000 0.02600  0.88900  0.74900  Biso   1.000  H
  H52      1.0000 0.97400  0.11100  0.74900  Biso   1.000  H
  H53      1.0000 0.61100  0.52600  0.75100  Biso   1.000  H
  H54      1.0000 0.38900  0.47400  0.75100  Biso   1.000  H
  H55      1.0000 0.52600  0.38900  0.24900  Biso   1.000  H
  H56      1.0000 0.47400  0.61100  0.24900  Biso   1.000  H
  H57      1.0000 0.08200  0.03300  0.13500  Biso   1.000  H
  H58      1.0000 0.91800  0.96700  0.13500  Biso   1.000  H
  H59      1.0000 0.03300  0.91800  0.86500  Biso   1.000  H
  H60      1.0000 0.96700  0.08200  0.86500  Biso   1.000  H
  H61      1.0000 0.58200  0.53300  0.63500  Biso   1.000  H
  H62      1.0000 0.41800  0.46700  0.63500  Biso   1.000  H
  H63      1.0000 0.53300  0.41800  0.36500  Biso   1.000  H
  H64      1.0000 0.46700  0.58200  0.36500  Biso   1.000  H
