data_image0
_cell_length_a       8.7746
_cell_length_b       9.8369
_cell_length_c       10.6744
_cell_angle_alpha    90
_cell_angle_beta     90
_cell_angle_gamma    90

_symmetry_space_group_name_H-M    "P 1"
_symmetry_int_tables_number       1

loop_
  _symmetry_equiv_pos_as_xyz
  'x, y, z'

loop_
  _atom_site_label
  _atom_site_occupancy
  _atom_site_fract_x
  _atom_site_fract_y
  _atom_site_fract_z
  _atom_site_thermal_displace_type
  _atom_site_B_iso_or_equiv
  _atom_site_type_symbol
  Cu1      1.0000 0.03487  0.20033  0.38842  Biso   1.000  Cu
  Cu2      1.0000 0.53487  0.29967  0.61158  Biso   1.000  Cu
  Cu3      1.0000 0.96513  0.70033  0.11158  Biso   1.000  Cu
  Cu4      1.0000 0.46513  0.79967  0.88842  Biso   1.000  Cu
  O1       1.0000 0.01380  0.30590  0.19860  Biso   1.000  O
  O2       1.0000 0.51380  0.19410  0.80140  Biso   1.000  O
  O3       1.0000 0.98620  0.80590  0.30140  Biso   1.000  O
  O4       1.0000 0.48620  0.69410  0.69860  Biso   1.000  O
  O5       1.0000 0.37510  0.63300  0.95830  Biso   1.000  O
  O6       1.0000 0.87510  0.86700  0.04170  Biso   1.000  O
  O7       1.0000 0.62490  0.13300  0.54170  Biso   1.000  O
  O8       1.0000 0.12490  0.36700  0.45830  Biso   1.000  O
  O9       1.0000 0.16570  0.73740  0.02610  Biso   1.000  O
  O10      1.0000 0.66570  0.76260  0.97390  Biso   1.000  O
  O11      1.0000 0.83430  0.23740  0.47390  Biso   1.000  O
  O12      1.0000 0.33430  0.26260  0.52610  Biso   1.000  O
  N1       1.0000 0.78390  0.61470  0.19860  Biso   1.000  N
  N2       1.0000 0.28390  0.88530  0.80140  Biso   1.000  N
  N3       1.0000 0.21610  0.11470  0.30140  Biso   1.000  N
  N4       1.0000 0.71610  0.38530  0.69860  Biso   1.000  N
  H1       1.0000 0.76020  0.66430  0.26910  Biso   1.000  H
  H2       1.0000 0.26020  0.83570  0.73090  Biso   1.000  H
  H3       1.0000 0.23980  0.16430  0.23090  Biso   1.000  H
  H4       1.0000 0.73980  0.33570  0.76910  Biso   1.000  H
  H5       1.0000 0.70100  0.61680  0.14600  Biso   1.000  H
  H6       1.0000 0.20100  0.88320  0.85400  Biso   1.000  H
  H7       1.0000 0.29900  0.11680  0.35400  Biso   1.000  H
  H8       1.0000 0.79900  0.38320  0.64600  Biso   1.000  H
  N5       1.0000 0.04240  0.52030  0.11730  Biso   1.000  N
  N6       1.0000 0.54240  0.97970  0.88270  Biso   1.000  N
  N7       1.0000 0.95760  0.02030  0.38270  Biso   1.000  N
  N8       1.0000 0.45760  0.47970  0.61730  Biso   1.000  N
  C1       1.0000 0.81640  0.47160  0.23500  Biso   1.000  C
  C2       1.0000 0.31640  0.02840  0.76500  Biso   1.000  C
  C3       1.0000 0.18360  0.97160  0.26500  Biso   1.000  C
  C4       1.0000 0.68360  0.52840  0.73500  Biso   1.000  C
  H9       1.0000 0.82630  0.46970  0.32830  Biso   1.000  H
  H10      1.0000 0.32630  0.03030  0.67170  Biso   1.000  H
  H11      1.0000 0.17370  0.96970  0.17170  Biso   1.000  H
  H12      1.0000 0.67370  0.53030  0.82830  Biso   1.000  H
  C5       1.0000 0.96960  0.42560  0.18080  Biso   1.000  C
  C6       1.0000 0.46960  0.07440  0.81920  Biso   1.000  C
  C7       1.0000 0.03040  0.92560  0.31920  Biso   1.000  C
  C8       1.0000 0.53040  0.57440  0.68080  Biso   1.000  C
  C9       1.0000 0.68660  0.37400  0.20010  Biso   1.000  C
  C10      1.0000 0.18660  0.12600  0.79990  Biso   1.000  C
  C11      1.0000 0.31340  0.87400  0.29990  Biso   1.000  C
  C12      1.0000 0.81340  0.62600  0.70010  Biso   1.000  C
  H13      1.0000 0.71980  0.28000  0.22320  Biso   1.000  H
  H14      1.0000 0.21980  0.22000  0.77680  Biso   1.000  H
  H15      1.0000 0.28020  0.78000  0.27680  Biso   1.000  H
  H16      1.0000 0.78020  0.72000  0.72320  Biso   1.000  H
  C13      1.0000 0.65450  0.37490  0.05970  Biso   1.000  C
  C14      1.0000 0.15450  0.12510  0.94030  Biso   1.000  C
  C15      1.0000 0.34550  0.87490  0.44030  Biso   1.000  C
  C16      1.0000 0.84550  0.62510  0.55970  Biso   1.000  C
  H17      1.0000 0.58060  0.30340  0.03960  Biso   1.000  H
  H18      1.0000 0.08060  0.19660  0.96040  Biso   1.000  H
  H19      1.0000 0.41940  0.80340  0.46040  Biso   1.000  H
  H20      1.0000 0.91940  0.69660  0.53960  Biso   1.000  H
  H21      1.0000 0.74940  0.35840  0.01380  Biso   1.000  H
  H22      1.0000 0.24940  0.14160  0.98620  Biso   1.000  H
  H23      1.0000 0.25060  0.85840  0.48620  Biso   1.000  H
  H24      1.0000 0.75060  0.64160  0.51380  Biso   1.000  H
  H25      1.0000 0.61270  0.46350  0.03560  Biso   1.000  H
  H26      1.0000 0.11270  0.03650  0.96440  Biso   1.000  H
  H27      1.0000 0.38730  0.96350  0.46440  Biso   1.000  H
  H28      1.0000 0.88730  0.53650  0.53560  Biso   1.000  H
  C17      1.0000 0.54370  0.40630  0.27560  Biso   1.000  C
  C18      1.0000 0.04370  0.09370  0.72440  Biso   1.000  C
  C19      1.0000 0.45630  0.90630  0.22440  Biso   1.000  C
  C20      1.0000 0.95630  0.59370  0.77560  Biso   1.000  C
  H29      1.0000 0.56810  0.40480  0.36520  Biso   1.000  H
  H30      1.0000 0.06810  0.09520  0.63480  Biso   1.000  H
  H31      1.0000 0.43190  0.90480  0.13480  Biso   1.000  H
  H32      1.0000 0.93190  0.59520  0.86520  Biso   1.000  H
  H33      1.0000 0.46510  0.33830  0.25760  Biso   1.000  H
  H34      1.0000 0.96510  0.16170  0.74240  Biso   1.000  H
  H35      1.0000 0.53490  0.83830  0.24240  Biso   1.000  H
  H36      1.0000 0.03490  0.66170  0.75760  Biso   1.000  H
  H37      1.0000 0.50620  0.49680  0.25250  Biso   1.000  H
  H38      1.0000 0.00620  0.00320  0.74750  Biso   1.000  H
  H39      1.0000 0.49380  0.99680  0.24750  Biso   1.000  H
  H40      1.0000 0.99380  0.50320  0.75250  Biso   1.000  H
  C21      1.0000 0.19040  0.49810  0.06340  Biso   1.000  C
  C22      1.0000 0.69040  0.00190  0.93660  Biso   1.000  C
  C23      1.0000 0.80960  0.99810  0.43660  Biso   1.000  C
  C24      1.0000 0.30960  0.50190  0.56340  Biso   1.000  C
  H41      1.0000 0.18360  0.43030  0.99510  Biso   1.000  H
  H42      1.0000 0.68360  0.06970  0.00490  Biso   1.000  H
  H43      1.0000 0.81640  0.93030  0.50490  Biso   1.000  H
  H44      1.0000 0.31640  0.56970  0.49510  Biso   1.000  H
  H45      1.0000 0.26140  0.46320  0.12780  Biso   1.000  H
  H46      1.0000 0.76140  0.03680  0.87220  Biso   1.000  H
  H47      1.0000 0.73860  0.96320  0.37220  Biso   1.000  H
  H48      1.0000 0.23860  0.53680  0.62780  Biso   1.000  H
  C25      1.0000 0.24770  0.63280  0.01220  Biso   1.000  C
  C26      1.0000 0.74770  0.86720  0.98780  Biso   1.000  C
  C27      1.0000 0.75230  0.13280  0.48780  Biso   1.000  C
  C28      1.0000 0.25230  0.36720  0.51220  Biso   1.000  C
