data_image0
_cell_length_a       8.918
_cell_length_b       9.831
_cell_length_c       10.763
_cell_angle_alpha    90
_cell_angle_beta     90
_cell_angle_gamma    90

_symmetry_space_group_name_H-M    "P 1"
_symmetry_int_tables_number       1

loop_
  _symmetry_equiv_pos_as_xyz
  'x, y, z'

loop_
  _atom_site_label
  _atom_site_occupancy
  _atom_site_fract_x
  _atom_site_fract_y
  _atom_site_fract_z
  _atom_site_thermal_displace_type
  _atom_site_B_iso_or_equiv
  _atom_site_type_symbol
  Cu1      1.0000 0.03908  0.19935  0.89281  Biso   1.000  Cu
  Cu2      1.0000 0.46092  0.80065  0.39281  Biso   1.000  Cu
  Cu3      1.0000 0.53908  0.30065  0.10719  Biso   1.000  Cu
  Cu4      1.0000 0.96092  0.69935  0.60719  Biso   1.000  Cu
  N1       1.0000 0.95881  0.02238  0.88030  Biso   1.000  N
  N2       1.0000 0.54119  0.97762  0.38030  Biso   1.000  N
  N3       1.0000 0.45881  0.47762  0.11970  Biso   1.000  N
  N4       1.0000 0.04119  0.52238  0.61970  Biso   1.000  N
  O1       1.0000 0.84144  0.23832  0.97635  Biso   1.000  O
  O2       1.0000 0.65856  0.76168  0.47635  Biso   1.000  O
  O3       1.0000 0.34144  0.26168  0.02365  Biso   1.000  O
  O4       1.0000 0.15856  0.73832  0.52365  Biso   1.000  O
  N5       1.0000 0.21489  0.11293  0.80491  Biso   1.000  N
  N6       1.0000 0.28511  0.88707  0.30491  Biso   1.000  N
  N7       1.0000 0.71489  0.38707  0.19509  Biso   1.000  N
  N8       1.0000 0.78511  0.61293  0.69509  Biso   1.000  N
  H1       1.0000 0.23690  0.16130  0.73630  Biso   1.000  H
  H2       1.0000 0.26310  0.83870  0.23630  Biso   1.000  H
  H3       1.0000 0.73690  0.33870  0.26370  Biso   1.000  H
  H4       1.0000 0.76310  0.66130  0.76370  Biso   1.000  H
  H5       1.0000 0.29550  0.11460  0.85510  Biso   1.000  H
  H6       1.0000 0.20450  0.88540  0.35510  Biso   1.000  H
  H7       1.0000 0.79550  0.38540  0.14490  Biso   1.000  H
  H8       1.0000 0.70450  0.61460  0.64490  Biso   1.000  H
  C1       1.0000 0.02764  0.92775  0.81672  Biso   1.000  C
  C2       1.0000 0.47236  0.07225  0.31672  Biso   1.000  C
  C3       1.0000 0.52764  0.57225  0.18328  Biso   1.000  C
  C4       1.0000 0.97236  0.42775  0.68328  Biso   1.000  C
  C5       1.0000 0.75590  0.13638  0.98398  Biso   1.000  C
  C6       1.0000 0.74410  0.86362  0.48398  Biso   1.000  C
  C7       1.0000 0.25590  0.36362  0.01602  Biso   1.000  C
  C8       1.0000 0.24410  0.63638  0.51602  Biso   1.000  C
  C9       1.0000 0.18149  0.96971  0.76923  Biso   1.000  C
  C10      1.0000 0.31851  0.03029  0.26923  Biso   1.000  C
  C11      1.0000 0.68149  0.53029  0.23077  Biso   1.000  C
  C12      1.0000 0.81851  0.46971  0.73077  Biso   1.000  C
  H9       1.0000 0.17690  0.96710  0.67830  Biso   1.000  H
  H10      1.0000 0.32310  0.03290  0.17830  Biso   1.000  H
  H11      1.0000 0.67690  0.53290  0.32170  Biso   1.000  H
  H12      1.0000 0.82310  0.46710  0.82170  Biso   1.000  H
  C13      1.0000 0.80846  0.00297  0.92940  Biso   1.000  C
  C14      1.0000 0.69154  0.99703  0.42940  Biso   1.000  C
  C15      1.0000 0.30846  0.49703  0.07060  Biso   1.000  C
  C16      1.0000 0.19154  0.50297  0.57060  Biso   1.000  C
  H13      1.0000 0.80930  0.93310  0.99300  Biso   1.000  H
  H14      1.0000 0.69070  0.06690  0.49300  Biso   1.000  H
  H15      1.0000 0.30930  0.56690  0.00700  Biso   1.000  H
  H16      1.0000 0.19070  0.43310  0.50700  Biso   1.000  H
  H17      1.0000 0.74120  0.97450  0.86350  Biso   1.000  H
  H18      1.0000 0.75880  0.02550  0.36350  Biso   1.000  H
  H19      1.0000 0.24120  0.52550  0.13650  Biso   1.000  H
  H20      1.0000 0.25880  0.47450  0.63650  Biso   1.000  H
  O5       1.0000 0.62868  0.13746  0.03246  Biso   1.000  O
  O6       1.0000 0.87132  0.86254  0.53246  Biso   1.000  O
  O7       1.0000 0.12868  0.36254  0.96754  Biso   1.000  O
  O8       1.0000 0.37132  0.63746  0.46754  Biso   1.000  O
  O9       1.0000 0.97992  0.81053  0.79541  Biso   1.000  O
  O10      1.0000 0.52008  0.18947  0.29541  Biso   1.000  O
  O11      1.0000 0.47992  0.68947  0.20459  Biso   1.000  O
  O12      1.0000 0.02008  0.31053  0.70459  Biso   1.000  O
  C17      1.0000 0.30389  0.87093  0.80859  Biso   1.000  C
  C18      1.0000 0.19611  0.12907  0.30859  Biso   1.000  C
  C19      1.0000 0.80389  0.62907  0.19141  Biso   1.000  C
  C20      1.0000 0.69611  0.37093  0.69141  Biso   1.000  C
  H21      1.0000 0.26990  0.77910  0.78720  Biso   1.000  H
  H22      1.0000 0.23010  0.22090  0.28720  Biso   1.000  H
  H23      1.0000 0.76990  0.72090  0.21280  Biso   1.000  H
  H24      1.0000 0.73010  0.27910  0.71280  Biso   1.000  H
  C21      1.0000 0.45002  0.89713  0.73759  Biso   1.000  C
  C22      1.0000 0.04998  0.10287  0.23759  Biso   1.000  C
  C23      1.0000 0.95002  0.60287  0.26241  Biso   1.000  C
  C24      1.0000 0.54998  0.39713  0.76241  Biso   1.000  C
  H25      1.0000 0.43120  0.89210  0.64990  Biso   1.000  H
  H26      1.0000 0.06880  0.10790  0.14990  Biso   1.000  H
  H27      1.0000 0.93120  0.60790  0.35010  Biso   1.000  H
  H28      1.0000 0.56880  0.39210  0.85010  Biso   1.000  H
  H29      1.0000 0.52300  0.82970  0.76030  Biso   1.000  H
  H30      1.0000 0.97700  0.17030  0.26030  Biso   1.000  H
  H31      1.0000 0.02300  0.67030  0.23970  Biso   1.000  H
  H32      1.0000 0.47700  0.32970  0.73970  Biso   1.000  H
  H33      1.0000 0.48740  0.98590  0.75810  Biso   1.000  H
  H34      1.0000 0.01260  0.01410  0.25810  Biso   1.000  H
  H35      1.0000 0.98740  0.51410  0.24190  Biso   1.000  H
  H36      1.0000 0.51260  0.48590  0.74190  Biso   1.000  H
  C25      1.0000 0.33032  0.87437  0.94855  Biso   1.000  C
  C26      1.0000 0.16968  0.12563  0.44855  Biso   1.000  C
  C27      1.0000 0.83032  0.62563  0.05145  Biso   1.000  C
  C28      1.0000 0.66968  0.37437  0.55145  Biso   1.000  C
  H37      1.0000 0.37770  0.95860  0.97080  Biso   1.000  H
  H38      1.0000 0.12230  0.04140  0.47080  Biso   1.000  H
  H39      1.0000 0.87770  0.54140  0.02920  Biso   1.000  H
  H40      1.0000 0.62230  0.45860  0.52920  Biso   1.000  H
  H41      1.0000 0.39380  0.79980  0.97190  Biso   1.000  H
  H42      1.0000 0.10620  0.20020  0.47190  Biso   1.000  H
  H43      1.0000 0.89380  0.70020  0.02810  Biso   1.000  H
  H44      1.0000 0.60620  0.29980  0.52810  Biso   1.000  H
  H45      1.0000 0.23600  0.86690  0.99100  Biso   1.000  H
  H46      1.0000 0.26400  0.13310  0.49100  Biso   1.000  H
  H47      1.0000 0.73600  0.63310  0.00900  Biso   1.000  H
  H48      1.0000 0.76400  0.36690  0.50900  Biso   1.000  H
