data_image0
_cell_length_a       28.643
_cell_length_b       13.224
_cell_length_c       8.6601
_cell_angle_alpha    90
_cell_angle_beta     105.16
_cell_angle_gamma    90

_symmetry_space_group_name_H-M    "P 1"
_symmetry_int_tables_number       1

loop_
  _symmetry_equiv_pos_as_xyz
  'x, y, z'

loop_
  _atom_site_label
  _atom_site_occupancy
  _atom_site_fract_x
  _atom_site_fract_y
  _atom_site_fract_z
  _atom_site_thermal_displace_type
  _atom_site_B_iso_or_equiv
  _atom_site_type_symbol
  Cu1      1.0000 0.21203  0.28369  0.89146  Biso   1.000  Cu
  Cu2      1.0000 0.78797  0.28369  0.60854  Biso   1.000  Cu
  Cu3      1.0000 0.71203  0.78369  0.89146  Biso   1.000  Cu
  Cu4      1.0000 0.28797  0.78369  0.60854  Biso   1.000  Cu
  Cu5      1.0000 0.78797  0.71631  0.10854  Biso   1.000  Cu
  Cu6      1.0000 0.21203  0.71631  0.39146  Biso   1.000  Cu
  Cu7      1.0000 0.28797  0.21631  0.10854  Biso   1.000  Cu
  Cu8      1.0000 0.71203  0.21631  0.39146  Biso   1.000  Cu
  O1       1.0000 0.24413  0.41480  0.94350  Biso   1.000  O
  O2       1.0000 0.75587  0.41480  0.55650  Biso   1.000  O
  O3       1.0000 0.74413  0.91480  0.94350  Biso   1.000  O
  O4       1.0000 0.25587  0.91480  0.55650  Biso   1.000  O
  O5       1.0000 0.75587  0.58520  0.05650  Biso   1.000  O
  O6       1.0000 0.24413  0.58520  0.44350  Biso   1.000  O
  O7       1.0000 0.25587  0.08520  0.05650  Biso   1.000  O
  O8       1.0000 0.74413  0.08520  0.44350  Biso   1.000  O
  O9       1.0000 0.30848  0.35820  0.12460  Biso   1.000  O
  O10      1.0000 0.69152  0.35820  0.37540  Biso   1.000  O
  O11      1.0000 0.80848  0.85820  0.12460  Biso   1.000  O
  O12      1.0000 0.19152  0.85820  0.37540  Biso   1.000  O
  O13      1.0000 0.69152  0.64180  0.87540  Biso   1.000  O
  O14      1.0000 0.30848  0.64180  0.62460  Biso   1.000  O
  O15      1.0000 0.19152  0.14180  0.87540  Biso   1.000  O
  O16      1.0000 0.80848  0.14180  0.62460  Biso   1.000  O
  O17      1.0000 0.25154  0.25370  0.74500  Biso   1.000  O
  O18      1.0000 0.74846  0.25370  0.75500  Biso   1.000  O
  O19      1.0000 0.75154  0.75370  0.74500  Biso   1.000  O
  O20      1.0000 0.24846  0.75370  0.75500  Biso   1.000  O
  O21      1.0000 0.74846  0.74630  0.25500  Biso   1.000  O
  O22      1.0000 0.25154  0.74630  0.24500  Biso   1.000  O
  O23      1.0000 0.24846  0.24630  0.25500  Biso   1.000  O
  O24      1.0000 0.75154  0.24630  0.24500  Biso   1.000  O
  O25      1.0000 0.31716  0.19900  0.92790  Biso   1.000  O
  O26      1.0000 0.68284  0.19900  0.57210  Biso   1.000  O
  O27      1.0000 0.81716  0.69900  0.92790  Biso   1.000  O
  O28      1.0000 0.18284  0.69900  0.57210  Biso   1.000  O
  O29      1.0000 0.68284  0.80100  0.07210  Biso   1.000  O
  O30      1.0000 0.31716  0.80100  0.42790  Biso   1.000  O
  O31      1.0000 0.18284  0.30100  0.07210  Biso   1.000  O
  O32      1.0000 0.81716  0.30100  0.42790  Biso   1.000  O
  N1       1.0000 0.15111  0.34390  0.70810  Biso   1.000  N
  N2       1.0000 0.84889  0.34390  0.79190  Biso   1.000  N
  N3       1.0000 0.65111  0.84390  0.70810  Biso   1.000  N
  N4       1.0000 0.34889  0.84390  0.79190  Biso   1.000  N
  N5       1.0000 0.84889  0.65610  0.29190  Biso   1.000  N
  N6       1.0000 0.15111  0.65610  0.20810  Biso   1.000  N
  N7       1.0000 0.34889  0.15610  0.29190  Biso   1.000  N
  N8       1.0000 0.65111  0.15610  0.20810  Biso   1.000  N
  N9       1.0000 0.00000  0.39710  0.25000  Biso   1.000  N
  N10      1.0000 0.50000  0.89710  0.25000  Biso   1.000  N
  N11      1.0000 0.00000  0.60290  0.75000  Biso   1.000  N
  N12      1.0000 0.50000  0.10290  0.75000  Biso   1.000  N
  N13      1.0000 0.02040  0.55690  0.31140  Biso   1.000  N
  N14      1.0000 0.97960  0.55690  0.18860  Biso   1.000  N
  N15      1.0000 0.52040  0.05690  0.31140  Biso   1.000  N
  N16      1.0000 0.47960  0.05690  0.18860  Biso   1.000  N
  N17      1.0000 0.97960  0.44310  0.68860  Biso   1.000  N
  N18      1.0000 0.02040  0.44310  0.81140  Biso   1.000  N
  N19      1.0000 0.47960  0.94310  0.68860  Biso   1.000  N
  N20      1.0000 0.52040  0.94310  0.81140  Biso   1.000  N
  C1       1.0000 0.14950  0.43990  0.65910  Biso   1.000  C
  C2       1.0000 0.85050  0.43990  0.84090  Biso   1.000  C
  C3       1.0000 0.64950  0.93990  0.65910  Biso   1.000  C
  C4       1.0000 0.35050  0.93990  0.84090  Biso   1.000  C
  C5       1.0000 0.85050  0.56010  0.34090  Biso   1.000  C
  C6       1.0000 0.14950  0.56010  0.15910  Biso   1.000  C
  C7       1.0000 0.35050  0.06010  0.34090  Biso   1.000  C
  C8       1.0000 0.64950  0.06010  0.15910  Biso   1.000  C
  H1       1.0000 0.17550  0.48120  0.70760  Biso   1.000  H
  H2       1.0000 0.82450  0.48120  0.79240  Biso   1.000  H
  H3       1.0000 0.67550  0.98120  0.70760  Biso   1.000  H
  H4       1.0000 0.32450  0.98120  0.79240  Biso   1.000  H
  H5       1.0000 0.82450  0.51880  0.29240  Biso   1.000  H
  H6       1.0000 0.17550  0.51880  0.20760  Biso   1.000  H
  H7       1.0000 0.32450  0.01880  0.29240  Biso   1.000  H
  H8       1.0000 0.67550  0.01880  0.20760  Biso   1.000  H
  C9       1.0000 0.11300  0.48260  0.54360  Biso   1.000  C
  C10      1.0000 0.88700  0.48260  0.95640  Biso   1.000  C
  C11      1.0000 0.61300  0.98260  0.54360  Biso   1.000  C
  C12      1.0000 0.38700  0.98260  0.95640  Biso   1.000  C
  C13      1.0000 0.88700  0.51740  0.45640  Biso   1.000  C
  C14      1.0000 0.11300  0.51740  0.04360  Biso   1.000  C
  C15      1.0000 0.38700  0.01740  0.45640  Biso   1.000  C
  C16      1.0000 0.61300  0.01740  0.04360  Biso   1.000  C
  H9       1.0000 0.11460  0.54980  0.51370  Biso   1.000  H
  H10      1.0000 0.88540  0.54980  0.98630  Biso   1.000  H
  H11      1.0000 0.61460  0.04980  0.51370  Biso   1.000  H
  H12      1.0000 0.38540  0.04980  0.98630  Biso   1.000  H
  H13      1.0000 0.88540  0.45020  0.48630  Biso   1.000  H
  H14      1.0000 0.11460  0.45020  0.01370  Biso   1.000  H
  H15      1.0000 0.38540  0.95020  0.48630  Biso   1.000  H
  H16      1.0000 0.61460  0.95020  0.01370  Biso   1.000  H
  C17      1.0000 0.07390  0.42360  0.47300  Biso   1.000  C
  C18      1.0000 0.92610  0.42360  0.02700  Biso   1.000  C
  C19      1.0000 0.57390  0.92360  0.47300  Biso   1.000  C
  C20      1.0000 0.42610  0.92360  0.02700  Biso   1.000  C
  C21      1.0000 0.92610  0.57640  0.52700  Biso   1.000  C
  C22      1.0000 0.07390  0.57640  0.97300  Biso   1.000  C
  C23      1.0000 0.42610  0.07640  0.52700  Biso   1.000  C
  C24      1.0000 0.57390  0.07640  0.97300  Biso   1.000  C
  C25      1.0000 0.07370  0.32240  0.51880  Biso   1.000  C
  C26      1.0000 0.92630  0.32240  0.98120  Biso   1.000  C
  C27      1.0000 0.57370  0.82240  0.51880  Biso   1.000  C
  C28      1.0000 0.42630  0.82240  0.98120  Biso   1.000  C
  C29      1.0000 0.92630  0.67760  0.48120  Biso   1.000  C
  C30      1.0000 0.07370  0.67760  0.01880  Biso   1.000  C
  C31      1.0000 0.42630  0.17760  0.48120  Biso   1.000  C
  C32      1.0000 0.57370  0.17760  0.01880  Biso   1.000  C
  H17      1.0000 0.04800  0.27950  0.47330  Biso   1.000  H
  H18      1.0000 0.95200  0.27950  0.02670  Biso   1.000  H
  H19      1.0000 0.54800  0.77950  0.47330  Biso   1.000  H
  H20      1.0000 0.45200  0.77950  0.02670  Biso   1.000  H
  H21      1.0000 0.95200  0.72050  0.52670  Biso   1.000  H
  H22      1.0000 0.04800  0.72050  0.97330  Biso   1.000  H
  H23      1.0000 0.45200  0.22050  0.52670  Biso   1.000  H
  H24      1.0000 0.54800  0.22050  0.97330  Biso   1.000  H
  C33      1.0000 0.11370  0.28900  0.63590  Biso   1.000  C
  C34      1.0000 0.88630  0.28900  0.86410  Biso   1.000  C
  C35      1.0000 0.61370  0.78900  0.63590  Biso   1.000  C
  C36      1.0000 0.38630  0.78900  0.86410  Biso   1.000  C
  C37      1.0000 0.88630  0.71100  0.36410  Biso   1.000  C
  C38      1.0000 0.11370  0.71100  0.13590  Biso   1.000  C
  C39      1.0000 0.38630  0.21100  0.36410  Biso   1.000  C
  C40      1.0000 0.61370  0.21100  0.13590  Biso   1.000  C
  H25      1.0000 0.11390  0.22140  0.66590  Biso   1.000  H
  H26      1.0000 0.88610  0.22140  0.83410  Biso   1.000  H
  H27      1.0000 0.61390  0.72140  0.66590  Biso   1.000  H
  H28      1.0000 0.38610  0.72140  0.83410  Biso   1.000  H
  H29      1.0000 0.88610  0.77860  0.33410  Biso   1.000  H
  H30      1.0000 0.11390  0.77860  0.16590  Biso   1.000  H
  H31      1.0000 0.38610  0.27860  0.33410  Biso   1.000  H
  H32      1.0000 0.61390  0.27860  0.16590  Biso   1.000  H
  C41      1.0000 0.03170  0.45750  0.34500  Biso   1.000  C
  C42      1.0000 0.96830  0.45750  0.15500  Biso   1.000  C
  C43      1.0000 0.53170  0.95750  0.34500  Biso   1.000  C
  C44      1.0000 0.46830  0.95750  0.15500  Biso   1.000  C
  C45      1.0000 0.96830  0.54250  0.65500  Biso   1.000  C
  C46      1.0000 0.03170  0.54250  0.84500  Biso   1.000  C
  C47      1.0000 0.46830  0.04250  0.65500  Biso   1.000  C
  C48      1.0000 0.53170  0.04250  0.84500  Biso   1.000  C
  C49      1.0000 0.28450  0.42610  0.04390  Biso   1.000  C
  C50      1.0000 0.71550  0.42610  0.45610  Biso   1.000  C
  C51      1.0000 0.78450  0.92610  0.04390  Biso   1.000  C
  C52      1.0000 0.21550  0.92610  0.45610  Biso   1.000  C
  C53      1.0000 0.71550  0.57390  0.95610  Biso   1.000  C
  C54      1.0000 0.28450  0.57390  0.54390  Biso   1.000  C
  C55      1.0000 0.21550  0.07390  0.95610  Biso   1.000  C
  C56      1.0000 0.78450  0.07390  0.54390  Biso   1.000  C
  C57      1.0000 0.30260  0.53570  0.06990  Biso   1.000  C
  C58      1.0000 0.69740  0.53570  0.43010  Biso   1.000  C
  C59      1.0000 0.80260  0.03570  0.06990  Biso   1.000  C
  C60      1.0000 0.19740  0.03570  0.43010  Biso   1.000  C
  C61      1.0000 0.69740  0.46430  0.93010  Biso   1.000  C
  C62      1.0000 0.30260  0.46430  0.56990  Biso   1.000  C
  C63      1.0000 0.19740  0.96430  0.93010  Biso   1.000  C
  C64      1.0000 0.80260  0.96430  0.56990  Biso   1.000  C
  H33      1.0000 0.28370  0.57190  0.12860  Biso   1.000  H
  H34      1.0000 0.71630  0.57190  0.37140  Biso   1.000  H
  H35      1.0000 0.78370  0.07190  0.12860  Biso   1.000  H
  H36      1.0000 0.21630  0.07190  0.37140  Biso   1.000  H
  H37      1.0000 0.71630  0.42810  0.87140  Biso   1.000  H
  H38      1.0000 0.28370  0.42810  0.62860  Biso   1.000  H
  H39      1.0000 0.21630  0.92810  0.87140  Biso   1.000  H
  H40      1.0000 0.78370  0.92810  0.62860  Biso   1.000  H
  H41      1.0000 0.29930  0.56770  0.96800  Biso   1.000  H
  H42      1.0000 0.70070  0.56770  0.53200  Biso   1.000  H
  H43      1.0000 0.79930  0.06770  0.96800  Biso   1.000  H
  H44      1.0000 0.20070  0.06770  0.53200  Biso   1.000  H
  H45      1.0000 0.70070  0.43230  0.03200  Biso   1.000  H
  H46      1.0000 0.29930  0.43230  0.46800  Biso   1.000  H
  H47      1.0000 0.20070  0.93230  0.03200  Biso   1.000  H
  H48      1.0000 0.79930  0.93230  0.46800  Biso   1.000  H
  H49      1.0000 0.33600  0.53610  0.12910  Biso   1.000  H
  H50      1.0000 0.66400  0.53610  0.37090  Biso   1.000  H
  H51      1.0000 0.83600  0.03610  0.12910  Biso   1.000  H
  H52      1.0000 0.16400  0.03610  0.37090  Biso   1.000  H
  H53      1.0000 0.66400  0.46390  0.87090  Biso   1.000  H
  H54      1.0000 0.33600  0.46390  0.62910  Biso   1.000  H
  H55      1.0000 0.16400  0.96390  0.87090  Biso   1.000  H
  H56      1.0000 0.83600  0.96390  0.62910  Biso   1.000  H
  C65      1.0000 0.29550  0.21870  0.78740  Biso   1.000  C
  C66      1.0000 0.70450  0.21870  0.71260  Biso   1.000  C
  C67      1.0000 0.79550  0.71870  0.78740  Biso   1.000  C
  C68      1.0000 0.20450  0.71870  0.71260  Biso   1.000  C
  C69      1.0000 0.70450  0.78130  0.21260  Biso   1.000  C
  C70      1.0000 0.29550  0.78130  0.28740  Biso   1.000  C
  C71      1.0000 0.20450  0.28130  0.21260  Biso   1.000  C
  C72      1.0000 0.79550  0.28130  0.28740  Biso   1.000  C
  C73      1.0000 0.31980  0.19860  0.65580  Biso   1.000  C
  C74      1.0000 0.68020  0.19860  0.84420  Biso   1.000  C
  C75      1.0000 0.81980  0.69860  0.65580  Biso   1.000  C
  C76      1.0000 0.18020  0.69860  0.84420  Biso   1.000  C
  C77      1.0000 0.68020  0.80140  0.34420  Biso   1.000  C
  C78      1.0000 0.31980  0.80140  0.15580  Biso   1.000  C
  C79      1.0000 0.18020  0.30140  0.34420  Biso   1.000  C
  C80      1.0000 0.81980  0.30140  0.15580  Biso   1.000  C
  H57      1.0000 0.35180  0.22680  0.68460  Biso   1.000  H
  H58      1.0000 0.64820  0.22680  0.81540  Biso   1.000  H
  H59      1.0000 0.85180  0.72680  0.68460  Biso   1.000  H
  H60      1.0000 0.14820  0.72680  0.81540  Biso   1.000  H
  H61      1.0000 0.64820  0.77320  0.31540  Biso   1.000  H
  H62      1.0000 0.35180  0.77320  0.18460  Biso   1.000  H
  H63      1.0000 0.14820  0.27320  0.31540  Biso   1.000  H
  H64      1.0000 0.85180  0.27320  0.18460  Biso   1.000  H
  H65      1.0000 0.30130  0.22910  0.55840  Biso   1.000  H
  H66      1.0000 0.69870  0.22910  0.94160  Biso   1.000  H
  H67      1.0000 0.80130  0.72910  0.55840  Biso   1.000  H
  H68      1.0000 0.19870  0.72910  0.94160  Biso   1.000  H
  H69      1.0000 0.69870  0.77090  0.44160  Biso   1.000  H
  H70      1.0000 0.30130  0.77090  0.05840  Biso   1.000  H
  H71      1.0000 0.19870  0.27090  0.44160  Biso   1.000  H
  H72      1.0000 0.80130  0.27090  0.05840  Biso   1.000  H
  H73      1.0000 0.32170  0.12690  0.64070  Biso   1.000  H
  H74      1.0000 0.67830  0.12690  0.85930  Biso   1.000  H
  H75      1.0000 0.82170  0.62690  0.64070  Biso   1.000  H
  H76      1.0000 0.17830  0.62690  0.85930  Biso   1.000  H
  H77      1.0000 0.67830  0.87310  0.35930  Biso   1.000  H
  H78      1.0000 0.32170  0.87310  0.14070  Biso   1.000  H
  H79      1.0000 0.17830  0.37310  0.35930  Biso   1.000  H
  H80      1.0000 0.82170  0.37310  0.14070  Biso   1.000  H
