data_image0
_cell_length_a       18.61
_cell_length_b       8.7338
_cell_length_c       12.527
_cell_angle_alpha    90
_cell_angle_beta     90
_cell_angle_gamma    90

_symmetry_space_group_name_H-M    "P 1"
_symmetry_int_tables_number       1

loop_
  _symmetry_equiv_pos_as_xyz
  'x, y, z'

loop_
  _atom_site_label
  _atom_site_occupancy
  _atom_site_fract_x
  _atom_site_fract_y
  _atom_site_fract_z
  _atom_site_thermal_displace_type
  _atom_site_B_iso_or_equiv
  _atom_site_type_symbol
  Cu1      1.0000 0.34077  0.83350  0.37528  Biso   1.000  Cu
  Cu2      1.0000 0.65923  0.16650  0.87528  Biso   1.000  Cu
  Cu3      1.0000 0.15923  0.83350  0.87528  Biso   1.000  Cu
  Cu4      1.0000 0.84077  0.16650  0.37528  Biso   1.000  Cu
  O1       1.0000 0.32879  0.66540  0.26930  Biso   1.000  O
  O2       1.0000 0.67121  0.33460  0.76930  Biso   1.000  O
  O3       1.0000 0.17121  0.66540  0.76930  Biso   1.000  O
  O4       1.0000 0.82879  0.33460  0.26930  Biso   1.000  O
  O5       1.0000 0.33900  0.00550  0.48210  Biso   1.000  O
  O6       1.0000 0.66100  0.99450  0.98210  Biso   1.000  O
  O7       1.0000 0.16100  0.00550  0.98210  Biso   1.000  O
  O8       1.0000 0.83900  0.99450  0.48210  Biso   1.000  O
  O9       1.0000 0.21764  0.83480  0.38310  Biso   1.000  O
  O10      1.0000 0.78236  0.16520  0.88310  Biso   1.000  O
  O11      1.0000 0.28236  0.83480  0.88310  Biso   1.000  O
  O12      1.0000 0.71764  0.16520  0.38310  Biso   1.000  O
  O13      1.0000 0.44443  0.65700  0.25840  Biso   1.000  O
  O14      1.0000 0.55557  0.34300  0.75840  Biso   1.000  O
  O15      1.0000 0.05557  0.65700  0.75840  Biso   1.000  O
  O16      1.0000 0.94443  0.34300  0.25840  Biso   1.000  O
  O17      1.0000 0.37956  0.52780  0.14620  Biso   1.000  O
  O18      1.0000 0.62044  0.47220  0.64620  Biso   1.000  O
  O19      1.0000 0.12044  0.52780  0.64620  Biso   1.000  O
  O20      1.0000 0.87956  0.47220  0.14620  Biso   1.000  O
  O21      1.0000 0.45262  0.96980  0.45440  Biso   1.000  O
  O22      1.0000 0.54738  0.03020  0.95440  Biso   1.000  O
  O23      1.0000 0.04738  0.96980  0.95440  Biso   1.000  O
  O24      1.0000 0.95262  0.03020  0.45440  Biso   1.000  O
  O25      1.0000 0.41730  0.13640  0.57210  Biso   1.000  O
  O26      1.0000 0.58270  0.86360  0.07210  Biso   1.000  O
  O27      1.0000 0.08270  0.13640  0.07210  Biso   1.000  O
  O28      1.0000 0.91730  0.86360  0.57210  Biso   1.000  O
  N1       1.0000 0.35746  0.68800  0.49540  Biso   1.000  N
  N2       1.0000 0.64254  0.31200  0.99540  Biso   1.000  N
  N3       1.0000 0.14254  0.68800  0.99540  Biso   1.000  N
  N4       1.0000 0.85746  0.31200  0.49540  Biso   1.000  N
  N5       1.0000 0.34115  0.98360  0.25660  Biso   1.000  N
  N6       1.0000 0.65885  0.01640  0.75660  Biso   1.000  N
  N7       1.0000 0.15885  0.98360  0.75660  Biso   1.000  N
  N8       1.0000 0.84115  0.01640  0.25660  Biso   1.000  N
  N9       1.0000 0.34386  0.37580  0.82840  Biso   1.000  N
  N10      1.0000 0.65614  0.62420  0.32840  Biso   1.000  N
  N11      1.0000 0.15614  0.37580  0.32840  Biso   1.000  N
  N12      1.0000 0.84386  0.62420  0.82840  Biso   1.000  N
  N13      1.0000 0.36378  0.27220  0.90930  Biso   1.000  N
  N14      1.0000 0.63622  0.72780  0.40930  Biso   1.000  N
  N15      1.0000 0.13622  0.27220  0.40930  Biso   1.000  N
  N16      1.0000 0.86378  0.72780  0.90930  Biso   1.000  N
  N17      1.0000 0.38550  0.61450  0.22300  Biso   1.000  N
  N18      1.0000 0.61450  0.38550  0.72300  Biso   1.000  N
  N19      1.0000 0.11450  0.61450  0.72300  Biso   1.000  N
  N20      1.0000 0.88550  0.38550  0.22300  Biso   1.000  N
  N21      1.0000 0.40490  0.03940  0.50360  Biso   1.000  N
  N22      1.0000 0.59510  0.96060  0.00360  Biso   1.000  N
  N23      1.0000 0.09510  0.03940  0.00360  Biso   1.000  N
  N24      1.0000 0.90490  0.96060  0.50360  Biso   1.000  N
  N25      1.0000 0.09951  0.77850  0.35370  Biso   1.000  N
  N26      1.0000 0.90049  0.22150  0.85370  Biso   1.000  N
  N27      1.0000 0.40049  0.77850  0.85370  Biso   1.000  N
  N28      1.0000 0.59951  0.22150  0.35370  Biso   1.000  N
  C1       1.0000 0.41950  0.60990  0.50580  Biso   1.000  C
  C2       1.0000 0.58050  0.39010  0.00580  Biso   1.000  C
  C3       1.0000 0.08050  0.60990  0.00580  Biso   1.000  C
  C4       1.0000 0.91950  0.39010  0.50580  Biso   1.000  C
  H1       1.0000 0.45570  0.62510  0.45580  Biso   1.000  H
  H2       1.0000 0.54430  0.37490  0.95580  Biso   1.000  H
  H3       1.0000 0.04430  0.62510  0.95580  Biso   1.000  H
  H4       1.0000 0.95570  0.37490  0.45580  Biso   1.000  H
  C5       1.0000 0.43070  0.51000  0.58680  Biso   1.000  C
  C6       1.0000 0.56930  0.49000  0.08680  Biso   1.000  C
  C7       1.0000 0.06930  0.51000  0.08680  Biso   1.000  C
  C8       1.0000 0.93070  0.49000  0.58680  Biso   1.000  C
  H5       1.0000 0.47400  0.45750  0.59140  Biso   1.000  H
  H6       1.0000 0.52600  0.54250  0.09140  Biso   1.000  H
  H7       1.0000 0.02600  0.45750  0.09140  Biso   1.000  H
  H8       1.0000 0.97400  0.54250  0.59140  Biso   1.000  H
  C9       1.0000 0.37771  0.48540  0.66300  Biso   1.000  C
  C10      1.0000 0.62229  0.51460  0.16300  Biso   1.000  C
  C11      1.0000 0.12229  0.48540  0.16300  Biso   1.000  C
  C12      1.0000 0.87771  0.51460  0.66300  Biso   1.000  C
  C13      1.0000 0.31447  0.56720  0.65290  Biso   1.000  C
  C14      1.0000 0.68553  0.43280  0.15290  Biso   1.000  C
  C15      1.0000 0.18553  0.56720  0.15290  Biso   1.000  C
  C16      1.0000 0.81447  0.43280  0.65290  Biso   1.000  C
  H9       1.0000 0.27760  0.55500  0.70230  Biso   1.000  H
  H10      1.0000 0.72240  0.44500  0.20230  Biso   1.000  H
  H11      1.0000 0.22240  0.55500  0.20230  Biso   1.000  H
  H12      1.0000 0.77760  0.44500  0.70230  Biso   1.000  H
  C17      1.0000 0.30680  0.66690  0.56870  Biso   1.000  C
  C18      1.0000 0.69320  0.33310  0.06870  Biso   1.000  C
  C19      1.0000 0.19320  0.66690  0.06870  Biso   1.000  C
  C20      1.0000 0.80680  0.33310  0.56870  Biso   1.000  C
  H13      1.0000 0.26420  0.72200  0.56280  Biso   1.000  H
  H14      1.0000 0.73580  0.27800  0.06280  Biso   1.000  H
  H15      1.0000 0.23580  0.72200  0.06280  Biso   1.000  H
  H16      1.0000 0.76420  0.27800  0.56280  Biso   1.000  H
  C21      1.0000 0.38880  0.38020  0.75310  Biso   1.000  C
  C22      1.0000 0.61120  0.61980  0.25310  Biso   1.000  C
  C23      1.0000 0.11120  0.38020  0.25310  Biso   1.000  C
  C24      1.0000 0.88880  0.61980  0.75310  Biso   1.000  C
  H17      1.0000 0.42900  0.31680  0.75450  Biso   1.000  H
  H18      1.0000 0.57100  0.68320  0.25450  Biso   1.000  H
  H19      1.0000 0.07100  0.31680  0.25450  Biso   1.000  H
  H20      1.0000 0.92900  0.68320  0.75450  Biso   1.000  H
  C25      1.0000 0.31990  0.27360  0.98520  Biso   1.000  C
  C26      1.0000 0.68010  0.72640  0.48520  Biso   1.000  C
  C27      1.0000 0.18010  0.27360  0.48520  Biso   1.000  C
  C28      1.0000 0.81990  0.72640  0.98520  Biso   1.000  C
  H21      1.0000 0.28050  0.33910  0.98220  Biso   1.000  H
  H22      1.0000 0.71950  0.66090  0.48220  Biso   1.000  H
  H23      1.0000 0.21950  0.33910  0.48220  Biso   1.000  H
  H24      1.0000 0.78050  0.66090  0.98220  Biso   1.000  H
  C29      1.0000 0.39179  0.98570  0.17950  Biso   1.000  C
  C30      1.0000 0.60821  0.01430  0.67950  Biso   1.000  C
  C31      1.0000 0.10821  0.98570  0.67950  Biso   1.000  C
  C32      1.0000 0.89179  0.01430  0.17950  Biso   1.000  C
  H25      1.0000 0.43150  0.92190  0.18680  Biso   1.000  H
  H26      1.0000 0.56850  0.07810  0.68680  Biso   1.000  H
  H27      1.0000 0.06850  0.92190  0.68680  Biso   1.000  H
  H28      1.0000 0.93150  0.07810  0.18680  Biso   1.000  H
  C33      1.0000 0.38746  0.07790  0.09060  Biso   1.000  C
  C34      1.0000 0.61254  0.92210  0.59060  Biso   1.000  C
  C35      1.0000 0.11254  0.07790  0.59060  Biso   1.000  C
  C36      1.0000 0.88746  0.92210  0.09060  Biso   1.000  C
  H29      1.0000 0.42330  0.07540  0.03880  Biso   1.000  H
  H30      1.0000 0.57670  0.92460  0.53880  Biso   1.000  H
  H31      1.0000 0.07670  0.07540  0.53880  Biso   1.000  H
  H32      1.0000 0.92330  0.92460  0.03880  Biso   1.000  H
  C37      1.0000 0.32930  0.17390  0.07930  Biso   1.000  C
  C38      1.0000 0.67070  0.82610  0.57930  Biso   1.000  C
  C39      1.0000 0.17070  0.17390  0.57930  Biso   1.000  C
  C40      1.0000 0.82930  0.82610  0.07930  Biso   1.000  C
  C41      1.0000 0.27840  0.17400  0.15850  Biso   1.000  C
  C42      1.0000 0.72160  0.82600  0.65850  Biso   1.000  C
  C43      1.0000 0.22160  0.17400  0.65850  Biso   1.000  C
  C44      1.0000 0.77840  0.82600  0.15850  Biso   1.000  C
  H33      1.0000 0.23880  0.23850  0.15330  Biso   1.000  H
  H34      1.0000 0.76120  0.76150  0.65330  Biso   1.000  H
  H35      1.0000 0.26120  0.23850  0.65330  Biso   1.000  H
  H36      1.0000 0.73880  0.76150  0.15330  Biso   1.000  H
  C45      1.0000 0.28550  0.07940  0.24550  Biso   1.000  C
  C46      1.0000 0.71450  0.92060  0.74550  Biso   1.000  C
  C47      1.0000 0.21450  0.07940  0.74550  Biso   1.000  C
  C48      1.0000 0.78550  0.92060  0.24550  Biso   1.000  C
  H37      1.0000 0.25050  0.08200  0.29850  Biso   1.000  H
  H38      1.0000 0.74950  0.91800  0.79850  Biso   1.000  H
  H39      1.0000 0.24950  0.08200  0.79850  Biso   1.000  H
  H40      1.0000 0.75050  0.91800  0.29850  Biso   1.000  H
  C49      1.0000 0.16349  0.75740  0.39910  Biso   1.000  C
  C50      1.0000 0.83651  0.24260  0.89910  Biso   1.000  C
  C51      1.0000 0.33651  0.75740  0.89910  Biso   1.000  C
  C52      1.0000 0.66349  0.24260  0.39910  Biso   1.000  C
  H41      1.0000 0.16760  0.67690  0.44740  Biso   1.000  H
  H42      1.0000 0.83240  0.32310  0.94740  Biso   1.000  H
  H43      1.0000 0.33240  0.67690  0.94740  Biso   1.000  H
  H44      1.0000 0.66760  0.32310  0.44740  Biso   1.000  H
  C53      1.0000 0.08750  0.89740  0.27570  Biso   1.000  C
  C54      1.0000 0.91250  0.10260  0.77570  Biso   1.000  C
  C55      1.0000 0.41250  0.89740  0.77570  Biso   1.000  C
  C56      1.0000 0.58750  0.10260  0.27570  Biso   1.000  C
  H45      1.0000 0.06760  0.98590  0.31020  Biso   1.000  H
  H46      1.0000 0.93240  0.01410  0.81020  Biso   1.000  H
  H47      1.0000 0.43240  0.98590  0.81020  Biso   1.000  H
  H48      1.0000 0.56760  0.01410  0.31020  Biso   1.000  H
  H49      1.0000 0.05470  0.86120  0.22220  Biso   1.000  H
  H50      1.0000 0.94530  0.13880  0.72220  Biso   1.000  H
  H51      1.0000 0.44530  0.86120  0.72220  Biso   1.000  H
  H52      1.0000 0.55470  0.13880  0.22220  Biso   1.000  H
  H53      1.0000 0.13240  0.92430  0.24270  Biso   1.000  H
  H54      1.0000 0.86760  0.07570  0.74270  Biso   1.000  H
  H55      1.0000 0.36760  0.92430  0.74270  Biso   1.000  H
  H56      1.0000 0.63240  0.07570  0.24270  Biso   1.000  H
  C57      1.0000 0.03850  0.68530  0.38640  Biso   1.000  C
  C58      1.0000 0.96150  0.31470  0.88640  Biso   1.000  C
  C59      1.0000 0.46150  0.68530  0.88640  Biso   1.000  C
  C60      1.0000 0.53850  0.31470  0.38640  Biso   1.000  C
  H57      1.0000 0.05440  0.60820  0.43570  Biso   1.000  H
  H58      1.0000 0.94560  0.39180  0.93570  Biso   1.000  H
  H59      1.0000 0.44560  0.60820  0.93570  Biso   1.000  H
  H60      1.0000 0.55440  0.39180  0.43570  Biso   1.000  H
  H61      1.0000 0.01770  0.63710  0.32480  Biso   1.000  H
  H62      1.0000 0.98230  0.36290  0.82480  Biso   1.000  H
  H63      1.0000 0.48230  0.63710  0.82480  Biso   1.000  H
  H64      1.0000 0.51770  0.36290  0.32480  Biso   1.000  H
  H65      1.0000 0.00320  0.74910  0.42020  Biso   1.000  H
  H66      1.0000 0.99680  0.25090  0.92020  Biso   1.000  H
  H67      1.0000 0.49680  0.74910  0.92020  Biso   1.000  H
  H68      1.0000 0.50320  0.25090  0.42020  Biso   1.000  H
