data_image0
_cell_length_a       10.987
_cell_length_b       14.8918
_cell_length_c       14.9875
_cell_angle_alpha    90
_cell_angle_beta     107.941
_cell_angle_gamma    90

_symmetry_space_group_name_H-M    "P 1"
_symmetry_int_tables_number       1

loop_
  _symmetry_equiv_pos_as_xyz
  'x, y, z'

loop_
  _atom_site_label
  _atom_site_occupancy
  _atom_site_fract_x
  _atom_site_fract_y
  _atom_site_fract_z
  _atom_site_thermal_displace_type
  _atom_site_B_iso_or_equiv
  _atom_site_type_symbol
  Cu1      1.0000 0.28116  0.84637  0.15160  Biso   1.000  Cu
  Cu2      1.0000 0.21884  0.34637  0.34840  Biso   1.000  Cu
  Cu3      1.0000 0.71884  0.15363  0.84840  Biso   1.000  Cu
  Cu4      1.0000 0.78116  0.65363  0.65160  Biso   1.000  Cu
  S1       1.0000 0.32785  0.53294  0.38974  Biso   1.000  S
  S2       1.0000 0.17215  0.03294  0.11026  Biso   1.000  S
  S3       1.0000 0.67215  0.46706  0.61026  Biso   1.000  S
  S4       1.0000 0.82785  0.96706  0.88974  Biso   1.000  S
  N1       1.0000 0.39190  0.86826  0.07068  Biso   1.000  N
  N2       1.0000 0.10810  0.36826  0.42932  Biso   1.000  N
  N3       1.0000 0.60810  0.13174  0.92932  Biso   1.000  N
  N4       1.0000 0.89190  0.63174  0.57068  Biso   1.000  N
  N5       1.0000 0.42616  0.79566  0.26198  Biso   1.000  N
  N6       1.0000 0.07384  0.29566  0.23802  Biso   1.000  N
  N7       1.0000 0.57384  0.20434  0.73802  Biso   1.000  N
  N8       1.0000 0.92616  0.70434  0.76198  Biso   1.000  N
  N9       1.0000 0.15222  0.82949  0.22054  Biso   1.000  N
  N10      1.0000 0.34778  0.32949  0.27946  Biso   1.000  N
  N11      1.0000 0.84778  0.17051  0.77946  Biso   1.000  N
  N12      1.0000 0.65222  0.67051  0.72054  Biso   1.000  N
  O1       1.0000 0.19012  0.73026  0.05971  Biso   1.000  O
  O2       1.0000 0.30988  0.23026  0.44029  Biso   1.000  O
  O3       1.0000 0.80988  0.26974  0.94029  Biso   1.000  O
  O4       1.0000 0.69012  0.76974  0.55971  Biso   1.000  O
  O5       1.0000 0.33938  0.44026  0.42803  Biso   1.000  O
  O6       1.0000 0.16062  0.94026  0.07197  Biso   1.000  O
  O7       1.0000 0.66062  0.55974  0.57197  Biso   1.000  O
  O8       1.0000 0.83938  0.05974  0.92803  Biso   1.000  O
  O9       1.0000 0.33373  0.59942  0.46122  Biso   1.000  O
  O10      1.0000 0.16627  0.09942  0.03878  Biso   1.000  O
  O11      1.0000 0.66627  0.40058  0.53878  Biso   1.000  O
  O12      1.0000 0.83373  0.90058  0.96122  Biso   1.000  O
  O13      1.0000 0.21447  0.53915  0.30753  Biso   1.000  O
  O14      1.0000 0.28553  0.03915  0.19247  Biso   1.000  O
  O15      1.0000 0.78553  0.46085  0.69247  Biso   1.000  O
  O16      1.0000 0.71447  0.96085  0.80753  Biso   1.000  O
  C1       1.0000 0.33552  0.86049  0.97755  Biso   1.000  C
  C2       1.0000 0.16448  0.36049  0.52245  Biso   1.000  C
  C3       1.0000 0.66448  0.13951  0.02245  Biso   1.000  C
  C4       1.0000 0.83552  0.63951  0.47755  Biso   1.000  C
  C5       1.0000 0.40120  0.87115  0.91364  Biso   1.000  C
  C6       1.0000 0.09880  0.37115  0.58636  Biso   1.000  C
  C7       1.0000 0.59880  0.12885  0.08636  Biso   1.000  C
  C8       1.0000 0.90120  0.62885  0.41364  Biso   1.000  C
  C9       1.0000 0.53020  0.89042  0.94593  Biso   1.000  C
  C10      1.0000 0.96980  0.39042  0.55407  Biso   1.000  C
  C11      1.0000 0.46980  0.10958  0.05407  Biso   1.000  C
  C12      1.0000 0.03020  0.60958  0.44593  Biso   1.000  C
  C13      1.0000 0.58854  0.90041  0.04133  Biso   1.000  C
  C14      1.0000 0.91146  0.40041  0.45867  Biso   1.000  C
  C15      1.0000 0.41146  0.09959  0.95867  Biso   1.000  C
  C16      1.0000 0.08854  0.59959  0.54133  Biso   1.000  C
  C17      1.0000 0.51699  0.88961  0.10262  Biso   1.000  C
  C18      1.0000 0.98301  0.38961  0.39738  Biso   1.000  C
  C19      1.0000 0.48301  0.11039  0.89738  Biso   1.000  C
  C20      1.0000 0.01699  0.61039  0.60262  Biso   1.000  C
  C21      1.0000 0.57300  0.89717  0.20689  Biso   1.000  C
  C22      1.0000 0.92700  0.39717  0.29311  Biso   1.000  C
  C23      1.0000 0.42700  0.10283  0.79311  Biso   1.000  C
  C24      1.0000 0.07300  0.60283  0.70689  Biso   1.000  C
  C25      1.0000 0.55699  0.80880  0.25364  Biso   1.000  C
  C26      1.0000 0.94301  0.30880  0.24636  Biso   1.000  C
  C27      1.0000 0.44301  0.19120  0.74636  Biso   1.000  C
  C28      1.0000 0.05699  0.69120  0.75364  Biso   1.000  C
  C29      1.0000 0.41779  0.84812  0.34542  Biso   1.000  C
  C30      1.0000 0.08221  0.34812  0.15458  Biso   1.000  C
  C31      1.0000 0.58221  0.15188  0.65458  Biso   1.000  C
  C32      1.0000 0.91779  0.65188  0.84542  Biso   1.000  C
  C33      1.0000 0.30671  0.82457  0.38085  Biso   1.000  C
  C34      1.0000 0.19329  0.32457  0.11915  Biso   1.000  C
  C35      1.0000 0.69329  0.17543  0.61915  Biso   1.000  C
  C36      1.0000 0.80671  0.67543  0.88085  Biso   1.000  C
  C37      1.0000 0.17305  0.82796  0.31390  Biso   1.000  C
  C38      1.0000 0.32695  0.32796  0.18610  Biso   1.000  C
  C39      1.0000 0.82695  0.17204  0.68610  Biso   1.000  C
  C40      1.0000 0.67305  0.67204  0.81390  Biso   1.000  C
  C41      1.0000 0.07100  0.82449  0.35070  Biso   1.000  C
  C42      1.0000 0.42900  0.32449  0.14930  Biso   1.000  C
  C43      1.0000 0.92900  0.17551  0.64930  Biso   1.000  C
  C44      1.0000 0.57100  0.67551  0.85070  Biso   1.000  C
  C45      1.0000 0.94750  0.82024  0.29211  Biso   1.000  C
  C46      1.0000 0.55250  0.32024  0.20789  Biso   1.000  C
  C47      1.0000 0.05250  0.17976  0.70789  Biso   1.000  C
  C48      1.0000 0.44750  0.67976  0.79211  Biso   1.000  C
  C49      1.0000 0.92636  0.81807  0.19606  Biso   1.000  C
  C50      1.0000 0.57364  0.31807  0.30394  Biso   1.000  C
  C51      1.0000 0.07364  0.18193  0.80394  Biso   1.000  C
  C52      1.0000 0.42636  0.68193  0.69606  Biso   1.000  C
  C53      1.0000 0.02958  0.82410  0.16326  Biso   1.000  C
  C54      1.0000 0.47042  0.32410  0.33674  Biso   1.000  C
  C55      1.0000 0.97042  0.17590  0.83674  Biso   1.000  C
  C56      1.0000 0.52958  0.67590  0.66326  Biso   1.000  C
  C57      1.0000 0.40079  0.69751  0.26756  Biso   1.000  C
  C58      1.0000 0.09921  0.19751  0.23244  Biso   1.000  C
  C59      1.0000 0.59921  0.30249  0.73244  Biso   1.000  C
  C60      1.0000 0.90079  0.80249  0.76756  Biso   1.000  C
  C61      1.0000 0.49977  0.64685  0.34482  Biso   1.000  C
  C62      1.0000 0.00023  0.14685  0.15518  Biso   1.000  C
  C63      1.0000 0.50023  0.35315  0.65518  Biso   1.000  C
  C64      1.0000 0.99977  0.85315  0.84482  Biso   1.000  C
  C65      1.0000 0.46534  0.54866  0.35181  Biso   1.000  C
  C66      1.0000 0.03466  0.04866  0.14819  Biso   1.000  C
  C67      1.0000 0.53466  0.45134  0.64819  Biso   1.000  C
  C68      1.0000 0.96534  0.95134  0.85181  Biso   1.000  C
  H1       1.0000 0.25100  0.84630  0.96140  Biso   1.000  H
  H2       1.0000 0.24900  0.34630  0.53860  Biso   1.000  H
  H3       1.0000 0.74900  0.15370  0.03860  Biso   1.000  H
  H4       1.0000 0.75100  0.65370  0.46140  Biso   1.000  H
  H5       1.0000 0.36000  0.86470  0.84960  Biso   1.000  H
  H6       1.0000 0.14000  0.36470  0.65040  Biso   1.000  H
  H7       1.0000 0.64000  0.13530  0.15040  Biso   1.000  H
  H8       1.0000 0.86000  0.63530  0.34960  Biso   1.000  H
  H9       1.0000 0.57500  0.89760  0.90700  Biso   1.000  H
  H10      1.0000 0.92500  0.39760  0.59300  Biso   1.000  H
  H11      1.0000 0.42500  0.10240  0.09300  Biso   1.000  H
  H12      1.0000 0.07500  0.60240  0.40700  Biso   1.000  H
  H13      1.0000 0.67100  0.91670  0.06480  Biso   1.000  H
  H14      1.0000 0.82900  0.41670  0.43520  Biso   1.000  H
  H15      1.0000 0.32900  0.08330  0.93520  Biso   1.000  H
  H16      1.0000 0.17100  0.58330  0.56480  Biso   1.000  H
  H17      1.0000 0.53700  0.94550  0.23030  Biso   1.000  H
  H18      1.0000 0.96300  0.44550  0.26970  Biso   1.000  H
  H19      1.0000 0.46300  0.05450  0.76970  Biso   1.000  H
  H20      1.0000 0.03700  0.55450  0.73030  Biso   1.000  H
  H21      1.0000 0.65800  0.90990  0.22150  Biso   1.000  H
  H22      1.0000 0.84200  0.40990  0.27850  Biso   1.000  H
  H23      1.0000 0.34200  0.09010  0.77850  Biso   1.000  H
  H24      1.0000 0.15800  0.59010  0.72150  Biso   1.000  H
  H25      1.0000 0.57400  0.75830  0.21710  Biso   1.000  H
  H26      1.0000 0.92600  0.25830  0.28290  Biso   1.000  H
  H27      1.0000 0.42600  0.24170  0.78290  Biso   1.000  H
  H28      1.0000 0.07400  0.74170  0.71710  Biso   1.000  H
  H29      1.0000 0.61400  0.80530  0.31070  Biso   1.000  H
  H30      1.0000 0.88600  0.30530  0.18930  Biso   1.000  H
  H31      1.0000 0.38600  0.19470  0.68930  Biso   1.000  H
  H32      1.0000 0.11400  0.69470  0.81070  Biso   1.000  H
  H33      1.0000 0.41700  0.91000  0.33150  Biso   1.000  H
  H34      1.0000 0.08300  0.41000  0.16850  Biso   1.000  H
  H35      1.0000 0.58300  0.09000  0.66850  Biso   1.000  H
  H36      1.0000 0.91700  0.59000  0.83150  Biso   1.000  H
  H37      1.0000 0.49400  0.84000  0.39590  Biso   1.000  H
  H38      1.0000 0.00600  0.34000  0.10410  Biso   1.000  H
  H39      1.0000 0.50600  0.16000  0.60410  Biso   1.000  H
  H40      1.0000 0.99400  0.66000  0.89590  Biso   1.000  H
  H41      1.0000 0.31000  0.86820  0.43050  Biso   1.000  H
  H42      1.0000 0.19000  0.36820  0.06950  Biso   1.000  H
  H43      1.0000 0.69000  0.13180  0.56950  Biso   1.000  H
  H44      1.0000 0.81000  0.63180  0.93050  Biso   1.000  H
  H45      1.0000 0.31700  0.76520  0.40580  Biso   1.000  H
  H46      1.0000 0.18300  0.26520  0.09420  Biso   1.000  H
  H47      1.0000 0.68300  0.23480  0.59420  Biso   1.000  H
  H48      1.0000 0.81700  0.73480  0.90580  Biso   1.000  H
  H49      1.0000 0.08800  0.82440  0.41040  Biso   1.000  H
  H50      1.0000 0.41200  0.32440  0.08960  Biso   1.000  H
  H51      1.0000 0.91200  0.17560  0.58960  Biso   1.000  H
  H52      1.0000 0.58800  0.67560  0.91040  Biso   1.000  H
  H53      1.0000 0.88500  0.82050  0.31560  Biso   1.000  H
  H54      1.0000 0.61500  0.32050  0.18440  Biso   1.000  H
  H55      1.0000 0.11500  0.17950  0.68440  Biso   1.000  H
  H56      1.0000 0.38500  0.67950  0.81560  Biso   1.000  H
  H57      1.0000 0.84600  0.81370  0.15220  Biso   1.000  H
  H58      1.0000 0.65400  0.31370  0.34780  Biso   1.000  H
  H59      1.0000 0.15400  0.18630  0.84780  Biso   1.000  H
  H60      1.0000 0.34600  0.68630  0.65220  Biso   1.000  H
  H61      1.0000 0.01800  0.82680  0.09520  Biso   1.000  H
  H62      1.0000 0.48200  0.32680  0.40480  Biso   1.000  H
  H63      1.0000 0.98200  0.17320  0.90480  Biso   1.000  H
  H64      1.0000 0.51800  0.67320  0.59520  Biso   1.000  H
  H65      1.0000 0.31900  0.69230  0.27510  Biso   1.000  H
  H66      1.0000 0.18100  0.19230  0.22490  Biso   1.000  H
  H67      1.0000 0.68100  0.30770  0.72490  Biso   1.000  H
  H68      1.0000 0.81900  0.80770  0.77510  Biso   1.000  H
  H69      1.0000 0.39600  0.67300  0.20640  Biso   1.000  H
  H70      1.0000 0.10400  0.17300  0.29360  Biso   1.000  H
  H71      1.0000 0.60400  0.32700  0.79360  Biso   1.000  H
  H72      1.0000 0.89600  0.82700  0.70640  Biso   1.000  H
  H73      1.0000 0.51100  0.67590  0.40130  Biso   1.000  H
  H74      1.0000 0.98900  0.17590  0.09870  Biso   1.000  H
  H75      1.0000 0.48900  0.32410  0.59870  Biso   1.000  H
  H76      1.0000 0.01100  0.82410  0.90130  Biso   1.000  H
  H77      1.0000 0.58000  0.64450  0.33220  Biso   1.000  H
  H78      1.0000 0.92000  0.14450  0.16780  Biso   1.000  H
  H79      1.0000 0.42000  0.35550  0.66780  Biso   1.000  H
  H80      1.0000 0.08000  0.85550  0.83220  Biso   1.000  H
  H81      1.0000 0.53100  0.52030  0.39630  Biso   1.000  H
  H82      1.0000 0.96900  0.02030  0.10370  Biso   1.000  H
  H83      1.0000 0.46900  0.47970  0.60370  Biso   1.000  H
  H84      1.0000 0.03100  0.97970  0.89630  Biso   1.000  H
  H85      1.0000 0.44900  0.51880  0.29380  Biso   1.000  H
  H86      1.0000 0.05100  0.01880  0.20620  Biso   1.000  H
  H87      1.0000 0.55100  0.48120  0.70620  Biso   1.000  H
  H88      1.0000 0.94900  0.98120  0.79380  Biso   1.000  H
  H89      1.0000 0.23400  0.70500  0.03800  Biso   1.000  H
  H90      1.0000 0.26600  0.20500  0.46200  Biso   1.000  H
  H91      1.0000 0.76600  0.29500  0.96200  Biso   1.000  H
  H92      1.0000 0.73400  0.79500  0.53800  Biso   1.000  H
  H93      1.0000 0.14900  0.68700  0.08200  Biso   1.000  H
  H94      1.0000 0.35100  0.18700  0.41800  Biso   1.000  H
  H95      1.0000 0.85100  0.31300  0.91800  Biso   1.000  H
  H96      1.0000 0.64900  0.81300  0.58200  Biso   1.000  H
  Cl1      1.0000 0.69976  0.59071  0.12874  Biso   1.000  Cl
  Cl2      1.0000 0.80024  0.09071  0.37126  Biso   1.000  Cl
  Cl3      1.0000 0.30024  0.40929  0.87126  Biso   1.000  Cl
  Cl4      1.0000 0.19976  0.90929  0.62874  Biso   1.000  Cl
  O17      1.0000 0.62670  0.67075  0.09513  Biso   1.000  O
  O18      1.0000 0.87330  0.17075  0.40487  Biso   1.000  O
  O19      1.0000 0.37330  0.32925  0.90487  Biso   1.000  O
  O20      1.0000 0.12670  0.82925  0.59513  Biso   1.000  O
  O21      1.0000 0.64690  0.54088  0.18854  Biso   1.000  O
  O22      1.0000 0.85310  0.04088  0.31146  Biso   1.000  O
  O23      1.0000 0.35310  0.45912  0.81146  Biso   1.000  O
  O24      1.0000 0.14690  0.95912  0.68854  Biso   1.000  O
  O25      1.0000 0.82940  0.61530  0.17975  Biso   1.000  O
  O26      1.0000 0.67060  0.11530  0.32025  Biso   1.000  O
  O27      1.0000 0.17060  0.38470  0.82025  Biso   1.000  O
  O28      1.0000 0.32940  0.88470  0.67975  Biso   1.000  O
  O29      1.0000 0.70270  0.53884  0.04862  Biso   1.000  O
  O30      1.0000 0.79730  0.03884  0.45138  Biso   1.000  O
  O31      1.0000 0.29730  0.46116  0.95138  Biso   1.000  O
  O32      1.0000 0.20270  0.96116  0.54862  Biso   1.000  O
  O33      1.0000 0.35750  0.64422  0.98765  Biso   1.000  O
  O34      1.0000 0.14250  0.14422  0.51235  Biso   1.000  O
  O35      1.0000 0.64250  0.35578  0.01235  Biso   1.000  O
  O36      1.0000 0.85750  0.85578  0.48765  Biso   1.000  O
  H97      1.0000 0.43600  0.64700  0.02700  Biso   1.000  H
  H98      1.0000 0.06400  0.14700  0.47300  Biso   1.000  H
  H99      1.0000 0.56400  0.35300  0.97300  Biso   1.000  H
  H100     1.0000 0.93600  0.85300  0.52700  Biso   1.000  H
  H101     1.0000 0.35400  0.59000  0.97700  Biso   1.000  H
  H102     1.0000 0.14600  0.09000  0.52300  Biso   1.000  H
  H103     1.0000 0.64600  0.41000  0.02300  Biso   1.000  H
  H104     1.0000 0.85400  0.91000  0.47700  Biso   1.000  H
  O37      1.0000 0.06861  0.60398  0.13330  Biso   1.000  O
  O38      1.0000 0.43139  0.10398  0.36670  Biso   1.000  O
  O39      1.0000 0.93139  0.39602  0.86670  Biso   1.000  O
  O40      1.0000 0.56861  0.89602  0.63330  Biso   1.000  O
  H105     1.0000 0.12000  0.58500  0.18700  Biso   1.000  H
  H106     1.0000 0.38000  0.08500  0.31300  Biso   1.000  H
  H107     1.0000 0.88000  0.41500  0.81300  Biso   1.000  H
  H108     1.0000 0.62000  0.91500  0.68700  Biso   1.000  H
  H109     1.0000 0.99100  0.60200  0.14200  Biso   1.000  H
  H110     1.0000 0.50900  0.10200  0.35800  Biso   1.000  H
  H111     1.0000 0.00900  0.39800  0.85800  Biso   1.000  H
  H112     1.0000 0.49100  0.89800  0.64200  Biso   1.000  H
