data_image0
_cell_length_a       8.2969
_cell_length_b       12.2834
_cell_length_c       17.4667
_cell_angle_alpha    90
_cell_angle_beta     96.574
_cell_angle_gamma    90

_symmetry_space_group_name_H-M    "P 1"
_symmetry_int_tables_number       1

loop_
  _symmetry_equiv_pos_as_xyz
  'x, y, z'

loop_
  _atom_site_label
  _atom_site_occupancy
  _atom_site_fract_x
  _atom_site_fract_y
  _atom_site_fract_z
  _atom_site_thermal_displace_type
  _atom_site_B_iso_or_equiv
  _atom_site_type_symbol
  Cu1      1.0000 0.00000  0.00000  0.50000  Biso   1.000  Cu
  Cu2      1.0000 0.50000  0.50000  0.00000  Biso   1.000  Cu
  O1       1.0000 0.77327  0.10606  0.71382  Biso   1.000  O
  O2       1.0000 0.27327  0.39394  0.21382  Biso   1.000  O
  O3       1.0000 0.22673  0.89394  0.28618  Biso   1.000  O
  O4       1.0000 0.72673  0.60606  0.78618  Biso   1.000  O
  O5       1.0000 0.87896  0.26995  0.70331  Biso   1.000  O
  O6       1.0000 0.37896  0.23005  0.20331  Biso   1.000  O
  O7       1.0000 0.12104  0.73005  0.29669  Biso   1.000  O
  O8       1.0000 0.62104  0.76995  0.79669  Biso   1.000  O
  O9       1.0000 0.80040  0.48455  0.65807  Biso   1.000  O
  O10      1.0000 0.30040  0.01545  0.15807  Biso   1.000  O
  O11      1.0000 0.19960  0.51545  0.34193  Biso   1.000  O
  O12      1.0000 0.69960  0.98455  0.84193  Biso   1.000  O
  H1       1.0000 0.81700  0.42400  0.67100  Biso   1.000  H
  H2       1.0000 0.31700  0.07600  0.17100  Biso   1.000  H
  H3       1.0000 0.18300  0.57600  0.32900  Biso   1.000  H
  H4       1.0000 0.68300  0.92400  0.82900  Biso   1.000  H
  H5       1.0000 0.76700  0.51900  0.69240  Biso   1.000  H
  H6       1.0000 0.26700  0.98100  0.19240  Biso   1.000  H
  H7       1.0000 0.23300  0.48100  0.30760  Biso   1.000  H
  H8       1.0000 0.73300  0.01900  0.80760  Biso   1.000  H
  O13      1.0000 0.76805  0.99804  0.57004  Biso   1.000  O
  O14      1.0000 0.26805  0.50196  0.07004  Biso   1.000  O
  O15      1.0000 0.23195  0.00196  0.42996  Biso   1.000  O
  O16      1.0000 0.73195  0.49804  0.92996  Biso   1.000  O
  H9       1.0000 0.75300  0.02410  0.61060  Biso   1.000  H
  H10      1.0000 0.25300  0.47590  0.11060  Biso   1.000  H
  H11      1.0000 0.24700  0.97590  0.38940  Biso   1.000  H
  H12      1.0000 0.74700  0.52410  0.88940  Biso   1.000  H
  H13      1.0000 0.72600  0.94200  0.56460  Biso   1.000  H
  H14      1.0000 0.22600  0.55800  0.06460  Biso   1.000  H
  H15      1.0000 0.27400  0.05800  0.43540  Biso   1.000  H
  H16      1.0000 0.77400  0.44200  0.93540  Biso   1.000  H
  N1       1.0000 0.23717  0.98692  0.72286  Biso   1.000  N
  N2       1.0000 0.73717  0.51308  0.22286  Biso   1.000  N
  N3       1.0000 0.76283  0.01308  0.27714  Biso   1.000  N
  N4       1.0000 0.26283  0.48692  0.77714  Biso   1.000  N
  N5       1.0000 0.14847  0.99612  0.59954  Biso   1.000  N
  N6       1.0000 0.64847  0.50388  0.09954  Biso   1.000  N
  N7       1.0000 0.85153  0.00388  0.40046  Biso   1.000  N
  N8       1.0000 0.35153  0.49612  0.90046  Biso   1.000  N
  N9       1.0000 0.39445  0.82988  0.97384  Biso   1.000  N
  N10      1.0000 0.89445  0.67012  0.47384  Biso   1.000  N
  N11      1.0000 0.60555  0.17012  0.02616  Biso   1.000  N
  N12      1.0000 0.10555  0.32988  0.52616  Biso   1.000  N
  N13      1.0000 0.48707  0.66539  0.00389  Biso   1.000  N
  N14      1.0000 0.98707  0.83461  0.50389  Biso   1.000  N
  N15      1.0000 0.51293  0.33461  0.99611  Biso   1.000  N
  N16      1.0000 0.01293  0.16539  0.49611  Biso   1.000  N
  N17      1.0000 0.07017  0.16059  0.95003  Biso   1.000  N
  N18      1.0000 0.57017  0.33941  0.45003  Biso   1.000  N
  N19      1.0000 0.92983  0.83941  0.04997  Biso   1.000  N
  N20      1.0000 0.42983  0.66059  0.54997  Biso   1.000  N
  N21      1.0000 0.90290  0.29896  0.96037  Biso   1.000  N
  N22      1.0000 0.40290  0.20104  0.46037  Biso   1.000  N
  N23      1.0000 0.09710  0.70104  0.03963  Biso   1.000  N
  N24      1.0000 0.59710  0.79896  0.53963  Biso   1.000  N
  C1       1.0000 0.23510  0.99047  0.80402  Biso   1.000  C
  C2       1.0000 0.73510  0.50953  0.30402  Biso   1.000  C
  C3       1.0000 0.76490  0.00953  0.19598  Biso   1.000  C
  C4       1.0000 0.26490  0.49047  0.69598  Biso   1.000  C
  C5       1.0000 0.31880  0.91077  0.84902  Biso   1.000  C
  C6       1.0000 0.81880  0.58923  0.34902  Biso   1.000  C
  C7       1.0000 0.68120  0.08923  0.15098  Biso   1.000  C
  C8       1.0000 0.18120  0.41077  0.65098  Biso   1.000  C
  H17      1.0000 0.37810  0.85570  0.82620  Biso   1.000  H
  H18      1.0000 0.87810  0.64430  0.32620  Biso   1.000  H
  H19      1.0000 0.62190  0.14430  0.17380  Biso   1.000  H
  H20      1.0000 0.12190  0.35570  0.67380  Biso   1.000  H
  C9       1.0000 0.31340  0.91379  0.92781  Biso   1.000  C
  C10      1.0000 0.81340  0.58621  0.42781  Biso   1.000  C
  C11      1.0000 0.68660  0.08621  0.07219  Biso   1.000  C
  C12      1.0000 0.18660  0.41379  0.57219  Biso   1.000  C
  C13      1.0000 0.22870  0.99387  0.96294  Biso   1.000  C
  C14      1.0000 0.72870  0.50613  0.46294  Biso   1.000  C
  C15      1.0000 0.77130  0.00613  0.03706  Biso   1.000  C
  C16      1.0000 0.27130  0.49387  0.53706  Biso   1.000  C
  H21      1.0000 0.22400  0.99380  0.01700  Biso   1.000  H
  H22      1.0000 0.72400  0.50620  0.51700  Biso   1.000  H
  H23      1.0000 0.77600  0.00620  0.98300  Biso   1.000  H
  H24      1.0000 0.27600  0.49380  0.48300  Biso   1.000  H
  C17      1.0000 0.15060  0.07435  0.91579  Biso   1.000  C
  C18      1.0000 0.65060  0.42565  0.41579  Biso   1.000  C
  C19      1.0000 0.84940  0.92565  0.08421  Biso   1.000  C
  C20      1.0000 0.34940  0.57435  0.58421  Biso   1.000  C
  C21      1.0000 0.15300  0.07341  0.83653  Biso   1.000  C
  C22      1.0000 0.65300  0.42659  0.33653  Biso   1.000  C
  C23      1.0000 0.84700  0.92659  0.16347  Biso   1.000  C
  C24      1.0000 0.34700  0.57341  0.66347  Biso   1.000  C
  H25      1.0000 0.09920  0.12860  0.80520  Biso   1.000  H
  H26      1.0000 0.59920  0.37140  0.30520  Biso   1.000  H
  H27      1.0000 0.90080  0.87140  0.19480  Biso   1.000  H
  H28      1.0000 0.40080  0.62860  0.69480  Biso   1.000  H
  C25      1.0000 0.76680  0.20816  0.71574  Biso   1.000  C
  C26      1.0000 0.26680  0.29184  0.21574  Biso   1.000  C
  C27      1.0000 0.23320  0.79184  0.28426  Biso   1.000  C
  C28      1.0000 0.73320  0.70816  0.78426  Biso   1.000  C
  C29      1.0000 0.61150  0.25870  0.73711  Biso   1.000  C
  C30      1.0000 0.11150  0.24130  0.23711  Biso   1.000  C
  C31      1.0000 0.38850  0.74130  0.26289  Biso   1.000  C
  C32      1.0000 0.88850  0.75870  0.76289  Biso   1.000  C
  H29      1.0000 0.53610  0.20100  0.74830  Biso   1.000  H
  H30      1.0000 0.03610  0.29900  0.24830  Biso   1.000  H
  H31      1.0000 0.46390  0.79900  0.25170  Biso   1.000  H
  H32      1.0000 0.96390  0.70100  0.75170  Biso   1.000  H
  H33      1.0000 0.56190  0.30310  0.69410  Biso   1.000  H
  H34      1.0000 0.06190  0.19690  0.19410  Biso   1.000  H
  H35      1.0000 0.43810  0.69690  0.30590  Biso   1.000  H
  H36      1.0000 0.93810  0.80310  0.80590  Biso   1.000  H
  H37      1.0000 0.63610  0.30470  0.78280  Biso   1.000  H
  H38      1.0000 0.13610  0.19530  0.28280  Biso   1.000  H
  H39      1.0000 0.36390  0.69530  0.21720  Biso   1.000  H
  H40      1.0000 0.86390  0.80470  0.71720  Biso   1.000  H
  C33      1.0000 0.11040  0.01185  0.66985  Biso   1.000  C
  C34      1.0000 0.61040  0.48815  0.16985  Biso   1.000  C
  C35      1.0000 0.88960  0.98815  0.33015  Biso   1.000  C
  C36      1.0000 0.38960  0.51185  0.83015  Biso   1.000  C
  H41      1.0000 0.00800  0.03720  0.68180  Biso   1.000  H
  H42      1.0000 0.50800  0.46280  0.18180  Biso   1.000  H
  H43      1.0000 0.99200  0.96280  0.31820  Biso   1.000  H
  H44      1.0000 0.49200  0.53720  0.81820  Biso   1.000  H
  C37      1.0000 0.30680  0.95952  0.60736  Biso   1.000  C
  C38      1.0000 0.80680  0.54048  0.10736  Biso   1.000  C
  C39      1.0000 0.69320  0.04048  0.39264  Biso   1.000  C
  C40      1.0000 0.19320  0.45952  0.89264  Biso   1.000  C
  H45      1.0000 0.36700  0.94190  0.56600  Biso   1.000  H
  H46      1.0000 0.86700  0.55810  0.06600  Biso   1.000  H
  H47      1.0000 0.63300  0.05810  0.43400  Biso   1.000  H
  H48      1.0000 0.13300  0.44190  0.93400  Biso   1.000  H
  C41      1.0000 0.36290  0.95256  0.68301  Biso   1.000  C
  C42      1.0000 0.86290  0.54744  0.18301  Biso   1.000  C
  C43      1.0000 0.63710  0.04744  0.31699  Biso   1.000  C
  C44      1.0000 0.13710  0.45256  0.81699  Biso   1.000  C
  H49      1.0000 0.46740  0.92890  0.70450  Biso   1.000  H
  H50      1.0000 0.96740  0.57110  0.20450  Biso   1.000  H
  H51      1.0000 0.53260  0.07110  0.29550  Biso   1.000  H
  H52      1.0000 0.03260  0.42890  0.79550  Biso   1.000  H
  C45      1.0000 0.41630  0.72723  0.94861  Biso   1.000  C
  C46      1.0000 0.91630  0.77277  0.44861  Biso   1.000  C
  C47      1.0000 0.58370  0.27277  0.05139  Biso   1.000  C
  C48      1.0000 0.08370  0.22723  0.55139  Biso   1.000  C
  H53      1.0000 0.38440  0.70310  0.89750  Biso   1.000  H
  H54      1.0000 0.88440  0.79690  0.39750  Biso   1.000  H
  H55      1.0000 0.61560  0.29690  0.10250  Biso   1.000  H
  H56      1.0000 0.11560  0.20310  0.60250  Biso   1.000  H
  C49      1.0000 0.51240  0.73225  0.06805  Biso   1.000  C
  C50      1.0000 0.01240  0.76775  0.56805  Biso   1.000  C
  C51      1.0000 0.48760  0.26775  0.93195  Biso   1.000  C
  C52      1.0000 0.98760  0.23225  0.43195  Biso   1.000  C
  H57      1.0000 0.56300  0.71030  0.11720  Biso   1.000  H
  H58      1.0000 0.06300  0.78970  0.61720  Biso   1.000  H
  H59      1.0000 0.43700  0.28970  0.88280  Biso   1.000  H
  H60      1.0000 0.93700  0.21030  0.38280  Biso   1.000  H
  C53      1.0000 0.45450  0.83320  0.05066  Biso   1.000  C
  C54      1.0000 0.95450  0.66680  0.55066  Biso   1.000  C
  C55      1.0000 0.54550  0.16680  0.94934  Biso   1.000  C
  C56      1.0000 0.04550  0.33320  0.44934  Biso   1.000  C
  H61      1.0000 0.45510  0.89390  0.08440  Biso   1.000  H
  H62      1.0000 0.95510  0.60610  0.58440  Biso   1.000  H
  H63      1.0000 0.54490  0.10610  0.91560  Biso   1.000  H
  H64      1.0000 0.04490  0.39390  0.41560  Biso   1.000  H
  C57      1.0000 0.94600  0.22200  0.91518  Biso   1.000  C
  C58      1.0000 0.44600  0.27800  0.41518  Biso   1.000  C
  C59      1.0000 0.05400  0.77800  0.08482  Biso   1.000  C
  C60      1.0000 0.55400  0.72200  0.58482  Biso   1.000  C
  H65      1.0000 0.89650  0.21030  0.86410  Biso   1.000  H
  H66      1.0000 0.39650  0.28970  0.36410  Biso   1.000  H
  H67      1.0000 0.10350  0.78970  0.13590  Biso   1.000  H
  H68      1.0000 0.60350  0.71030  0.63590  Biso   1.000  H
  C61      1.0000 0.00370  0.28675  0.02815  Biso   1.000  C
  C62      1.0000 0.50370  0.21325  0.52815  Biso   1.000  C
  C63      1.0000 0.99630  0.71325  0.97185  Biso   1.000  C
  C64      1.0000 0.49630  0.78675  0.47185  Biso   1.000  C
  H69      1.0000 0.00090  0.33130  0.07240  Biso   1.000  H
  H70      1.0000 0.50090  0.16870  0.57240  Biso   1.000  H
  H71      1.0000 0.99910  0.66870  0.92760  Biso   1.000  H
  H72      1.0000 0.49910  0.83130  0.42760  Biso   1.000  H
  C65      1.0000 0.10700  0.20283  0.02304  Biso   1.000  C
  C66      1.0000 0.60700  0.29717  0.52304  Biso   1.000  C
  C67      1.0000 0.89300  0.79717  0.97696  Biso   1.000  C
  C68      1.0000 0.39300  0.70283  0.47696  Biso   1.000  C
  H73      1.0000 0.18830  0.17800  0.06180  Biso   1.000  H
  H74      1.0000 0.68830  0.32200  0.56180  Biso   1.000  H
  H75      1.0000 0.81170  0.82200  0.93820  Biso   1.000  H
  H76      1.0000 0.31170  0.67800  0.43820  Biso   1.000  H
