data_image0
_cell_length_a       24.1919
_cell_length_b       24.1919
_cell_length_c       12.7495
_cell_angle_alpha    90
_cell_angle_beta     90
_cell_angle_gamma    120

_symmetry_space_group_name_H-M    "P 1"
_symmetry_int_tables_number       1

loop_
  _symmetry_equiv_pos_as_xyz
  'x, y, z'

loop_
  _atom_site_label
  _atom_site_occupancy
  _atom_site_fract_x
  _atom_site_fract_y
  _atom_site_fract_z
  _atom_site_thermal_displace_type
  _atom_site_B_iso_or_equiv
  _atom_site_type_symbol
  Cu1      1.0000 0.50257  0.50228  0.80227  Biso   1.000  Cu
  Cu2      1.0000 0.49772  0.00029  0.80227  Biso   1.000  Cu
  Cu3      1.0000 0.99971  0.49743  0.80227  Biso   1.000  Cu
  Cu4      1.0000 0.16924  0.83561  0.13560  Biso   1.000  Cu
  Cu5      1.0000 0.16439  0.33362  0.13560  Biso   1.000  Cu
  Cu6      1.0000 0.66638  0.83076  0.13560  Biso   1.000  Cu
  Cu7      1.0000 0.83590  0.16895  0.46894  Biso   1.000  Cu
  Cu8      1.0000 0.83105  0.66696  0.46894  Biso   1.000  Cu
  Cu9      1.0000 0.33304  0.16410  0.46894  Biso   1.000  Cu
  O1       1.0000 0.53976  0.64347  0.02162  Biso   1.000  O
  O2       1.0000 0.35653  0.89629  0.02162  Biso   1.000  O
  O3       1.0000 0.10371  0.46024  0.02162  Biso   1.000  O
  O4       1.0000 0.20643  0.97680  0.35495  Biso   1.000  O
  O5       1.0000 0.02320  0.22962  0.35495  Biso   1.000  O
  O6       1.0000 0.77038  0.79357  0.35495  Biso   1.000  O
  O7       1.0000 0.87309  0.31014  0.68829  Biso   1.000  O
  O8       1.0000 0.68986  0.56296  0.68829  Biso   1.000  O
  O9       1.0000 0.43704  0.12691  0.68829  Biso   1.000  O
  O10      1.0000 0.46166  0.35658  0.59270  Biso   1.000  O
  O11      1.0000 0.64342  0.10508  0.59270  Biso   1.000  O
  O12      1.0000 0.89492  0.53834  0.59270  Biso   1.000  O
  O13      1.0000 0.12833  0.68991  0.92603  Biso   1.000  O
  O14      1.0000 0.31009  0.43841  0.92603  Biso   1.000  O
  O15      1.0000 0.56159  0.87167  0.92603  Biso   1.000  O
  O16      1.0000 0.79499  0.02325  0.25937  Biso   1.000  O
  O17      1.0000 0.97675  0.77175  0.25937  Biso   1.000  O
  O18      1.0000 0.22825  0.20501  0.25937  Biso   1.000  O
  C1       1.0000 0.44430  0.25260  0.03050  Biso   1.000  C
  C2       1.0000 0.74740  0.19170  0.03050  Biso   1.000  C
  C3       1.0000 0.80830  0.55570  0.03050  Biso   1.000  C
  C4       1.0000 0.11097  0.58593  0.36383  Biso   1.000  C
  C5       1.0000 0.41407  0.52503  0.36383  Biso   1.000  C
  C6       1.0000 0.47497  0.88903  0.36383  Biso   1.000  C
  C7       1.0000 0.77763  0.91927  0.69717  Biso   1.000  C
  C8       1.0000 0.08073  0.85837  0.69717  Biso   1.000  C
  C9       1.0000 0.14163  0.22237  0.69717  Biso   1.000  C
  H1       1.0000 0.40580  0.24150  0.06640  Biso   1.000  H
  H2       1.0000 0.75850  0.16430  0.06640  Biso   1.000  H
  H3       1.0000 0.83570  0.59420  0.06640  Biso   1.000  H
  H4       1.0000 0.07247  0.57483  0.39973  Biso   1.000  H
  H5       1.0000 0.42517  0.49763  0.39973  Biso   1.000  H
  H6       1.0000 0.50237  0.92753  0.39973  Biso   1.000  H
  H7       1.0000 0.73913  0.90817  0.73307  Biso   1.000  H
  H8       1.0000 0.09183  0.83097  0.73307  Biso   1.000  H
  H9       1.0000 0.16903  0.26087  0.73307  Biso   1.000  H
  C10      1.0000 0.60301  0.58583  0.94180  Biso   1.000  C
  C11      1.0000 0.41417  0.01718  0.94180  Biso   1.000  C
  C12      1.0000 0.98282  0.39699  0.94180  Biso   1.000  C
  C13      1.0000 0.26968  0.91916  0.27513  Biso   1.000  C
  C14      1.0000 0.08084  0.35051  0.27513  Biso   1.000  C
  C15      1.0000 0.64949  0.73032  0.27513  Biso   1.000  C
  C16      1.0000 0.93634  0.25250  0.60847  Biso   1.000  C
  C17      1.0000 0.74750  0.68385  0.60847  Biso   1.000  C
  C18      1.0000 0.31615  0.06366  0.60847  Biso   1.000  C
  H10      1.0000 0.60610  0.59880  0.01700  Biso   1.000  H
  H11      1.0000 0.40120  0.00730  0.01700  Biso   1.000  H
  H12      1.0000 0.99270  0.39390  0.01700  Biso   1.000  H
  H13      1.0000 0.27277  0.93213  0.35033  Biso   1.000  H
  H14      1.0000 0.06787  0.34063  0.35033  Biso   1.000  H
  H15      1.0000 0.65937  0.72723  0.35033  Biso   1.000  H
  H16      1.0000 0.93943  0.26547  0.68367  Biso   1.000  H
  H17      1.0000 0.73453  0.67397  0.68367  Biso   1.000  H
  H18      1.0000 0.32603  0.06057  0.68367  Biso   1.000  H
  C19      1.0000 0.60314  0.52323  0.93500  Biso   1.000  C
  C20      1.0000 0.47677  0.07991  0.93500  Biso   1.000  C
  C21      1.0000 0.92009  0.39686  0.93500  Biso   1.000  C
  C22      1.0000 0.26981  0.85656  0.26833  Biso   1.000  C
  C23      1.0000 0.14344  0.41324  0.26833  Biso   1.000  C
  C24      1.0000 0.58676  0.73019  0.26833  Biso   1.000  C
  C25      1.0000 0.93647  0.18990  0.60167  Biso   1.000  C
  C26      1.0000 0.81010  0.74658  0.60167  Biso   1.000  C
  C27      1.0000 0.25342  0.06353  0.60167  Biso   1.000  C
  H19      1.0000 0.64700  0.53110  0.94630  Biso   1.000  H
  H20      1.0000 0.46890  0.11590  0.94630  Biso   1.000  H
  H21      1.0000 0.88410  0.35300  0.94630  Biso   1.000  H
  H22      1.0000 0.31367  0.86443  0.27963  Biso   1.000  H
  H23      1.0000 0.13557  0.44923  0.27963  Biso   1.000  H
  H24      1.0000 0.55077  0.68633  0.27963  Biso   1.000  H
  H25      1.0000 0.98033  0.19777  0.61297  Biso   1.000  H
  H26      1.0000 0.80223  0.78257  0.61297  Biso   1.000  H
  H27      1.0000 0.21743  0.01967  0.61297  Biso   1.000  H
  H28      1.0000 0.57530  0.49380  0.99040  Biso   1.000  H
  H29      1.0000 0.50620  0.08150  0.99040  Biso   1.000  H
  H30      1.0000 0.91850  0.42470  0.99040  Biso   1.000  H
  H31      1.0000 0.24197  0.82713  0.32373  Biso   1.000  H
  H32      1.0000 0.17287  0.41483  0.32373  Biso   1.000  H
  H33      1.0000 0.58517  0.75803  0.32373  Biso   1.000  H
  H34      1.0000 0.90863  0.16047  0.65707  Biso   1.000  H
  H35      1.0000 0.83953  0.74817  0.65707  Biso   1.000  H
  H36      1.0000 0.25183  0.09137  0.65707  Biso   1.000  H
  N1       1.0000 0.54247  0.57581  0.89770  Biso   1.000  N
  N2       1.0000 0.42419  0.96666  0.89770  Biso   1.000  N
  N3       1.0000 0.03334  0.45753  0.89770  Biso   1.000  N
  N4       1.0000 0.20914  0.90914  0.23103  Biso   1.000  N
  N5       1.0000 0.09086  0.29999  0.23103  Biso   1.000  N
  N6       1.0000 0.70001  0.79086  0.23103  Biso   1.000  N
  N7       1.0000 0.87580  0.24248  0.56437  Biso   1.000  N
  N8       1.0000 0.75752  0.63333  0.56437  Biso   1.000  N
  N9       1.0000 0.36667  0.12420  0.56437  Biso   1.000  N
  N10      1.0000 0.57989  0.49377  0.83090  Biso   1.000  N
  N11      1.0000 0.50623  0.08612  0.83090  Biso   1.000  N
  N12      1.0000 0.91388  0.42011  0.83090  Biso   1.000  N
  N13      1.0000 0.24656  0.82710  0.16423  Biso   1.000  N
  N14      1.0000 0.17290  0.41945  0.16423  Biso   1.000  N
  N15      1.0000 0.58055  0.75344  0.16423  Biso   1.000  N
  N16      1.0000 0.91322  0.16044  0.49757  Biso   1.000  N
  N17      1.0000 0.83956  0.75279  0.49757  Biso   1.000  N
  N18      1.0000 0.24721  0.08678  0.49757  Biso   1.000  N
  H37      1.0000 0.61330  0.51890  0.77730  Biso   1.000  H
  H38      1.0000 0.48110  0.09440  0.77730  Biso   1.000  H
  H39      1.0000 0.90560  0.38670  0.77730  Biso   1.000  H
  H40      1.0000 0.27997  0.85223  0.11063  Biso   1.000  H
  H41      1.0000 0.14777  0.42773  0.11063  Biso   1.000  H
  H42      1.0000 0.57227  0.72003  0.11063  Biso   1.000  H
  H43      1.0000 0.94663  0.18557  0.44397  Biso   1.000  H
  H44      1.0000 0.81443  0.76107  0.44397  Biso   1.000  H
  H45      1.0000 0.23893  0.05337  0.44397  Biso   1.000  H
  N19      1.0000 0.45834  0.42359  0.71780  Biso   1.000  N
  N20      1.0000 0.57641  0.03475  0.71780  Biso   1.000  N
  N21      1.0000 0.96525  0.54166  0.71780  Biso   1.000  N
  N22      1.0000 0.12501  0.75692  0.05113  Biso   1.000  N
  N23      1.0000 0.24308  0.36808  0.05113  Biso   1.000  N
  N24      1.0000 0.63192  0.87499  0.05113  Biso   1.000  N
  N25      1.0000 0.79167  0.09026  0.38447  Biso   1.000  N
  N26      1.0000 0.90974  0.70142  0.38447  Biso   1.000  N
  N27      1.0000 0.29858  0.20833  0.38447  Biso   1.000  N
  N28      1.0000 0.42225  0.50624  0.78360  Biso   1.000  N
  N29      1.0000 0.49376  0.91601  0.78360  Biso   1.000  N
  N30      1.0000 0.08399  0.57775  0.78360  Biso   1.000  N
  N31      1.0000 0.08892  0.83957  0.11693  Biso   1.000  N
  N32      1.0000 0.16043  0.24934  0.11693  Biso   1.000  N
  N33      1.0000 0.75066  0.91108  0.11693  Biso   1.000  N
  N34      1.0000 0.75558  0.17291  0.45027  Biso   1.000  N
  N35      1.0000 0.82709  0.58268  0.45027  Biso   1.000  N
  N36      1.0000 0.41732  0.24442  0.45027  Biso   1.000  N
  H46      1.0000 0.39120  0.48140  0.84040  Biso   1.000  H
  H47      1.0000 0.51860  0.90980  0.84040  Biso   1.000  H
  H48      1.0000 0.09020  0.60880  0.84040  Biso   1.000  H
  H49      1.0000 0.05787  0.81473  0.17373  Biso   1.000  H
  H50      1.0000 0.18527  0.24313  0.17373  Biso   1.000  H
  H51      1.0000 0.75687  0.94213  0.17373  Biso   1.000  H
  H52      1.0000 0.72453  0.14807  0.50707  Biso   1.000  H
  H53      1.0000 0.85193  0.57647  0.50707  Biso   1.000  H
  H54      1.0000 0.42353  0.27547  0.50707  Biso   1.000  H
  N37      1.0000 0.34199  0.30301  0.75770  Biso   1.000  N
  N38      1.0000 0.69699  0.03898  0.75770  Biso   1.000  N
  N39      1.0000 0.96102  0.65801  0.75770  Biso   1.000  N
  N40      1.0000 0.00866  0.63634  0.09103  Biso   1.000  N
  N41      1.0000 0.36366  0.37231  0.09103  Biso   1.000  N
  N42      1.0000 0.62769  0.99134  0.09103  Biso   1.000  N
  N43      1.0000 0.67532  0.96968  0.42437  Biso   1.000  N
  N44      1.0000 0.03032  0.70565  0.42437  Biso   1.000  N
  N45      1.0000 0.29435  0.32468  0.42437  Biso   1.000  N
  N46      1.0000 0.66189  0.69912  0.88670  Biso   1.000  N
  N47      1.0000 0.30088  0.96277  0.88670  Biso   1.000  N
  N48      1.0000 0.03723  0.33811  0.88670  Biso   1.000  N
  N49      1.0000 0.32856  0.03245  0.22003  Biso   1.000  N
  N50      1.0000 0.96755  0.29610  0.22003  Biso   1.000  N
  N51      1.0000 0.70390  0.67144  0.22003  Biso   1.000  N
  N52      1.0000 0.99522  0.36579  0.55337  Biso   1.000  N
  N53      1.0000 0.63421  0.62944  0.55337  Biso   1.000  N
  N54      1.0000 0.37056  0.00478  0.55337  Biso   1.000  N
  N55      1.0000 0.30820  0.25318  0.69440  Biso   1.000  N
  N56      1.0000 0.74682  0.05502  0.69440  Biso   1.000  N
  N57      1.0000 0.94498  0.69180  0.69440  Biso   1.000  N
  N58      1.0000 0.97487  0.58651  0.02773  Biso   1.000  N
  N59      1.0000 0.41349  0.38835  0.02773  Biso   1.000  N
  N60      1.0000 0.61165  0.02513  0.02773  Biso   1.000  N
  N61      1.0000 0.64153  0.91985  0.36107  Biso   1.000  N
  N62      1.0000 0.08015  0.72169  0.36107  Biso   1.000  N
  N63      1.0000 0.27831  0.35847  0.36107  Biso   1.000  N
  N64      1.0000 0.67858  0.78505  0.96320  Biso   1.000  N
  N65      1.0000 0.21495  0.89353  0.96320  Biso   1.000  N
  N66      1.0000 0.10647  0.32142  0.96320  Biso   1.000  N
  N67      1.0000 0.34525  0.11838  0.29653  Biso   1.000  N
  N68      1.0000 0.88162  0.22686  0.29653  Biso   1.000  N
  N69      1.0000 0.77314  0.65475  0.29653  Biso   1.000  N
  N70      1.0000 0.01191  0.45172  0.62987  Biso   1.000  N
  N71      1.0000 0.54828  0.56020  0.62987  Biso   1.000  N
  N72      1.0000 0.43980  0.98809  0.62987  Biso   1.000  N
  N73      1.0000 0.31860  0.20750  0.72910  Biso   1.000  N
  N74      1.0000 0.79250  0.11110  0.72910  Biso   1.000  N
  N75      1.0000 0.88890  0.68140  0.72910  Biso   1.000  N
  N76      1.0000 0.98527  0.54083  0.06243  Biso   1.000  N
  N77      1.0000 0.45917  0.44443  0.06243  Biso   1.000  N
  N78      1.0000 0.55557  0.01473  0.06243  Biso   1.000  N
  N79      1.0000 0.65193  0.87417  0.39577  Biso   1.000  N
  N80      1.0000 0.12583  0.77777  0.39577  Biso   1.000  N
  N81      1.0000 0.22223  0.34807  0.39577  Biso   1.000  N
  N82      1.0000 0.68952  0.73685  0.97070  Biso   1.000  N
  N83      1.0000 0.26315  0.95267  0.97070  Biso   1.000  N
  N84      1.0000 0.04733  0.31048  0.97070  Biso   1.000  N
  N85      1.0000 0.35619  0.07018  0.30403  Biso   1.000  N
  N86      1.0000 0.92982  0.28600  0.30403  Biso   1.000  N
  N87      1.0000 0.71400  0.64381  0.30403  Biso   1.000  N
  N88      1.0000 0.02285  0.40352  0.63737  Biso   1.000  N
  N89      1.0000 0.59648  0.61934  0.63737  Biso   1.000  N
  N90      1.0000 0.38066  0.97715  0.63737  Biso   1.000  N
  C28      1.0000 0.56425  0.42679  0.82550  Biso   1.000  C
  C29      1.0000 0.57321  0.13746  0.82550  Biso   1.000  C
  C30      1.0000 0.86254  0.43575  0.82550  Biso   1.000  C
  C31      1.0000 0.23092  0.76012  0.15883  Biso   1.000  C
  C32      1.0000 0.23988  0.47079  0.15883  Biso   1.000  C
  C33      1.0000 0.52921  0.76908  0.15883  Biso   1.000  C
  C34      1.0000 0.89758  0.09346  0.49217  Biso   1.000  C
  C35      1.0000 0.90654  0.80413  0.49217  Biso   1.000  C
  C36      1.0000 0.19587  0.10242  0.49217  Biso   1.000  C
  H55      1.0000 0.52850  0.40080  0.87390  Biso   1.000  H
  H56      1.0000 0.59920  0.12770  0.87390  Biso   1.000  H
  H57      1.0000 0.87230  0.47150  0.87390  Biso   1.000  H
  H58      1.0000 0.19517  0.73413  0.20723  Biso   1.000  H
  H59      1.0000 0.26587  0.46103  0.20723  Biso   1.000  H
  H60      1.0000 0.53897  0.80483  0.20723  Biso   1.000  H
  H61      1.0000 0.86183  0.06747  0.54057  Biso   1.000  H
  H62      1.0000 0.93253  0.79437  0.54057  Biso   1.000  H
  H63      1.0000 0.20563  0.13817  0.54057  Biso   1.000  H
  H64      1.0000 0.60160  0.42350  0.84850  Biso   1.000  H
  H65      1.0000 0.57650  0.17810  0.84850  Biso   1.000  H
  H66      1.0000 0.82190  0.39840  0.84850  Biso   1.000  H
  H67      1.0000 0.26827  0.75683  0.18183  Biso   1.000  H
  H68      1.0000 0.24317  0.51143  0.18183  Biso   1.000  H
  H69      1.0000 0.48857  0.73173  0.18183  Biso   1.000  H
  H70      1.0000 0.93493  0.09017  0.51517  Biso   1.000  H
  H71      1.0000 0.90983  0.84477  0.51517  Biso   1.000  H
  H72      1.0000 0.15523  0.06507  0.51517  Biso   1.000  H
  C37      1.0000 0.54600  0.40097  0.71670  Biso   1.000  C
  C38      1.0000 0.59903  0.14503  0.71670  Biso   1.000  C
  C39      1.0000 0.85497  0.45400  0.71670  Biso   1.000  C
  C40      1.0000 0.21267  0.73430  0.05003  Biso   1.000  C
  C41      1.0000 0.26570  0.47836  0.05003  Biso   1.000  C
  C42      1.0000 0.52164  0.78733  0.05003  Biso   1.000  C
  C43      1.0000 0.87933  0.06764  0.38337  Biso   1.000  C
  C44      1.0000 0.93236  0.81170  0.38337  Biso   1.000  C
  C45      1.0000 0.18830  0.12067  0.38337  Biso   1.000  C
  H73      1.0000 0.54390  0.35910  0.71470  Biso   1.000  H
  H74      1.0000 0.64090  0.18480  0.71470  Biso   1.000  H
  H75      1.0000 0.81520  0.45610  0.71470  Biso   1.000  H
  H76      1.0000 0.21057  0.69243  0.04803  Biso   1.000  H
  H77      1.0000 0.30757  0.51813  0.04803  Biso   1.000  H
  H78      1.0000 0.48187  0.78943  0.04803  Biso   1.000  H
  H79      1.0000 0.87723  0.02577  0.38137  Biso   1.000  H
  H80      1.0000 0.97423  0.85147  0.38137  Biso   1.000  H
  H81      1.0000 0.14853  0.12277  0.38137  Biso   1.000  H
  H82      1.0000 0.58100  0.42980  0.66910  Biso   1.000  H
  H83      1.0000 0.57020  0.15120  0.66910  Biso   1.000  H
  H84      1.0000 0.84880  0.41900  0.66910  Biso   1.000  H
  H85      1.0000 0.24767  0.76313  0.00243  Biso   1.000  H
  H86      1.0000 0.23687  0.48453  0.00243  Biso   1.000  H
  H87      1.0000 0.51547  0.75233  0.00243  Biso   1.000  H
  H88      1.0000 0.91433  0.09647  0.33577  Biso   1.000  H
  H89      1.0000 0.90353  0.81787  0.33577  Biso   1.000  H
  H90      1.0000 0.18213  0.08567  0.33577  Biso   1.000  H
  C46      1.0000 0.48396  0.39208  0.67170  Biso   1.000  C
  C47      1.0000 0.60792  0.09188  0.67170  Biso   1.000  C
  C48      1.0000 0.90812  0.51604  0.67170  Biso   1.000  C
  C49      1.0000 0.15063  0.72541  0.00503  Biso   1.000  C
  C50      1.0000 0.27459  0.42521  0.00503  Biso   1.000  C
  C51      1.0000 0.57479  0.84937  0.00503  Biso   1.000  C
  C52      1.0000 0.81729  0.05875  0.33837  Biso   1.000  C
  C53      1.0000 0.94125  0.75855  0.33837  Biso   1.000  C
  C54      1.0000 0.24145  0.18271  0.33837  Biso   1.000  C
  C55      1.0000 0.39730  0.41256  0.67730  Biso   1.000  C
  C56      1.0000 0.58744  0.98474  0.67730  Biso   1.000  C
  C57      1.0000 0.01526  0.60270  0.67730  Biso   1.000  C
  C58      1.0000 0.06397  0.74589  0.01063  Biso   1.000  C
  C59      1.0000 0.25411  0.31807  0.01063  Biso   1.000  C
  C60      1.0000 0.68193  0.93603  0.01063  Biso   1.000  C
  C61      1.0000 0.73063  0.07923  0.34397  Biso   1.000  C
  C62      1.0000 0.92077  0.65141  0.34397  Biso   1.000  C
  C63      1.0000 0.34859  0.26937  0.34397  Biso   1.000  C
  H91      1.0000 0.39200  0.39720  0.60320  Biso   1.000  H
  H92      1.0000 0.60280  0.99480  0.60320  Biso   1.000  H
  H93      1.0000 0.00520  0.60800  0.60320  Biso   1.000  H
  H94      1.0000 0.05867  0.73053  0.93653  Biso   1.000  H
  H95      1.0000 0.26947  0.32813  0.93653  Biso   1.000  H
  H96      1.0000 0.67187  0.94133  0.93653  Biso   1.000  H
  H97      1.0000 0.72533  0.06387  0.26987  Biso   1.000  H
  H98      1.0000 0.93613  0.66147  0.26987  Biso   1.000  H
  H99      1.0000 0.33853  0.27467  0.26987  Biso   1.000  H
  C64      1.0000 0.39660  0.47562  0.68080  Biso   1.000  C
  C65      1.0000 0.52438  0.92098  0.68080  Biso   1.000  C
  C66      1.0000 0.07902  0.60340  0.68080  Biso   1.000  C
  C67      1.0000 0.06327  0.80895  0.01413  Biso   1.000  C
  C68      1.0000 0.19105  0.25431  0.01413  Biso   1.000  C
  C69      1.0000 0.74569  0.93673  0.01413  Biso   1.000  C
  C70      1.0000 0.72993  0.14229  0.34747  Biso   1.000  C
  C71      1.0000 0.85771  0.58765  0.34747  Biso   1.000  C
  C72      1.0000 0.41235  0.27007  0.34747  Biso   1.000  C
  H100     1.0000 0.42320  0.50400  0.62340  Biso   1.000  H
  H101     1.0000 0.49600  0.91920  0.62340  Biso   1.000  H
  H102     1.0000 0.08080  0.57680  0.62340  Biso   1.000  H
  H103     1.0000 0.08987  0.83733  0.95673  Biso   1.000  H
  H104     1.0000 0.16267  0.25253  0.95673  Biso   1.000  H
  H105     1.0000 0.74747  0.91013  0.95673  Biso   1.000  H
  H106     1.0000 0.75653  0.17067  0.29007  Biso   1.000  H
  H107     1.0000 0.82933  0.58587  0.29007  Biso   1.000  H
  H108     1.0000 0.41413  0.24347  0.29007  Biso   1.000  H
  H109     1.0000 0.35250  0.46740  0.67180  Biso   1.000  H
  H110     1.0000 0.53260  0.88510  0.67180  Biso   1.000  H
  H111     1.0000 0.11490  0.64750  0.67180  Biso   1.000  H
  H112     1.0000 0.01917  0.80073  0.00513  Biso   1.000  H
  H113     1.0000 0.19927  0.21843  0.00513  Biso   1.000  H
  H114     1.0000 0.78157  0.98083  0.00513  Biso   1.000  H
  H115     1.0000 0.68583  0.13407  0.33847  Biso   1.000  H
  H116     1.0000 0.86593  0.55177  0.33847  Biso   1.000  H
  H117     1.0000 0.44823  0.31417  0.33847  Biso   1.000  H
  C73      1.0000 0.43716  0.57335  0.78620  Biso   1.000  C
  C74      1.0000 0.42665  0.86381  0.78620  Biso   1.000  C
  C75      1.0000 0.13619  0.56284  0.78620  Biso   1.000  C
  C76      1.0000 0.10383  0.90668  0.11953  Biso   1.000  C
  C77      1.0000 0.09332  0.19714  0.11953  Biso   1.000  C
  C78      1.0000 0.80286  0.89617  0.11953  Biso   1.000  C
  C79      1.0000 0.77049  0.24002  0.45287  Biso   1.000  C
  C80      1.0000 0.75998  0.53048  0.45287  Biso   1.000  C
  C81      1.0000 0.46952  0.22951  0.45287  Biso   1.000  C
  H118     1.0000 0.39950  0.57600  0.76280  Biso   1.000  H
  H119     1.0000 0.42400  0.82350  0.76280  Biso   1.000  H
  H120     1.0000 0.17650  0.60050  0.76280  Biso   1.000  H
  H121     1.0000 0.06617  0.90933  0.09613  Biso   1.000  H
  H122     1.0000 0.09067  0.15683  0.09613  Biso   1.000  H
  H123     1.0000 0.84317  0.93383  0.09613  Biso   1.000  H
  H124     1.0000 0.73283  0.24267  0.42947  Biso   1.000  H
  H125     1.0000 0.75733  0.49017  0.42947  Biso   1.000  H
  H126     1.0000 0.50983  0.26717  0.42947  Biso   1.000  H
  H127     1.0000 0.47300  0.59930  0.73790  Biso   1.000  H
  H128     1.0000 0.40070  0.87370  0.73790  Biso   1.000  H
  H129     1.0000 0.12630  0.52700  0.73790  Biso   1.000  H
  H130     1.0000 0.13967  0.93263  0.07123  Biso   1.000  H
  H131     1.0000 0.06737  0.20703  0.07123  Biso   1.000  H
  H132     1.0000 0.79297  0.86033  0.07123  Biso   1.000  H
  H133     1.0000 0.80633  0.26597  0.40457  Biso   1.000  H
  H134     1.0000 0.73403  0.54037  0.40457  Biso   1.000  H
  H135     1.0000 0.45963  0.19367  0.40457  Biso   1.000  H
  C82      1.0000 0.45535  0.59954  0.89760  Biso   1.000  C
  C83      1.0000 0.40046  0.85581  0.89760  Biso   1.000  C
  C84      1.0000 0.14419  0.54465  0.89760  Biso   1.000  C
  C85      1.0000 0.12202  0.93287  0.23093  Biso   1.000  C
  C86      1.0000 0.06713  0.18914  0.23093  Biso   1.000  C
  C87      1.0000 0.81086  0.87798  0.23093  Biso   1.000  C
  C88      1.0000 0.78868  0.26621  0.56427  Biso   1.000  C
  C89      1.0000 0.73379  0.52248  0.56427  Biso   1.000  C
  C90      1.0000 0.47752  0.21132  0.56427  Biso   1.000  C
  H136     1.0000 0.45820  0.64180  0.89940  Biso   1.000  H
  H137     1.0000 0.35820  0.81640  0.89940  Biso   1.000  H
  H138     1.0000 0.18360  0.54180  0.89940  Biso   1.000  H
  H139     1.0000 0.12487  0.97513  0.23273  Biso   1.000  H
  H140     1.0000 0.02487  0.14973  0.23273  Biso   1.000  H
  H141     1.0000 0.85027  0.87513  0.23273  Biso   1.000  H
  H142     1.0000 0.79153  0.30847  0.56607  Biso   1.000  H
  H143     1.0000 0.69153  0.48307  0.56607  Biso   1.000  H
  H144     1.0000 0.51693  0.20847  0.56607  Biso   1.000  H
  H145     1.0000 0.42000  0.57100  0.94480  Biso   1.000  H
  H146     1.0000 0.42900  0.84900  0.94480  Biso   1.000  H
  H147     1.0000 0.15100  0.58000  0.94480  Biso   1.000  H
  H148     1.0000 0.08667  0.90433  0.27813  Biso   1.000  H
  H149     1.0000 0.09567  0.18233  0.27813  Biso   1.000  H
  H150     1.0000 0.81767  0.91333  0.27813  Biso   1.000  H
  H151     1.0000 0.75333  0.23767  0.61147  Biso   1.000  H
  H152     1.0000 0.76233  0.51567  0.61147  Biso   1.000  H
  H153     1.0000 0.48433  0.24667  0.61147  Biso   1.000  H
  C91      1.0000 0.51720  0.60734  0.94320  Biso   1.000  C
  C92      1.0000 0.39266  0.90986  0.94320  Biso   1.000  C
  C93      1.0000 0.09014  0.48280  0.94320  Biso   1.000  C
  C94      1.0000 0.18387  0.94067  0.27653  Biso   1.000  C
  C95      1.0000 0.05933  0.24319  0.27653  Biso   1.000  C
  C96      1.0000 0.75681  0.81613  0.27653  Biso   1.000  C
  C97      1.0000 0.85053  0.27401  0.60987  Biso   1.000  C
  C98      1.0000 0.72599  0.57653  0.60987  Biso   1.000  C
  C99      1.0000 0.42347  0.14947  0.60987  Biso   1.000  C
  C100     1.0000 0.35831  0.22875  0.81230  Biso   1.000  C
  C101     1.0000 0.77125  0.12956  0.81230  Biso   1.000  C
  C102     1.0000 0.87044  0.64169  0.81230  Biso   1.000  C
  C103     1.0000 0.02498  0.56208  0.14563  Biso   1.000  C
  C104     1.0000 0.43792  0.46289  0.14563  Biso   1.000  C
  C105     1.0000 0.53711  0.97502  0.14563  Biso   1.000  C
  C106     1.0000 0.69164  0.89542  0.47897  Biso   1.000  C
  C107     1.0000 0.10458  0.79623  0.47897  Biso   1.000  C
  C108     1.0000 0.20377  0.30836  0.47897  Biso   1.000  C
  C109     1.0000 0.64440  0.77753  0.87440  Biso   1.000  C
  C110     1.0000 0.22247  0.86687  0.87440  Biso   1.000  C
  C111     1.0000 0.13313  0.35560  0.87440  Biso   1.000  C
  C112     1.0000 0.31107  0.11086  0.20773  Biso   1.000  C
  C113     1.0000 0.88914  0.20020  0.20773  Biso   1.000  C
  C114     1.0000 0.79980  0.68893  0.20773  Biso   1.000  C
  C115     1.0000 0.97773  0.44420  0.54107  Biso   1.000  C
  C116     1.0000 0.55580  0.53354  0.54107  Biso   1.000  C
  C117     1.0000 0.46646  0.02227  0.54107  Biso   1.000  C
  H154     1.0000 0.63050  0.80570  0.85040  Biso   1.000  H
  H155     1.0000 0.19430  0.82480  0.85040  Biso   1.000  H
  H156     1.0000 0.17520  0.36950  0.85040  Biso   1.000  H
  H157     1.0000 0.29717  0.13903  0.18373  Biso   1.000  H
  H158     1.0000 0.86097  0.15813  0.18373  Biso   1.000  H
  H159     1.0000 0.84187  0.70283  0.18373  Biso   1.000  H
  H160     1.0000 0.96383  0.47237  0.51707  Biso   1.000  H
  H161     1.0000 0.52763  0.49147  0.51707  Biso   1.000  H
  H162     1.0000 0.50853  0.03617  0.51707  Biso   1.000  H
  C118     1.0000 0.37470  0.29052  0.83020  Biso   1.000  C
  C119     1.0000 0.70948  0.08418  0.83020  Biso   1.000  C
  C120     1.0000 0.91582  0.62530  0.83020  Biso   1.000  C
  C121     1.0000 0.04137  0.62385  0.16353  Biso   1.000  C
  C122     1.0000 0.37615  0.41751  0.16353  Biso   1.000  C
  C123     1.0000 0.58249  0.95863  0.16353  Biso   1.000  C
  C124     1.0000 0.70803  0.95719  0.49687  Biso   1.000  C
  C125     1.0000 0.04281  0.75085  0.49687  Biso   1.000  C
  C126     1.0000 0.24915  0.29197  0.49687  Biso   1.000  C
  H163     1.0000 0.40290  0.31860  0.88220  Biso   1.000  H
  H164     1.0000 0.68140  0.08430  0.88220  Biso   1.000  H
  H165     1.0000 0.91570  0.59710  0.88220  Biso   1.000  H
  H166     1.0000 0.06957  0.65193  0.21553  Biso   1.000  H
  H167     1.0000 0.34807  0.41763  0.21553  Biso   1.000  H
  H168     1.0000 0.58237  0.93043  0.21553  Biso   1.000  H
  H169     1.0000 0.73623  0.98527  0.54887  Biso   1.000  H
  H170     1.0000 0.01473  0.75097  0.54887  Biso   1.000  H
  H171     1.0000 0.24903  0.26377  0.54887  Biso   1.000  H
  C127     1.0000 0.63325  0.72210  0.82500  Biso   1.000  C
  C128     1.0000 0.27790  0.91115  0.82500  Biso   1.000  C
  C129     1.0000 0.08885  0.36675  0.82500  Biso   1.000  C
  C130     1.0000 0.29992  0.05543  0.15833  Biso   1.000  C
  C131     1.0000 0.94457  0.24448  0.15833  Biso   1.000  C
  C132     1.0000 0.75552  0.70008  0.15833  Biso   1.000  C
  C133     1.0000 0.96658  0.38877  0.49167  Biso   1.000  C
  C134     1.0000 0.61123  0.57782  0.49167  Biso   1.000  C
  C135     1.0000 0.42218  0.03342  0.49167  Biso   1.000  C
  H172     1.0000 0.61050  0.70430  0.76170  Biso   1.000  H
  H173     1.0000 0.29570  0.90620  0.76170  Biso   1.000  H
  H174     1.0000 0.09380  0.38950  0.76170  Biso   1.000  H
  H175     1.0000 0.27717  0.03763  0.09503  Biso   1.000  H
  H176     1.0000 0.96237  0.23953  0.09503  Biso   1.000  H
  H177     1.0000 0.76047  0.72283  0.09503  Biso   1.000  H
  H178     1.0000 0.94383  0.37097  0.42837  Biso   1.000  H
  H179     1.0000 0.62903  0.57287  0.42837  Biso   1.000  H
  H180     1.0000 0.42713  0.05617  0.42837  Biso   1.000  H
  C136     1.0000 0.34171  0.36248  0.74440  Biso   1.000  C
  C137     1.0000 0.63752  0.97923  0.74440  Biso   1.000  C
  C138     1.0000 0.02077  0.65829  0.74440  Biso   1.000  C
  C139     1.0000 0.00838  0.69581  0.07773  Biso   1.000  C
  C140     1.0000 0.30419  0.31256  0.07773  Biso   1.000  C
  C141     1.0000 0.68744  0.99162  0.07773  Biso   1.000  C
  C142     1.0000 0.67504  0.02915  0.41107  Biso   1.000  C
  C143     1.0000 0.97085  0.64590  0.41107  Biso   1.000  C
  C144     1.0000 0.35410  0.32496  0.41107  Biso   1.000  C
  H181     1.0000 0.34360  0.38100  0.81450  Biso   1.000  H
  H182     1.0000 0.61900  0.96260  0.81450  Biso   1.000  H
  H183     1.0000 0.03740  0.65640  0.81450  Biso   1.000  H
  H184     1.0000 0.01027  0.71433  0.14783  Biso   1.000  H
  H185     1.0000 0.28567  0.29593  0.14783  Biso   1.000  H
  H186     1.0000 0.70407  0.98973  0.14783  Biso   1.000  H
  H187     1.0000 0.67693  0.04767  0.48117  Biso   1.000  H
  H188     1.0000 0.95233  0.62927  0.48117  Biso   1.000  H
  H189     1.0000 0.37073  0.32307  0.48117  Biso   1.000  H
  H190     1.0000 0.30090  0.35310  0.71130  Biso   1.000  H
  H191     1.0000 0.64690  0.94780  0.71130  Biso   1.000  H
  H192     1.0000 0.05220  0.69910  0.71130  Biso   1.000  H
  H193     1.0000 0.96757  0.68643  0.04463  Biso   1.000  H
  H194     1.0000 0.31357  0.28113  0.04463  Biso   1.000  H
  H195     1.0000 0.71887  0.03243  0.04463  Biso   1.000  H
  H196     1.0000 0.63423  0.01977  0.37797  Biso   1.000  H
  H197     1.0000 0.98023  0.61447  0.37797  Biso   1.000  H
  H198     1.0000 0.38553  0.36577  0.37797  Biso   1.000  H
  C145     1.0000 0.65968  0.63791  0.88130  Biso   1.000  C
  C146     1.0000 0.36209  0.02177  0.88130  Biso   1.000  C
  C147     1.0000 0.97823  0.34032  0.88130  Biso   1.000  C
  C148     1.0000 0.32635  0.97124  0.21463  Biso   1.000  C
  C149     1.0000 0.02876  0.35510  0.21463  Biso   1.000  C
  C150     1.0000 0.64490  0.67365  0.21463  Biso   1.000  C
  C151     1.0000 0.99301  0.30458  0.54797  Biso   1.000  C
  C152     1.0000 0.69542  0.68844  0.54797  Biso   1.000  C
  C153     1.0000 0.31156  0.00699  0.54797  Biso   1.000  C
  H199     1.0000 0.69970  0.64260  0.91040  Biso   1.000  H
  H200     1.0000 0.35740  0.05710  0.91040  Biso   1.000  H
  H201     1.0000 0.94290  0.30030  0.91040  Biso   1.000  H
  H202     1.0000 0.36637  0.97593  0.24373  Biso   1.000  H
  H203     1.0000 0.02407  0.39043  0.24373  Biso   1.000  H
  H204     1.0000 0.60957  0.63363  0.24373  Biso   1.000  H
  H205     1.0000 0.03303  0.30927  0.57707  Biso   1.000  H
  H206     1.0000 0.69073  0.72377  0.57707  Biso   1.000  H
  H207     1.0000 0.27623  0.96697  0.57707  Biso   1.000  H
  H208     1.0000 0.65670  0.62490  0.80690  Biso   1.000  H
  H209     1.0000 0.37510  0.03180  0.80690  Biso   1.000  H
  H210     1.0000 0.96820  0.34330  0.80690  Biso   1.000  H
  H211     1.0000 0.32337  0.95823  0.14023  Biso   1.000  H
  H212     1.0000 0.04177  0.36513  0.14023  Biso   1.000  H
  H213     1.0000 0.63487  0.67663  0.14023  Biso   1.000  H
  H214     1.0000 0.99003  0.29157  0.47357  Biso   1.000  H
  H215     1.0000 0.70843  0.69847  0.47357  Biso   1.000  H
  H216     1.0000 0.30153  0.00997  0.47357  Biso   1.000  H
  C154     1.0000 0.37910  0.18775  0.87280  Biso   1.000  C
  C155     1.0000 0.81225  0.19135  0.87280  Biso   1.000  C
  C156     1.0000 0.80865  0.62090  0.87280  Biso   1.000  C
  C157     1.0000 0.04577  0.52108  0.20613  Biso   1.000  C
  C158     1.0000 0.47892  0.52468  0.20613  Biso   1.000  C
  C159     1.0000 0.47532  0.95423  0.20613  Biso   1.000  C
  C160     1.0000 0.71243  0.85442  0.53947  Biso   1.000  C
  C161     1.0000 0.14558  0.85802  0.53947  Biso   1.000  C
  C162     1.0000 0.14198  0.28757  0.53947  Biso   1.000  C
  H217     1.0000 0.34560  0.16110  0.92430  Biso   1.000  H
  H218     1.0000 0.83890  0.18450  0.92430  Biso   1.000  H
  H219     1.0000 0.81550  0.65440  0.92430  Biso   1.000  H
  H220     1.0000 0.01227  0.49443  0.25763  Biso   1.000  H
  H221     1.0000 0.50557  0.51783  0.25763  Biso   1.000  H
  H222     1.0000 0.48217  0.98773  0.25763  Biso   1.000  H
  H223     1.0000 0.67893  0.82777  0.59097  Biso   1.000  H
  H224     1.0000 0.17223  0.85117  0.59097  Biso   1.000  H
  H225     1.0000 0.14883  0.32107  0.59097  Biso   1.000  H
  H226     1.0000 0.38370  0.15880  0.82340  Biso   1.000  H
  H227     1.0000 0.84120  0.22490  0.82340  Biso   1.000  H
  H228     1.0000 0.77510  0.61630  0.82340  Biso   1.000  H
  H229     1.0000 0.05037  0.49213  0.15673  Biso   1.000  H
  H230     1.0000 0.50787  0.55823  0.15673  Biso   1.000  H
  H231     1.0000 0.44177  0.94963  0.15673  Biso   1.000  H
  H232     1.0000 0.71703  0.82547  0.49007  Biso   1.000  H
  H233     1.0000 0.17453  0.89157  0.49007  Biso   1.000  H
  H234     1.0000 0.10843  0.28297  0.49007  Biso   1.000  H
  C163     1.0000 0.44200  0.22811  0.93020  Biso   1.000  C
  C164     1.0000 0.77189  0.21389  0.93020  Biso   1.000  C
  C165     1.0000 0.78611  0.55800  0.93020  Biso   1.000  C
  C166     1.0000 0.10867  0.56144  0.26353  Biso   1.000  C
  C167     1.0000 0.43856  0.54722  0.26353  Biso   1.000  C
  C168     1.0000 0.45278  0.89133  0.26353  Biso   1.000  C
  C169     1.0000 0.77533  0.89478  0.59687  Biso   1.000  C
  C170     1.0000 0.10522  0.88056  0.59687  Biso   1.000  C
  C171     1.0000 0.11944  0.22467  0.59687  Biso   1.000  C
  C172     1.0000 0.49929  0.24509  0.88010  Biso   1.000  C
  C173     1.0000 0.75491  0.25420  0.88010  Biso   1.000  C
  C174     1.0000 0.74580  0.50071  0.88010  Biso   1.000  C
  C175     1.0000 0.16596  0.57842  0.21343  Biso   1.000  C
  C176     1.0000 0.42158  0.58753  0.21343  Biso   1.000  C
  C177     1.0000 0.41247  0.83404  0.21343  Biso   1.000  C
  C178     1.0000 0.83262  0.91176  0.54677  Biso   1.000  C
  C179     1.0000 0.08824  0.92087  0.54677  Biso   1.000  C
  C180     1.0000 0.07913  0.16738  0.54677  Biso   1.000  C
  H235     1.0000 0.49890  0.22960  0.81150  Biso   1.000  H
  H236     1.0000 0.77040  0.26930  0.81150  Biso   1.000  H
  H237     1.0000 0.73070  0.50110  0.81150  Biso   1.000  H
  H238     1.0000 0.16557  0.56293  0.14483  Biso   1.000  H
  H239     1.0000 0.43707  0.60263  0.14483  Biso   1.000  H
  H240     1.0000 0.39737  0.83443  0.14483  Biso   1.000  H
  H241     1.0000 0.83223  0.89627  0.47817  Biso   1.000  H
  H242     1.0000 0.10373  0.93597  0.47817  Biso   1.000  H
  H243     1.0000 0.06403  0.16777  0.47817  Biso   1.000  H
  C181     1.0000 0.55660  0.28427  0.92900  Biso   1.000  C
  C182     1.0000 0.71573  0.27233  0.92900  Biso   1.000  C
  C183     1.0000 0.72767  0.44340  0.92900  Biso   1.000  C
  C184     1.0000 0.22327  0.61760  0.26233  Biso   1.000  C
  C185     1.0000 0.38240  0.60566  0.26233  Biso   1.000  C
  C186     1.0000 0.39434  0.77673  0.26233  Biso   1.000  C
  C187     1.0000 0.88993  0.95094  0.59567  Biso   1.000  C
  C188     1.0000 0.04906  0.93900  0.59567  Biso   1.000  C
  C189     1.0000 0.06100  0.11007  0.59567  Biso   1.000  C
  H244     1.0000 0.59530  0.29490  0.89400  Biso   1.000  H
  H245     1.0000 0.70510  0.30040  0.89400  Biso   1.000  H
  H246     1.0000 0.69960  0.40470  0.89400  Biso   1.000  H
  H247     1.0000 0.26197  0.62823  0.22733  Biso   1.000  H
  H248     1.0000 0.37177  0.63373  0.22733  Biso   1.000  H
  H249     1.0000 0.36627  0.73803  0.22733  Biso   1.000  H
  H250     1.0000 0.92863  0.96157  0.56067  Biso   1.000  H
  H251     1.0000 0.03843  0.96707  0.56067  Biso   1.000  H
  H252     1.0000 0.03293  0.07137  0.56067  Biso   1.000  H
  C190     1.0000 0.55870  0.30830  0.02790  Biso   1.000  C
  C191     1.0000 0.69170  0.25040  0.02790  Biso   1.000  C
  C192     1.0000 0.74960  0.44130  0.02790  Biso   1.000  C
  C193     1.0000 0.22537  0.64163  0.36123  Biso   1.000  C
  C194     1.0000 0.35837  0.58373  0.36123  Biso   1.000  C
  C195     1.0000 0.41627  0.77463  0.36123  Biso   1.000  C
  C196     1.0000 0.89203  0.97497  0.69457  Biso   1.000  C
  C197     1.0000 0.02503  0.91707  0.69457  Biso   1.000  C
  C198     1.0000 0.08293  0.10797  0.69457  Biso   1.000  C
  H253     1.0000 0.59850  0.33510  0.06130  Biso   1.000  H
  H254     1.0000 0.66490  0.26340  0.06130  Biso   1.000  H
  H255     1.0000 0.73660  0.40150  0.06130  Biso   1.000  H
  H256     1.0000 0.26517  0.66843  0.39463  Biso   1.000  H
  H257     1.0000 0.33157  0.59673  0.39463  Biso   1.000  H
  H258     1.0000 0.40327  0.73483  0.39463  Biso   1.000  H
  H259     1.0000 0.93183  0.00177  0.72797  Biso   1.000  H
  H260     1.0000 0.99823  0.93007  0.72797  Biso   1.000  H
  H261     1.0000 0.06993  0.06817  0.72797  Biso   1.000  H
  C199     1.0000 0.50200  0.29270  0.07760  Biso   1.000  C
  C200     1.0000 0.70730  0.20930  0.07760  Biso   1.000  C
  C201     1.0000 0.79070  0.49800  0.07760  Biso   1.000  C
  C202     1.0000 0.16867  0.62603  0.41093  Biso   1.000  C
  C203     1.0000 0.37397  0.54263  0.41093  Biso   1.000  C
  C204     1.0000 0.45737  0.83133  0.41093  Biso   1.000  C
  C205     1.0000 0.83533  0.95937  0.74427  Biso   1.000  C
  C206     1.0000 0.04063  0.87597  0.74427  Biso   1.000  C
  C207     1.0000 0.12403  0.16467  0.74427  Biso   1.000  C
  H262     1.0000 0.50280  0.30990  0.14500  Biso   1.000  H
  H263     1.0000 0.69010  0.19290  0.14500  Biso   1.000  H
  H264     1.0000 0.80710  0.49720  0.14500  Biso   1.000  H
  H265     1.0000 0.16947  0.64323  0.47833  Biso   1.000  H
  H266     1.0000 0.35677  0.52623  0.47833  Biso   1.000  H
  H267     1.0000 0.47377  0.83053  0.47833  Biso   1.000  H
  H268     1.0000 0.83613  0.97657  0.81167  Biso   1.000  H
  H269     1.0000 0.02343  0.85957  0.81167  Biso   1.000  H
  H270     1.0000 0.14043  0.16387  0.81167  Biso   1.000  H
