data_image0
_cell_length_a       10.3351
_cell_length_b       12.8235
_cell_length_c       14.4284
_cell_angle_alpha    101.24
_cell_angle_beta     99.721
_cell_angle_gamma    112.983

_symmetry_space_group_name_H-M    "P 1"
_symmetry_int_tables_number       1

loop_
  _symmetry_equiv_pos_as_xyz
  'x, y, z'

loop_
  _atom_site_label
  _atom_site_occupancy
  _atom_site_fract_x
  _atom_site_fract_y
  _atom_site_fract_z
  _atom_site_thermal_displace_type
  _atom_site_B_iso_or_equiv
  _atom_site_type_symbol
  Cu1      1.0000 0.22361  0.97185  0.74020  Biso   1.000  Cu
  Cu2      1.0000 0.77639  0.02815  0.25980  Biso   1.000  Cu
  P1       1.0000 0.22887  0.18020  0.66013  Biso   1.000  P
  P2       1.0000 0.77113  0.81980  0.33987  Biso   1.000  P
  P3       1.0000 0.24426  0.77403  0.82558  Biso   1.000  P
  P4       1.0000 0.75574  0.22597  0.17442  Biso   1.000  P
  O1       1.0000 0.25170  0.07000  0.65202  Biso   1.000  O
  O2       1.0000 0.74830  0.93000  0.34798  Biso   1.000  O
  O3       1.0000 0.09830  0.03590  0.79424  Biso   1.000  O
  O4       1.0000 0.90170  0.96410  0.20576  Biso   1.000  O
  O5       1.0000 0.19250  0.86869  0.82549  Biso   1.000  O
  O6       1.0000 0.80750  0.13131  0.17451  Biso   1.000  O
  O7       1.0000 0.35790  0.91880  0.68838  Biso   1.000  O
  O8       1.0000 0.64210  0.08120  0.31162  Biso   1.000  O
  N1       1.0000 0.32700  0.75200  0.74170  Biso   1.000  N
  N2       1.0000 0.67300  0.24800  0.25830  Biso   1.000  N
  C1       1.0000 0.37320  0.82690  0.69260  Biso   1.000  C
  C2       1.0000 0.62680  0.17310  0.30740  Biso   1.000  C
  C3       1.0000 0.97390  0.16910  0.55020  Biso   1.000  C
  C4       1.0000 0.02610  0.83090  0.44980  Biso   1.000  C
  C5       1.0000 0.10090  0.13530  0.79540  Biso   1.000  C
  C6       1.0000 0.89910  0.86470  0.20460  Biso   1.000  C
  N3       1.0000 0.36650  0.80310  0.92850  Biso   1.000  N
  N4       1.0000 0.63350  0.19690  0.07150  Biso   1.000  N
  N5       1.0000 0.15400  0.20970  0.74690  Biso   1.000  N
  N6       1.0000 0.84600  0.79030  0.25310  Biso   1.000  N
  N7       1.0000 0.10380  0.65290  0.82090  Biso   1.000  N
  N8       1.0000 0.89620  0.34710  0.17910  Biso   1.000  N
  N9       1.0000 0.38760  0.28930  0.67320  Biso   1.000  N
  N10      1.0000 0.61240  0.71070  0.32680  Biso   1.000  N
  C7       1.0000 0.47470  0.80460  0.63030  Biso   1.000  C
  C8       1.0000 0.52530  0.19540  0.36970  Biso   1.000  C
  C9       1.0000 0.31960  0.80500  0.01950  Biso   1.000  C
  C10      1.0000 0.68040  0.19500  0.98050  Biso   1.000  C
  C11      1.0000 0.02700  0.17940  0.87040  Biso   1.000  C
  C12      1.0000 0.97300  0.82060  0.12960  Biso   1.000  C
  C13      1.0000 0.15450  0.15340  0.46630  Biso   1.000  C
  C14      1.0000 0.84550  0.84660  0.53370  Biso   1.000  C
  C15      1.0000 0.40420  0.40850  0.67360  Biso   1.000  C
  C16      1.0000 0.59580  0.59150  0.32640  Biso   1.000  C
  C17      1.0000 0.49690  0.78220  0.93720  Biso   1.000  C
  C18      1.0000 0.50310  0.21780  0.06280  Biso   1.000  C
  N11      1.0000 0.12290  0.18080  0.56200  Biso   1.000  N
  N12      1.0000 0.87710  0.81920  0.43800  Biso   1.000  N
  C19      1.0000 0.12370  0.54690  0.82810  Biso   1.000  C
  C20      1.0000 0.87630  0.45310  0.17190  Biso   1.000  C
  O9       1.0000 0.97380  0.21180  0.39347  Biso   1.000  O
  O10      1.0000 0.02620  0.78820  0.60653  Biso   1.000  O
  O11      1.0000 0.91810  0.42660  0.68640  Biso   1.000  O
  O12      1.0000 0.08190  0.57340  0.31360  Biso   1.000  O
  O13      1.0000 0.61610  0.49480  0.81290  Biso   1.000  O
  O14      1.0000 0.38390  0.50520  0.18710  Biso   1.000  O
  C21      1.0000 0.61690  0.87430  0.02530  Biso   1.000  C
  C22      1.0000 0.38310  0.12570  0.97470  Biso   1.000  C
  C23      1.0000 0.44440  0.89510  0.10600  Biso   1.000  C
  C24      1.0000 0.55560  0.10490  0.89400  Biso   1.000  C
  H1       1.0000 0.46780  0.97420  0.10260  Biso   1.000  H
  H2       1.0000 0.53220  0.02580  0.89740  Biso   1.000  H
  C25      1.0000 0.94940  0.24490  0.48790  Biso   1.000  C
  C26      1.0000 0.05060  0.75510  0.51210  Biso   1.000  C
  C27      1.0000 0.12040  0.22770  0.40490  Biso   1.000  C
  C28      1.0000 0.87960  0.77230  0.59510  Biso   1.000  C
  C29      1.0000 0.06860  0.45850  0.72840  Biso   1.000  C
  C30      1.0000 0.93140  0.54150  0.27160  Biso   1.000  C
  C31      1.0000 0.95270  0.62290  0.77180  Biso   1.000  C
  C32      1.0000 0.04730  0.37710  0.22820  Biso   1.000  C
  C33      1.0000 0.89980  0.52900  0.67490  Biso   1.000  C
  C34      1.0000 0.10020  0.47100  0.32510  Biso   1.000  C
  C35      1.0000 0.47810  0.49240  0.77520  Biso   1.000  C
  C36      1.0000 0.52190  0.50760  0.22480  Biso   1.000  C
  C37      1.0000 0.52790  0.29130  0.71730  Biso   1.000  C
  C38      1.0000 0.47210  0.70870  0.28270  Biso   1.000  C
  C39      1.0000 0.59800  0.37940  0.81700  Biso   1.000  C
  C40      1.0000 0.40200  0.62060  0.18300  Biso   1.000  C
  Cl1      1.0000 0.95150  0.07559  0.93321  Biso   1.000  Cl
  Cl2      1.0000 0.04850  0.92441  0.06679  Biso   1.000  Cl
  Cl3      1.0000 0.88757  0.20772  0.80712  Biso   1.000  Cl
  Cl4      1.0000 0.11243  0.79228  0.19288  Biso   1.000  Cl
  Cl5      1.0000 0.16005  0.31332  0.95861  Biso   1.000  Cl
  Cl6      1.0000 0.83995  0.68668  0.04139  Biso   1.000  Cl
  Cl7      1.0000 0.48733  0.87444  0.53754  Biso   1.000  Cl
  Cl8      1.0000 0.51267  0.12556  0.46246  Biso   1.000  Cl
  Cl9      1.0000 0.65053  0.86590  0.71506  Biso   1.000  Cl
  Cl10     1.0000 0.34947  0.13410  0.28494  Biso   1.000  Cl
  Cl11     1.0000 0.42140  0.65418  0.57807  Biso   1.000  Cl
  Cl12     1.0000 0.57860  0.34582  0.42193  Biso   1.000  Cl
  O15      1.0000 0.57050  0.87200  0.11416  Biso   1.000  O
  O16      1.0000 0.42950  0.12800  0.88584  Biso   1.000  O
  H3       1.0000 0.30670  0.39350  0.64310  Biso   1.000  H
  H4       1.0000 0.69330  0.60650  0.35690  Biso   1.000  H
  H5       1.0000 0.47500  0.69890  0.93620  Biso   1.000  H
  H6       1.0000 0.52500  0.30110  0.06380  Biso   1.000  H
  H7       1.0000 0.42100  0.45470  0.82250  Biso   1.000  H
  H8       1.0000 0.57900  0.54530  0.17750  Biso   1.000  H
  H9       1.0000 0.52510  0.77550  0.88200  Biso   1.000  H
  H10      1.0000 0.47490  0.22450  0.11800  Biso   1.000  H
  H11      1.0000 0.07170  0.37410  0.72520  Biso   1.000  H
  H12      1.0000 0.92830  0.62590  0.27480  Biso   1.000  H
  H13      1.0000 0.91720  0.59470  0.82120  Biso   1.000  H
  H14      1.0000 0.08280  0.40530  0.17880  Biso   1.000  H
  H15      1.0000 0.95430  0.17310  0.60330  Biso   1.000  H
  H16      1.0000 0.04570  0.82690  0.39670  Biso   1.000  H
  H17      1.0000 0.59350  0.31370  0.67050  Biso   1.000  H
  H18      1.0000 0.40650  0.68630  0.32950  Biso   1.000  H
  H19      1.0000 0.50640  0.21400  0.71750  Biso   1.000  H
  H20      1.0000 0.49360  0.78600  0.28250  Biso   1.000  H
  H21      1.0000 0.23930  0.82000  0.01810  Biso   1.000  H
  H22      1.0000 0.76070  0.18000  0.98190  Biso   1.000  H
  H23      1.0000 0.78440  0.49370  0.65400  Biso   1.000  H
  H24      1.0000 0.21560  0.50630  0.34600  Biso   1.000  H
  H25      1.0000 0.91090  0.09270  0.51550  Biso   1.000  H
  H26      1.0000 0.08910  0.90730  0.48450  Biso   1.000  H
  H27      1.0000 0.25390  0.16700  0.46640  Biso   1.000  H
  H28      1.0000 0.74610  0.83300  0.53360  Biso   1.000  H
  H29      1.0000 0.46890  0.43340  0.63580  Biso   1.000  H
  H30      1.0000 0.53110  0.56660  0.36420  Biso   1.000  H
  H31      1.0000 0.94950  0.69750  0.76360  Biso   1.000  H
  H32      1.0000 0.05050  0.30250  0.23640  Biso   1.000  H
  H33      1.0000 0.01200  0.31720  0.52130  Biso   1.000  H
  H34      1.0000 0.98800  0.68280  0.47870  Biso   1.000  H
  H35      1.0000 0.28530  0.72000  0.02690  Biso   1.000  H
  H36      1.0000 0.71470  0.28000  0.97310  Biso   1.000  H
  H37      1.0000 0.18190  0.30270  0.43150  Biso   1.000  H
  H38      1.0000 0.81810  0.69730  0.56850  Biso   1.000  H
  H39      1.0000 0.06380  0.49790  0.86580  Biso   1.000  H
  H40      1.0000 0.93620  0.50210  0.13420  Biso   1.000  H
  H41      1.0000 0.22340  0.55780  0.84730  Biso   1.000  H
  H42      1.0000 0.77660  0.44220  0.15270  Biso   1.000  H
  H43      1.0000 0.50160  0.57760  0.78080  Biso   1.000  H
  H44      1.0000 0.49840  0.42240  0.21920  Biso   1.000  H
  H45      1.0000 0.12950  0.49750  0.68440  Biso   1.000  H
  H46      1.0000 0.87050  0.50250  0.31560  Biso   1.000  H
  H47      1.0000 0.69430  0.37780  0.83700  Biso   1.000  H
  H48      1.0000 0.30570  0.62220  0.16300  Biso   1.000  H
  H49      1.0000 0.95550  0.55730  0.62960  Biso   1.000  H
  H50      1.0000 0.04450  0.44270  0.37040  Biso   1.000  H
  H51      1.0000 0.85290  0.24280  0.47970  Biso   1.000  H
  H52      1.0000 0.14710  0.75720  0.52030  Biso   1.000  H
  H53      1.0000 0.53200  0.35780  0.86480  Biso   1.000  H
  H54      1.0000 0.46800  0.64220  0.13520  Biso   1.000  H
  H55      1.0000 0.12100  0.20260  0.33660  Biso   1.000  H
  H56      1.0000 0.87900  0.79740  0.66340  Biso   1.000  H
  H57      1.0000 0.64540  0.96000  0.02120  Biso   1.000  H
  H58      1.0000 0.35460  0.04000  0.97880  Biso   1.000  H
  H59      1.0000 0.70380  0.86000  0.03310  Biso   1.000  H
  H60      1.0000 0.29620  0.14000  0.96690  Biso   1.000  H
  H61      1.0000 0.40730  0.88220  0.15990  Biso   1.000  H
  H62      1.0000 0.59270  0.11780  0.84010  Biso   1.000  H
  H63      1.0000 0.08580  0.06270  0.42550  Biso   1.000  H
  H64      1.0000 0.91420  0.93730  0.57450  Biso   1.000  H
