data_image0
_cell_length_a       17.7409
_cell_length_b       13.4455
_cell_length_c       14.6271
_cell_angle_alpha    90
_cell_angle_beta     108.267
_cell_angle_gamma    90

_symmetry_space_group_name_H-M    "P 1"
_symmetry_int_tables_number       1

loop_
  _symmetry_equiv_pos_as_xyz
  'x, y, z'

loop_
  _atom_site_label
  _atom_site_occupancy
  _atom_site_fract_x
  _atom_site_fract_y
  _atom_site_fract_z
  _atom_site_thermal_displace_type
  _atom_site_B_iso_or_equiv
  _atom_site_type_symbol
  Cu1      1.0000 0.58125  0.13438  0.95647  Biso   1.000  Cu
  Cu2      1.0000 0.58125  0.36562  0.45647  Biso   1.000  Cu
  Cu3      1.0000 0.41875  0.86562  0.04353  Biso   1.000  Cu
  Cu4      1.0000 0.41875  0.63438  0.54353  Biso   1.000  Cu
  Cu5      1.0000 0.66156  0.02764  0.22919  Biso   1.000  Cu
  Cu6      1.0000 0.66156  0.47236  0.72919  Biso   1.000  Cu
  Cu7      1.0000 0.33844  0.97236  0.77081  Biso   1.000  Cu
  Cu8      1.0000 0.33844  0.52764  0.27081  Biso   1.000  Cu
  Cu9      1.0000 0.06202  0.92603  0.57818  Biso   1.000  Cu
  Cu10     1.0000 0.06202  0.57397  0.07818  Biso   1.000  Cu
  Cu11     1.0000 0.93798  0.07397  0.42182  Biso   1.000  Cu
  Cu12     1.0000 0.93798  0.42603  0.92182  Biso   1.000  Cu
  O1       1.0000 0.67861  0.08380  0.94280  Biso   1.000  O
  O2       1.0000 0.67861  0.41620  0.44280  Biso   1.000  O
  O3       1.0000 0.32139  0.91620  0.05720  Biso   1.000  O
  O4       1.0000 0.32139  0.58380  0.55720  Biso   1.000  O
  O5       1.0000 0.47723  0.15820  0.98080  Biso   1.000  O
  O6       1.0000 0.47723  0.34180  0.48080  Biso   1.000  O
  O7       1.0000 0.52277  0.84180  0.01920  Biso   1.000  O
  O8       1.0000 0.52277  0.65820  0.51920  Biso   1.000  O
  O9       1.0000 0.09617  0.00900  0.69710  Biso   1.000  O
  O10      1.0000 0.09617  0.49100  0.19710  Biso   1.000  O
  O11      1.0000 0.90383  0.99100  0.30290  Biso   1.000  O
  O12      1.0000 0.90383  0.50900  0.80290  Biso   1.000  O
  O13      1.0000 0.63860  0.24140  0.03520  Biso   1.000  O
  O14      1.0000 0.63860  0.25860  0.53520  Biso   1.000  O
  O15      1.0000 0.36140  0.75860  0.96480  Biso   1.000  O
  O16      1.0000 0.36140  0.74140  0.46480  Biso   1.000  O
  O17      1.0000 0.62150  0.06550  0.33310  Biso   1.000  O
  O18      1.0000 0.62150  0.43450  0.83310  Biso   1.000  O
  O19      1.0000 0.37850  0.93450  0.66690  Biso   1.000  O
  O20      1.0000 0.37850  0.56550  0.16690  Biso   1.000  O
  O21      1.0000 0.64760  0.90840  0.37700  Biso   1.000  O
  O22      1.0000 0.64760  0.59160  0.87700  Biso   1.000  O
  O23      1.0000 0.35240  0.09160  0.62300  Biso   1.000  O
  O24      1.0000 0.35240  0.40840  0.12300  Biso   1.000  O
  O25      1.0000 0.64630  0.18350  0.18060  Biso   1.000  O
  O26      1.0000 0.64630  0.31650  0.68060  Biso   1.000  O
  O27      1.0000 0.35370  0.81650  0.81940  Biso   1.000  O
  O28      1.0000 0.35370  0.68350  0.31940  Biso   1.000  O
  O29      1.0000 0.04925  0.04270  0.45840  Biso   1.000  O
  O30      1.0000 0.04925  0.45730  0.95840  Biso   1.000  O
  O31      1.0000 0.95075  0.95730  0.54160  Biso   1.000  O
  O32      1.0000 0.95075  0.54270  0.04160  Biso   1.000  O
  O33      1.0000 0.06730  0.16660  0.36860  Biso   1.000  O
  O34      1.0000 0.06730  0.33340  0.86860  Biso   1.000  O
  O35      1.0000 0.93270  0.83340  0.63140  Biso   1.000  O
  O36      1.0000 0.93270  0.66660  0.13140  Biso   1.000  O
  O37      1.0000 0.04050  0.85510  0.14810  Biso   1.000  O
  O38      1.0000 0.04050  0.64490  0.64810  Biso   1.000  O
  O39      1.0000 0.95950  0.14490  0.85190  Biso   1.000  O
  O40      1.0000 0.95950  0.35510  0.35190  Biso   1.000  O
  O41      1.0000 0.54850  0.24640  0.83270  Biso   1.000  O
  O42      1.0000 0.54850  0.25360  0.33270  Biso   1.000  O
  O43      1.0000 0.45150  0.75360  0.16730  Biso   1.000  O
  O44      1.0000 0.45150  0.74640  0.66730  Biso   1.000  O
  O45      1.0000 0.48690  0.29150  0.14130  Biso   1.000  O
  O46      1.0000 0.48690  0.20850  0.64130  Biso   1.000  O
  O47      1.0000 0.51310  0.70850  0.85870  Biso   1.000  O
  O48      1.0000 0.51310  0.79150  0.35870  Biso   1.000  O
  O49      1.0000 0.20770  0.32070  0.12810  Biso   1.000  O
  O50      1.0000 0.20770  0.17930  0.62810  Biso   1.000  O
  O51      1.0000 0.79230  0.67930  0.87190  Biso   1.000  O
  O52      1.0000 0.79230  0.82070  0.37190  Biso   1.000  O
  N1       1.0000 0.51850  0.03100  0.87490  Biso   1.000  N
  N2       1.0000 0.51850  0.46900  0.37490  Biso   1.000  N
  N3       1.0000 0.48150  0.96900  0.12510  Biso   1.000  N
  N4       1.0000 0.48150  0.53100  0.62510  Biso   1.000  N
  N5       1.0000 0.43810  0.03490  0.86590  Biso   1.000  N
  N6       1.0000 0.43810  0.46510  0.36590  Biso   1.000  N
  N7       1.0000 0.56190  0.96510  0.13410  Biso   1.000  N
  N8       1.0000 0.56190  0.53490  0.63410  Biso   1.000  N
  N9       1.0000 0.29180  0.05870  0.84470  Biso   1.000  N
  N10      1.0000 0.29180  0.44130  0.34470  Biso   1.000  N
  N11      1.0000 0.70820  0.94130  0.15530  Biso   1.000  N
  N12      1.0000 0.70820  0.55870  0.65530  Biso   1.000  N
  N13      1.0000 0.21830  0.94330  0.70460  Biso   1.000  N
  N14      1.0000 0.21830  0.55670  0.20460  Biso   1.000  N
  N15      1.0000 0.78170  0.05670  0.29540  Biso   1.000  N
  N16      1.0000 0.78170  0.44330  0.79540  Biso   1.000  N
  N17      1.0000 0.17220  0.89280  0.62220  Biso   1.000  N
  N18      1.0000 0.17220  0.60720  0.12220  Biso   1.000  N
  N19      1.0000 0.82780  0.10720  0.37780  Biso   1.000  N
  N20      1.0000 0.82780  0.39280  0.87780  Biso   1.000  N
  N21      1.0000 0.26420  0.76660  0.62270  Biso   1.000  N
  N22      1.0000 0.26420  0.73340  0.12270  Biso   1.000  N
  N23      1.0000 0.73580  0.23340  0.37730  Biso   1.000  N
  N24      1.0000 0.73580  0.26660  0.87730  Biso   1.000  N
  N25      1.0000 0.06130  0.81520  0.48640  Biso   1.000  N
  N26      1.0000 0.06130  0.68480  0.98640  Biso   1.000  N
  N27      1.0000 0.93870  0.18480  0.51360  Biso   1.000  N
  N28      1.0000 0.93870  0.31520  0.01360  Biso   1.000  N
  C1       1.0000 0.68700  0.01120  0.88600  Biso   1.000  C
  C2       1.0000 0.68700  0.48880  0.38600  Biso   1.000  C
  C3       1.0000 0.31300  0.98880  0.11400  Biso   1.000  C
  C4       1.0000 0.31300  0.51120  0.61400  Biso   1.000  C
  C5       1.0000 0.76380  0.99000  0.88060  Biso   1.000  C
  C6       1.0000 0.76380  0.51000  0.38060  Biso   1.000  C
  C7       1.0000 0.23620  0.01000  0.11940  Biso   1.000  C
  C8       1.0000 0.23620  0.49000  0.61940  Biso   1.000  C
  C9       1.0000 0.77640  0.91800  0.82300  Biso   1.000  C
  C10      1.0000 0.77640  0.58200  0.32300  Biso   1.000  C
  C11      1.0000 0.22360  0.08200  0.17700  Biso   1.000  C
  C12      1.0000 0.22360  0.41800  0.67700  Biso   1.000  C
  C13      1.0000 0.71400  0.85910  0.76770  Biso   1.000  C
  C14      1.0000 0.71400  0.64090  0.26770  Biso   1.000  C
  C15      1.0000 0.28600  0.14090  0.23230  Biso   1.000  C
  C16      1.0000 0.28600  0.35910  0.73230  Biso   1.000  C
  C17      1.0000 0.63860  0.87680  0.77100  Biso   1.000  C
  C18      1.0000 0.63860  0.62320  0.27100  Biso   1.000  C
  C19      1.0000 0.36140  0.12320  0.22900  Biso   1.000  C
  C20      1.0000 0.36140  0.37680  0.72900  Biso   1.000  C
  C21      1.0000 0.62310  0.95150  0.82950  Biso   1.000  C
  C22      1.0000 0.62310  0.54850  0.32950  Biso   1.000  C
  C23      1.0000 0.37690  0.04850  0.17050  Biso   1.000  C
  C24      1.0000 0.37690  0.45150  0.67050  Biso   1.000  C
  C25      1.0000 0.54190  0.96280  0.82830  Biso   1.000  C
  C26      1.0000 0.54190  0.53720  0.32830  Biso   1.000  C
  C27      1.0000 0.45810  0.03720  0.17170  Biso   1.000  C
  C28      1.0000 0.45810  0.46280  0.67170  Biso   1.000  C
  C29      1.0000 0.42490  0.10400  0.92340  Biso   1.000  C
  C30      1.0000 0.42490  0.39600  0.42340  Biso   1.000  C
  C31      1.0000 0.57510  0.89600  0.07660  Biso   1.000  C
  C32      1.0000 0.57510  0.60400  0.57660  Biso   1.000  C
  C33      1.0000 0.33870  0.11620  0.91360  Biso   1.000  C
  C34      1.0000 0.33870  0.38380  0.41360  Biso   1.000  C
  C35      1.0000 0.66130  0.88380  0.08640  Biso   1.000  C
  C36      1.0000 0.66130  0.61620  0.58640  Biso   1.000  C
  C37      1.0000 0.30700  0.18250  0.96430  Biso   1.000  C
  C38      1.0000 0.30700  0.31750  0.46430  Biso   1.000  C
  C39      1.0000 0.69300  0.81750  0.03570  Biso   1.000  C
  C40      1.0000 0.69300  0.68250  0.53570  Biso   1.000  C
  C41      1.0000 0.22530  0.18740  0.94030  Biso   1.000  C
  C42      1.0000 0.22530  0.31260  0.44030  Biso   1.000  C
  C43      1.0000 0.77470  0.81260  0.05970  Biso   1.000  C
  C44      1.0000 0.77470  0.68740  0.55970  Biso   1.000  C
  C45      1.0000 0.17690  0.13010  0.86650  Biso   1.000  C
  C46      1.0000 0.17690  0.36990  0.36650  Biso   1.000  C
  C47      1.0000 0.82310  0.86990  0.13350  Biso   1.000  C
  C48      1.0000 0.82310  0.63010  0.63350  Biso   1.000  C
  C49      1.0000 0.21260  0.06520  0.81860  Biso   1.000  C
  C50      1.0000 0.21260  0.43480  0.31860  Biso   1.000  C
  C51      1.0000 0.78740  0.93480  0.18140  Biso   1.000  C
  C52      1.0000 0.78740  0.56520  0.68140  Biso   1.000  C
  C53      1.0000 0.17140  0.00230  0.73470  Biso   1.000  C
  C54      1.0000 0.17140  0.49770  0.23470  Biso   1.000  C
  C55      1.0000 0.82860  0.99770  0.26530  Biso   1.000  C
  C56      1.0000 0.82860  0.50230  0.76530  Biso   1.000  C
  C57      1.0000 0.19610  0.81280  0.58850  Biso   1.000  C
  C58      1.0000 0.19610  0.68720  0.08850  Biso   1.000  C
  C59      1.0000 0.80390  0.18720  0.41150  Biso   1.000  C
  C60      1.0000 0.80390  0.31280  0.91150  Biso   1.000  C
  C61      1.0000 0.13340  0.77280  0.50220  Biso   1.000  C
  C62      1.0000 0.13340  0.72720  0.00220  Biso   1.000  C
  C63      1.0000 0.86660  0.22720  0.49780  Biso   1.000  C
  C64      1.0000 0.86660  0.27280  0.99780  Biso   1.000  C
  C65      1.0000 0.14630  0.69930  0.44240  Biso   1.000  C
  C66      1.0000 0.14630  0.80070  0.94240  Biso   1.000  C
  C67      1.0000 0.85370  0.30070  0.55760  Biso   1.000  C
  C68      1.0000 0.85370  0.19930  0.05760  Biso   1.000  C
  C69      1.0000 0.08110  0.66770  0.36630  Biso   1.000  C
  C70      1.0000 0.08110  0.83230  0.86630  Biso   1.000  C
  C71      1.0000 0.91890  0.33230  0.63370  Biso   1.000  C
  C72      1.0000 0.91890  0.16770  0.13370  Biso   1.000  C
  C73      1.0000 0.00720  0.70970  0.35200  Biso   1.000  C
  C74      1.0000 0.00720  0.79030  0.85200  Biso   1.000  C
  C75      1.0000 0.99280  0.29030  0.64800  Biso   1.000  C
  C76      1.0000 0.99280  0.20970  0.14800  Biso   1.000  C
  C77      1.0000 0.99930  0.78380  0.41310  Biso   1.000  C
  C78      1.0000 0.99930  0.71620  0.91310  Biso   1.000  C
  C79      1.0000 0.00070  0.21620  0.58690  Biso   1.000  C
  C80      1.0000 0.00070  0.28380  0.08690  Biso   1.000  C
  C81      1.0000 0.65910  0.24760  0.12610  Biso   1.000  C
  C82      1.0000 0.65910  0.25240  0.62610  Biso   1.000  C
  C83      1.0000 0.34090  0.75240  0.87390  Biso   1.000  C
  C84      1.0000 0.34090  0.74760  0.37390  Biso   1.000  C
  C85      1.0000 0.70190  0.34170  0.16900  Biso   1.000  C
  C86      1.0000 0.70190  0.15830  0.66900  Biso   1.000  C
  C87      1.0000 0.29810  0.65830  0.83100  Biso   1.000  C
  C88      1.0000 0.29810  0.84170  0.33100  Biso   1.000  C
  C89      1.0000 0.62130  0.99090  0.38790  Biso   1.000  C
  C90      1.0000 0.62130  0.50910  0.88790  Biso   1.000  C
  C91      1.0000 0.37870  0.00910  0.61210  Biso   1.000  C
  C92      1.0000 0.37870  0.49090  0.11210  Biso   1.000  C
  C93      1.0000 0.58400  0.00670  0.46440  Biso   1.000  C
  C94      1.0000 0.58400  0.49330  0.96440  Biso   1.000  C
  C95      1.0000 0.41600  0.99330  0.53560  Biso   1.000  C
  C96      1.0000 0.41600  0.50670  0.03560  Biso   1.000  C
  C97      1.0000 0.09140  0.09090  0.41550  Biso   1.000  C
  C98      1.0000 0.09140  0.40910  0.91550  Biso   1.000  C
  C99      1.0000 0.90860  0.90910  0.58450  Biso   1.000  C
  C100     1.0000 0.90860  0.59090  0.08450  Biso   1.000  C
  C101     1.0000 0.17230  0.04830  0.42730  Biso   1.000  C
  C102     1.0000 0.17230  0.45170  0.92730  Biso   1.000  C
  C103     1.0000 0.82770  0.95170  0.57270  Biso   1.000  C
  C104     1.0000 0.82770  0.54830  0.07270  Biso   1.000  C
  H1       1.0000 0.29000  0.78600  0.67200  Biso   1.000  H
  H2       1.0000 0.29000  0.71400  0.17200  Biso   1.000  H
  H3       1.0000 0.71000  0.21400  0.32800  Biso   1.000  H
  H4       1.0000 0.71000  0.28600  0.82800  Biso   1.000  H
  H5       1.0000 0.27400  0.72600  0.59400  Biso   1.000  H
  H6       1.0000 0.27400  0.77400  0.09400  Biso   1.000  H
  H7       1.0000 0.72600  0.27400  0.40600  Biso   1.000  H
  H8       1.0000 0.72600  0.22600  0.90600  Biso   1.000  H
  H9       1.0000 0.80780  0.02760  0.91910  Biso   1.000  H
  H10      1.0000 0.80780  0.47240  0.41910  Biso   1.000  H
  H11      1.0000 0.19220  0.97240  0.08090  Biso   1.000  H
  H12      1.0000 0.19220  0.52760  0.58090  Biso   1.000  H
  H13      1.0000 0.82860  0.90650  0.82050  Biso   1.000  H
  H14      1.0000 0.82860  0.59350  0.32050  Biso   1.000  H
  H15      1.0000 0.17140  0.09350  0.17950  Biso   1.000  H
  H16      1.0000 0.17140  0.40650  0.67950  Biso   1.000  H
  H17      1.0000 0.72220  0.80910  0.72510  Biso   1.000  H
  H18      1.0000 0.72220  0.69090  0.22510  Biso   1.000  H
  H19      1.0000 0.27780  0.19090  0.27490  Biso   1.000  H
  H20      1.0000 0.27780  0.30910  0.77490  Biso   1.000  H
  H21      1.0000 0.59610  0.83700  0.73340  Biso   1.000  H
  H22      1.0000 0.59610  0.66300  0.23340  Biso   1.000  H
  H23      1.0000 0.40390  0.16300  0.26660  Biso   1.000  H
  H24      1.0000 0.40390  0.33700  0.76660  Biso   1.000  H
  H25      1.0000 0.50380  0.91730  0.79120  Biso   1.000  H
  H26      1.0000 0.50380  0.58270  0.29120  Biso   1.000  H
  H27      1.0000 0.49620  0.08270  0.20880  Biso   1.000  H
  H28      1.0000 0.49620  0.41730  0.70880  Biso   1.000  H
  H29      1.0000 0.34020  0.22330  0.01370  Biso   1.000  H
  H30      1.0000 0.34020  0.27670  0.51370  Biso   1.000  H
  H31      1.0000 0.65980  0.77670  0.98630  Biso   1.000  H
  H32      1.0000 0.65980  0.72330  0.48630  Biso   1.000  H
  H33      1.0000 0.20210  0.23080  0.97460  Biso   1.000  H
  H34      1.0000 0.20210  0.26920  0.47460  Biso   1.000  H
  H35      1.0000 0.79790  0.76920  0.02540  Biso   1.000  H
  H36      1.0000 0.79790  0.73080  0.52540  Biso   1.000  H
  H37      1.0000 0.12090  0.13480  0.84970  Biso   1.000  H
  H38      1.0000 0.12090  0.36520  0.34970  Biso   1.000  H
  H39      1.0000 0.87910  0.86520  0.15030  Biso   1.000  H
  H40      1.0000 0.87910  0.63480  0.65030  Biso   1.000  H
  H41      1.0000 0.19760  0.67170  0.45280  Biso   1.000  H
  H42      1.0000 0.19760  0.82830  0.95280  Biso   1.000  H
  H43      1.0000 0.80240  0.32830  0.54720  Biso   1.000  H
  H44      1.0000 0.80240  0.17170  0.04720  Biso   1.000  H
  H45      1.0000 0.08710  0.61680  0.32400  Biso   1.000  H
  H46      1.0000 0.08710  0.88320  0.82400  Biso   1.000  H
  H47      1.0000 0.91290  0.38320  0.67600  Biso   1.000  H
  H48      1.0000 0.91290  0.11680  0.17600  Biso   1.000  H
  H49      1.0000 0.96240  0.68800  0.30120  Biso   1.000  H
  H50      1.0000 0.96240  0.81200  0.80120  Biso   1.000  H
  H51      1.0000 0.03760  0.31200  0.69880  Biso   1.000  H
  H52      1.0000 0.03760  0.18800  0.19880  Biso   1.000  H
  H53      1.0000 0.94880  0.81410  0.40230  Biso   1.000  H
  H54      1.0000 0.94880  0.68590  0.90230  Biso   1.000  H
  H55      1.0000 0.05120  0.18590  0.59770  Biso   1.000  H
  H56      1.0000 0.05120  0.31410  0.09770  Biso   1.000  H
  H57      1.0000 0.06860  0.79540  0.16690  Biso   1.000  H
  H58      1.0000 0.06860  0.70460  0.66690  Biso   1.000  H
  H59      1.0000 0.93140  0.20460  0.83310  Biso   1.000  H
  H60      1.0000 0.93140  0.29540  0.33310  Biso   1.000  H
  H61      1.0000 0.05820  0.89150  0.21250  Biso   1.000  H
  H62      1.0000 0.05820  0.60850  0.71250  Biso   1.000  H
  H63      1.0000 0.94180  0.10850  0.78750  Biso   1.000  H
  H64      1.0000 0.94180  0.39150  0.28750  Biso   1.000  H
  H65      1.0000 0.52130  0.30130  0.84920  Biso   1.000  H
  H66      1.0000 0.52130  0.19870  0.34920  Biso   1.000  H
  H67      1.0000 0.47870  0.69870  0.15080  Biso   1.000  H
  H68      1.0000 0.47870  0.80130  0.65080  Biso   1.000  H
  H69      1.0000 0.51390  0.21530  0.77630  Biso   1.000  H
  H70      1.0000 0.51390  0.28470  0.27630  Biso   1.000  H
  H71      1.0000 0.48610  0.78470  0.22370  Biso   1.000  H
  H72      1.0000 0.48610  0.71530  0.72370  Biso   1.000  H
  H73      1.0000 0.43530  0.30340  0.14580  Biso   1.000  H
  H74      1.0000 0.43530  0.19660  0.64580  Biso   1.000  H
  H75      1.0000 0.56470  0.69660  0.85420  Biso   1.000  H
  H76      1.0000 0.56470  0.80340  0.35420  Biso   1.000  H
  H77      1.0000 0.50920  0.35410  0.13110  Biso   1.000  H
  H78      1.0000 0.50920  0.14590  0.63110  Biso   1.000  H
  H79      1.0000 0.49080  0.64590  0.86890  Biso   1.000  H
  H80      1.0000 0.49080  0.85410  0.36890  Biso   1.000  H
  H81      1.0000 0.20340  0.39110  0.11990  Biso   1.000  H
  H82      1.0000 0.20340  0.10890  0.61990  Biso   1.000  H
  H83      1.0000 0.79660  0.60890  0.88010  Biso   1.000  H
  H84      1.0000 0.79660  0.89110  0.38010  Biso   1.000  H
  H85      1.0000 0.21910  0.30600  0.19510  Biso   1.000  H
  H86      1.0000 0.21910  0.19400  0.69510  Biso   1.000  H
  H87      1.0000 0.78090  0.69400  0.80490  Biso   1.000  H
  H88      1.0000 0.78090  0.80600  0.30490  Biso   1.000  H
  H89      1.0000 0.70580  0.34720  0.23450  Biso   1.000  H
  H90      1.0000 0.70580  0.15280  0.73450  Biso   1.000  H
  H91      1.0000 0.29420  0.65280  0.76550  Biso   1.000  H
  H92      1.0000 0.29420  0.84720  0.26550  Biso   1.000  H
  H93      1.0000 0.75450  0.34130  0.16320  Biso   1.000  H
  H94      1.0000 0.75450  0.15870  0.66320  Biso   1.000  H
  H95      1.0000 0.24550  0.65870  0.83680  Biso   1.000  H
  H96      1.0000 0.24550  0.84130  0.33680  Biso   1.000  H
  H97      1.0000 0.67440  0.39810  0.13450  Biso   1.000  H
  H98      1.0000 0.67440  0.10190  0.63450  Biso   1.000  H
  H99      1.0000 0.32560  0.60190  0.86550  Biso   1.000  H
  H100     1.0000 0.32560  0.89810  0.36550  Biso   1.000  H
  H101     1.0000 0.53090  0.03100  0.43720  Biso   1.000  H
  H102     1.0000 0.53090  0.46900  0.93720  Biso   1.000  H
  H103     1.0000 0.46910  0.96900  0.56280  Biso   1.000  H
  H104     1.0000 0.46910  0.53100  0.06280  Biso   1.000  H
  H105     1.0000 0.61350  0.05460  0.51010  Biso   1.000  H
  H106     1.0000 0.61350  0.44540  0.01010  Biso   1.000  H
  H107     1.0000 0.38650  0.94540  0.48990  Biso   1.000  H
  H108     1.0000 0.38650  0.55460  0.98990  Biso   1.000  H
  H109     1.0000 0.58220  0.94610  0.49740  Biso   1.000  H
  H110     1.0000 0.58220  0.55390  0.99740  Biso   1.000  H
  H111     1.0000 0.41780  0.05390  0.50260  Biso   1.000  H
  H112     1.0000 0.41780  0.44610  0.00260  Biso   1.000  H
  H113     1.0000 0.19850  0.03230  0.49310  Biso   1.000  H
  H114     1.0000 0.19850  0.46770  0.99310  Biso   1.000  H
  H115     1.0000 0.80150  0.96770  0.50690  Biso   1.000  H
  H116     1.0000 0.80150  0.53230  0.00690  Biso   1.000  H
  H117     1.0000 0.16710  0.98830  0.39000  Biso   1.000  H
  H118     1.0000 0.16710  0.51170  0.89000  Biso   1.000  H
  H119     1.0000 0.83290  0.01170  0.61000  Biso   1.000  H
  H120     1.0000 0.83290  0.48830  0.11000  Biso   1.000  H
  H121     1.0000 0.20370  0.09420  0.40570  Biso   1.000  H
  H122     1.0000 0.20370  0.40580  0.90570  Biso   1.000  H
  H123     1.0000 0.79630  0.90580  0.59430  Biso   1.000  H
  H124     1.0000 0.79630  0.59420  0.09430  Biso   1.000  H
