data_image0
_cell_length_a       30.533
_cell_length_b       6.1764
_cell_length_c       19.347
_cell_angle_alpha    90
_cell_angle_beta     122.047
_cell_angle_gamma    90

_symmetry_space_group_name_H-M    "P 1"
_symmetry_int_tables_number       1

loop_
  _symmetry_equiv_pos_as_xyz
  'x, y, z'

loop_
  _atom_site_label
  _atom_site_occupancy
  _atom_site_fract_x
  _atom_site_fract_y
  _atom_site_fract_z
  _atom_site_thermal_displace_type
  _atom_site_B_iso_or_equiv
  _atom_site_type_symbol
  Cu1      1.0000 0.81288  0.44469  0.82370  Biso   1.000  Cu
  Cu2      1.0000 0.18712  0.44469  0.67630  Biso   1.000  Cu
  Cu3      1.0000 0.31288  0.94469  0.82370  Biso   1.000  Cu
  Cu4      1.0000 0.68712  0.94469  0.67630  Biso   1.000  Cu
  Cu5      1.0000 0.18712  0.55531  0.17630  Biso   1.000  Cu
  Cu6      1.0000 0.81288  0.55531  0.32370  Biso   1.000  Cu
  Cu7      1.0000 0.68712  0.05531  0.17630  Biso   1.000  Cu
  Cu8      1.0000 0.31288  0.05531  0.32370  Biso   1.000  Cu
  O1       1.0000 0.78431  0.41880  0.70557  Biso   1.000  O
  O2       1.0000 0.21569  0.41880  0.79443  Biso   1.000  O
  O3       1.0000 0.28431  0.91880  0.70557  Biso   1.000  O
  O4       1.0000 0.71569  0.91880  0.79443  Biso   1.000  O
  O5       1.0000 0.21569  0.58120  0.29443  Biso   1.000  O
  O6       1.0000 0.78431  0.58120  0.20557  Biso   1.000  O
  O7       1.0000 0.71569  0.08120  0.29443  Biso   1.000  O
  O8       1.0000 0.28431  0.08120  0.20557  Biso   1.000  O
  O9       1.0000 0.85043  0.18370  0.83671  Biso   1.000  O
  O10      1.0000 0.14957  0.18370  0.66329  Biso   1.000  O
  O11      1.0000 0.35043  0.68370  0.83671  Biso   1.000  O
  O12      1.0000 0.64957  0.68370  0.66329  Biso   1.000  O
  O13      1.0000 0.14957  0.81630  0.16329  Biso   1.000  O
  O14      1.0000 0.85043  0.81630  0.33671  Biso   1.000  O
  O15      1.0000 0.64957  0.31630  0.16329  Biso   1.000  O
  O16      1.0000 0.35043  0.31630  0.33671  Biso   1.000  O
  O17      1.0000 0.77028  0.69220  0.79197  Biso   1.000  O
  O18      1.0000 0.22972  0.69220  0.70803  Biso   1.000  O
  O19      1.0000 0.27028  0.19220  0.79197  Biso   1.000  O
  O20      1.0000 0.72972  0.19220  0.70803  Biso   1.000  O
  O21      1.0000 0.22972  0.30780  0.20803  Biso   1.000  O
  O22      1.0000 0.77028  0.30780  0.29197  Biso   1.000  O
  O23      1.0000 0.72972  0.80780  0.20803  Biso   1.000  O
  O24      1.0000 0.27028  0.80780  0.29197  Biso   1.000  O
  N1       1.0000 0.84121  0.49310  0.94144  Biso   1.000  N
  N2       1.0000 0.15879  0.49310  0.55856  Biso   1.000  N
  N3       1.0000 0.34121  0.99310  0.94144  Biso   1.000  N
  N4       1.0000 0.65879  0.99310  0.55856  Biso   1.000  N
  N5       1.0000 0.15879  0.50690  0.05856  Biso   1.000  N
  N6       1.0000 0.84121  0.50690  0.44144  Biso   1.000  N
  N7       1.0000 0.65879  0.00690  0.05856  Biso   1.000  N
  N8       1.0000 0.34121  0.00690  0.44144  Biso   1.000  N
  C1       1.0000 0.88217  0.11330  0.90760  Biso   1.000  C
  C2       1.0000 0.11783  0.11330  0.59240  Biso   1.000  C
  C3       1.0000 0.38217  0.61330  0.90760  Biso   1.000  C
  C4       1.0000 0.61783  0.61330  0.59240  Biso   1.000  C
  C5       1.0000 0.11783  0.88670  0.09240  Biso   1.000  C
  C6       1.0000 0.88217  0.88670  0.40760  Biso   1.000  C
  C7       1.0000 0.61783  0.38670  0.09240  Biso   1.000  C
  C8       1.0000 0.38217  0.38670  0.40760  Biso   1.000  C
  C9       1.0000 0.75550  0.80350  0.83110  Biso   1.000  C
  C10      1.0000 0.24450  0.80350  0.66890  Biso   1.000  C
  C11      1.0000 0.25550  0.30350  0.83110  Biso   1.000  C
  C12      1.0000 0.74450  0.30350  0.66890  Biso   1.000  C
  C13      1.0000 0.24450  0.19650  0.16890  Biso   1.000  C
  C14      1.0000 0.75550  0.19650  0.33110  Biso   1.000  C
  C15      1.0000 0.74450  0.69650  0.16890  Biso   1.000  C
  C16      1.0000 0.25550  0.69650  0.33110  Biso   1.000  C
  N9       1.0000 0.87598  0.37430  0.99980  Biso   1.000  N
  N10      1.0000 0.12402  0.37430  0.50020  Biso   1.000  N
  N11      1.0000 0.37598  0.87430  0.99980  Biso   1.000  N
  N12      1.0000 0.62402  0.87430  0.50020  Biso   1.000  N
  N13      1.0000 0.12402  0.62570  0.00020  Biso   1.000  N
  N14      1.0000 0.87598  0.62570  0.49980  Biso   1.000  N
  N15      1.0000 0.62402  0.12570  0.00020  Biso   1.000  N
  N16      1.0000 0.37598  0.12570  0.49980  Biso   1.000  N
  C17      1.0000 0.82604  0.66960  0.97280  Biso   1.000  C
  C18      1.0000 0.17396  0.66960  0.52720  Biso   1.000  C
  C19      1.0000 0.32604  0.16960  0.97280  Biso   1.000  C
  C20      1.0000 0.67396  0.16960  0.52720  Biso   1.000  C
  C21      1.0000 0.17396  0.33040  0.02720  Biso   1.000  C
  C22      1.0000 0.82604  0.33040  0.47280  Biso   1.000  C
  C23      1.0000 0.67396  0.83040  0.02720  Biso   1.000  C
  C24      1.0000 0.32604  0.83040  0.47280  Biso   1.000  C
  N17      1.0000 0.91179  0.93380  0.92569  Biso   1.000  N
  N18      1.0000 0.08821  0.93380  0.57431  Biso   1.000  N
  N19      1.0000 0.41179  0.43380  0.92569  Biso   1.000  N
  N20      1.0000 0.58821  0.43380  0.57431  Biso   1.000  N
  N21      1.0000 0.08821  0.06620  0.07431  Biso   1.000  N
  N22      1.0000 0.91179  0.06620  0.42569  Biso   1.000  N
  N23      1.0000 0.58821  0.56620  0.07431  Biso   1.000  N
  N24      1.0000 0.41179  0.56620  0.42569  Biso   1.000  N
  C25      1.0000 0.89526  0.20220  0.98400  Biso   1.000  C
  C26      1.0000 0.10474  0.20220  0.51600  Biso   1.000  C
  C27      1.0000 0.39526  0.70220  0.98400  Biso   1.000  C
  C28      1.0000 0.60474  0.70220  0.51600  Biso   1.000  C
  C29      1.0000 0.10474  0.79780  0.01600  Biso   1.000  C
  C30      1.0000 0.89526  0.79780  0.48400  Biso   1.000  C
  C31      1.0000 0.60474  0.29780  0.01600  Biso   1.000  C
  C32      1.0000 0.39526  0.29780  0.48400  Biso   1.000  C
  C33      1.0000 0.78573  0.80910  0.92170  Biso   1.000  C
  C34      1.0000 0.21427  0.80910  0.57830  Biso   1.000  C
  C35      1.0000 0.28573  0.30910  0.92170  Biso   1.000  C
  C36      1.0000 0.71427  0.30910  0.57830  Biso   1.000  C
  C37      1.0000 0.21427  0.19090  0.07830  Biso   1.000  C
  C38      1.0000 0.78573  0.19090  0.42170  Biso   1.000  C
  C39      1.0000 0.71427  0.69090  0.07830  Biso   1.000  C
  C40      1.0000 0.28573  0.69090  0.42170  Biso   1.000  C
  C41      1.0000 0.85079  0.69670  0.05750  Biso   1.000  C
  C42      1.0000 0.14921  0.69670  0.44250  Biso   1.000  C
  C43      1.0000 0.35079  0.19670  0.05750  Biso   1.000  C
  C44      1.0000 0.64921  0.19670  0.44250  Biso   1.000  C
  C45      1.0000 0.14921  0.30330  0.94250  Biso   1.000  C
  C46      1.0000 0.85079  0.30330  0.55750  Biso   1.000  C
  C47      1.0000 0.64921  0.80330  0.94250  Biso   1.000  C
  C48      1.0000 0.35079  0.80330  0.55750  Biso   1.000  C
  N25      1.0000 0.94407  0.90060  0.01090  Biso   1.000  N
  N26      1.0000 0.05593  0.90060  0.48910  Biso   1.000  N
  N27      1.0000 0.44407  0.40060  0.01090  Biso   1.000  N
  N28      1.0000 0.55593  0.40060  0.48910  Biso   1.000  N
  N29      1.0000 0.05593  0.09940  0.98910  Biso   1.000  N
  N30      1.0000 0.94407  0.09940  0.51090  Biso   1.000  N
  N31      1.0000 0.55593  0.59940  0.98910  Biso   1.000  N
  N32      1.0000 0.44407  0.59940  0.51090  Biso   1.000  N
  C49      1.0000 0.91602  0.78250  0.87340  Biso   1.000  C
  C50      1.0000 0.08398  0.78250  0.62660  Biso   1.000  C
  C51      1.0000 0.41602  0.28250  0.87340  Biso   1.000  C
  C52      1.0000 0.58398  0.28250  0.62660  Biso   1.000  C
  C53      1.0000 0.08398  0.21750  0.12660  Biso   1.000  C
  C54      1.0000 0.91602  0.21750  0.37340  Biso   1.000  C
  C55      1.0000 0.58398  0.71750  0.12660  Biso   1.000  C
  C56      1.0000 0.41602  0.71750  0.37340  Biso   1.000  C
  C57      1.0000 0.93355  0.06120  0.04430  Biso   1.000  C
  C58      1.0000 0.06645  0.06120  0.45570  Biso   1.000  C
  C59      1.0000 0.43355  0.56120  0.04430  Biso   1.000  C
  C60      1.0000 0.56645  0.56120  0.45570  Biso   1.000  C
  C61      1.0000 0.06645  0.93880  0.95570  Biso   1.000  C
  C62      1.0000 0.93355  0.93880  0.54430  Biso   1.000  C
  C63      1.0000 0.56645  0.43880  0.95570  Biso   1.000  C
  C64      1.0000 0.43355  0.43880  0.54430  Biso   1.000  C
  C65      1.0000 0.77196  0.97220  0.95720  Biso   1.000  C
  C66      1.0000 0.22804  0.97220  0.54280  Biso   1.000  C
  C67      1.0000 0.27196  0.47220  0.95720  Biso   1.000  C
  C68      1.0000 0.72804  0.47220  0.54280  Biso   1.000  C
  C69      1.0000 0.22804  0.02780  0.04280  Biso   1.000  C
  C70      1.0000 0.77196  0.02780  0.45720  Biso   1.000  C
  C71      1.0000 0.72804  0.52780  0.04280  Biso   1.000  C
  C72      1.0000 0.27196  0.52780  0.45720  Biso   1.000  C
  C73      1.0000 0.83600  0.85620  0.08960  Biso   1.000  C
  C74      1.0000 0.16400  0.85620  0.41040  Biso   1.000  C
  C75      1.0000 0.33600  0.35620  0.08960  Biso   1.000  C
  C76      1.0000 0.66400  0.35620  0.41040  Biso   1.000  C
  C77      1.0000 0.16400  0.14380  0.91040  Biso   1.000  C
  C78      1.0000 0.83600  0.14380  0.58960  Biso   1.000  C
  C79      1.0000 0.66400  0.64380  0.91040  Biso   1.000  C
  C80      1.0000 0.33600  0.64380  0.58960  Biso   1.000  C
  H1       1.0000 0.87770  0.60440  0.09230  Biso   1.000  H
  H2       1.0000 0.12230  0.60440  0.40770  Biso   1.000  H
  H3       1.0000 0.37770  0.10440  0.09230  Biso   1.000  H
  H4       1.0000 0.62230  0.10440  0.40770  Biso   1.000  H
  H5       1.0000 0.12230  0.39560  0.90770  Biso   1.000  H
  H6       1.0000 0.87770  0.39560  0.59230  Biso   1.000  H
  H7       1.0000 0.62230  0.89560  0.90770  Biso   1.000  H
  H8       1.0000 0.37770  0.89560  0.59230  Biso   1.000  H
  C81      1.0000 0.88453  0.79440  0.79030  Biso   1.000  C
  C82      1.0000 0.11547  0.79440  0.70970  Biso   1.000  C
  C83      1.0000 0.38453  0.29440  0.79030  Biso   1.000  C
  C84      1.0000 0.61547  0.29440  0.70970  Biso   1.000  C
  C85      1.0000 0.11547  0.20560  0.20970  Biso   1.000  C
  C86      1.0000 0.88453  0.20560  0.29030  Biso   1.000  C
  C87      1.0000 0.61547  0.70560  0.20970  Biso   1.000  C
  C88      1.0000 0.38453  0.70560  0.29030  Biso   1.000  C
  C89      1.0000 0.95110  0.62260  0.90770  Biso   1.000  C
  C90      1.0000 0.04890  0.62260  0.59230  Biso   1.000  C
  C91      1.0000 0.45110  0.12260  0.90770  Biso   1.000  C
  C92      1.0000 0.54890  0.12260  0.59230  Biso   1.000  C
  C93      1.0000 0.04890  0.37740  0.09230  Biso   1.000  C
  C94      1.0000 0.95110  0.37740  0.40770  Biso   1.000  C
  C95      1.0000 0.54890  0.87740  0.09230  Biso   1.000  C
  C96      1.0000 0.45110  0.87740  0.40770  Biso   1.000  C
  C97      1.0000 0.96040  0.07830  0.13490  Biso   1.000  C
  C98      1.0000 0.03960  0.07830  0.36510  Biso   1.000  C
  C99      1.0000 0.46040  0.57830  0.13490  Biso   1.000  C
  C100     1.0000 0.53960  0.57830  0.36510  Biso   1.000  C
  C101     1.0000 0.03960  0.92170  0.86510  Biso   1.000  C
  C102     1.0000 0.96040  0.92170  0.63490  Biso   1.000  C
  C103     1.0000 0.53960  0.42170  0.86510  Biso   1.000  C
  C104     1.0000 0.46040  0.42170  0.63490  Biso   1.000  C
  C105     1.0000 0.79610  0.99730  0.03930  Biso   1.000  C
  C106     1.0000 0.20390  0.99730  0.46070  Biso   1.000  C
  C107     1.0000 0.29610  0.49730  0.03930  Biso   1.000  C
  C108     1.0000 0.70390  0.49730  0.46070  Biso   1.000  C
  C109     1.0000 0.20390  0.00270  0.96070  Biso   1.000  C
  C110     1.0000 0.79610  0.00270  0.53930  Biso   1.000  C
  C111     1.0000 0.70390  0.50270  0.96070  Biso   1.000  C
  C112     1.0000 0.29610  0.50270  0.53930  Biso   1.000  C
  H9       1.0000 0.74530  0.06650  0.92340  Biso   1.000  H
  H10      1.0000 0.25470  0.06650  0.57660  Biso   1.000  H
  H11      1.0000 0.24530  0.56650  0.92340  Biso   1.000  H
  H12      1.0000 0.75470  0.56650  0.57660  Biso   1.000  H
  H13      1.0000 0.25470  0.93350  0.07660  Biso   1.000  H
  H14      1.0000 0.74530  0.93350  0.42340  Biso   1.000  H
  H15      1.0000 0.75470  0.43350  0.07660  Biso   1.000  H
  H16      1.0000 0.24530  0.43350  0.42340  Biso   1.000  H
  H17      1.0000 0.85280  0.87090  0.14590  Biso   1.000  H
  H18      1.0000 0.14720  0.87090  0.35410  Biso   1.000  H
  H19      1.0000 0.35280  0.37090  0.14590  Biso   1.000  H
  H20      1.0000 0.64720  0.37090  0.35410  Biso   1.000  H
  H21      1.0000 0.14720  0.12910  0.85410  Biso   1.000  H
  H22      1.0000 0.85280  0.12910  0.64590  Biso   1.000  H
  H23      1.0000 0.64720  0.62910  0.85410  Biso   1.000  H
  H24      1.0000 0.35280  0.62910  0.64590  Biso   1.000  H
  C113     1.0000 0.89075  0.64370  0.74250  Biso   1.000  C
  C114     1.0000 0.10925  0.64370  0.75750  Biso   1.000  C
  C115     1.0000 0.39075  0.14370  0.74250  Biso   1.000  C
  C116     1.0000 0.60925  0.14370  0.75750  Biso   1.000  C
  C117     1.0000 0.10925  0.35630  0.25750  Biso   1.000  C
  C118     1.0000 0.89075  0.35630  0.24250  Biso   1.000  C
  C119     1.0000 0.60925  0.85630  0.25750  Biso   1.000  C
  C120     1.0000 0.39075  0.85630  0.24250  Biso   1.000  C
  H25      1.0000 0.85940  0.90150  0.76610  Biso   1.000  H
  H26      1.0000 0.14060  0.90150  0.73390  Biso   1.000  H
  H27      1.0000 0.35940  0.40150  0.76610  Biso   1.000  H
  H28      1.0000 0.64060  0.40150  0.73390  Biso   1.000  H
  H29      1.0000 0.14060  0.09850  0.23390  Biso   1.000  H
  H30      1.0000 0.85940  0.09850  0.26610  Biso   1.000  H
  H31      1.0000 0.64060  0.59850  0.23390  Biso   1.000  H
  H32      1.0000 0.35940  0.59850  0.26610  Biso   1.000  H
  C121     1.0000 0.95650  0.47370  0.85870  Biso   1.000  C
  C122     1.0000 0.04350  0.47370  0.64130  Biso   1.000  C
  C123     1.0000 0.45650  0.97370  0.85870  Biso   1.000  C
  C124     1.0000 0.54350  0.97370  0.64130  Biso   1.000  C
  C125     1.0000 0.04350  0.52630  0.14130  Biso   1.000  C
  C126     1.0000 0.95650  0.52630  0.35870  Biso   1.000  C
  C127     1.0000 0.54350  0.02630  0.14130  Biso   1.000  C
  C128     1.0000 0.45650  0.02630  0.35870  Biso   1.000  C
  H33      1.0000 0.97180  0.61150  0.96420  Biso   1.000  H
  H34      1.0000 0.02820  0.61150  0.53580  Biso   1.000  H
  H35      1.0000 0.47180  0.11150  0.96420  Biso   1.000  H
  H36      1.0000 0.52820  0.11150  0.53580  Biso   1.000  H
  H37      1.0000 0.02820  0.38850  0.03580  Biso   1.000  H
  H38      1.0000 0.97180  0.38850  0.46420  Biso   1.000  H
  H39      1.0000 0.52820  0.88850  0.03580  Biso   1.000  H
  H40      1.0000 0.47180  0.88850  0.46420  Biso   1.000  H
  H41      1.0000 0.98420  0.96020  0.15980  Biso   1.000  H
  H42      1.0000 0.01580  0.96020  0.34020  Biso   1.000  H
  H43      1.0000 0.48420  0.46020  0.15980  Biso   1.000  H
  H44      1.0000 0.51580  0.46020  0.34020  Biso   1.000  H
  H45      1.0000 0.01580  0.03980  0.84020  Biso   1.000  H
  H46      1.0000 0.98420  0.03980  0.65980  Biso   1.000  H
  H47      1.0000 0.51580  0.53980  0.84020  Biso   1.000  H
  H48      1.0000 0.48420  0.53980  0.65980  Biso   1.000  H
  H49      1.0000 0.97890  0.21290  0.15260  Biso   1.000  H
  H50      1.0000 0.02110  0.21290  0.34740  Biso   1.000  H
  H51      1.0000 0.47890  0.71290  0.15260  Biso   1.000  H
  H52      1.0000 0.52110  0.71290  0.34740  Biso   1.000  H
  H53      1.0000 0.02110  0.78710  0.84740  Biso   1.000  H
  H54      1.0000 0.97890  0.78710  0.65260  Biso   1.000  H
  H55      1.0000 0.52110  0.28710  0.84740  Biso   1.000  H
  H56      1.0000 0.47890  0.28710  0.65260  Biso   1.000  H
  H57      1.0000 0.93540  0.07260  0.15040  Biso   1.000  H
  H58      1.0000 0.06460  0.07260  0.34960  Biso   1.000  H
  H59      1.0000 0.43540  0.57260  0.15040  Biso   1.000  H
  H60      1.0000 0.56460  0.57260  0.34960  Biso   1.000  H
  H61      1.0000 0.06460  0.92740  0.84960  Biso   1.000  H
  H62      1.0000 0.93540  0.92740  0.65040  Biso   1.000  H
  H63      1.0000 0.56460  0.42740  0.84960  Biso   1.000  H
  H64      1.0000 0.43540  0.42740  0.65040  Biso   1.000  H
  H65      1.0000 0.78610  0.10630  0.06130  Biso   1.000  H
  H66      1.0000 0.21390  0.10630  0.43870  Biso   1.000  H
  H67      1.0000 0.28610  0.60630  0.06130  Biso   1.000  H
  H68      1.0000 0.71390  0.60630  0.43870  Biso   1.000  H
  H69      1.0000 0.21390  0.89370  0.93870  Biso   1.000  H
  H70      1.0000 0.78610  0.89370  0.56130  Biso   1.000  H
  H71      1.0000 0.71390  0.39370  0.93870  Biso   1.000  H
  H72      1.0000 0.28610  0.39370  0.56130  Biso   1.000  H
  C129     1.0000 0.92680  0.48630  0.77640  Biso   1.000  C
  C130     1.0000 0.07320  0.48630  0.72360  Biso   1.000  C
  C131     1.0000 0.42680  0.98630  0.77640  Biso   1.000  C
  C132     1.0000 0.57320  0.98630  0.72360  Biso   1.000  C
  C133     1.0000 0.07320  0.51370  0.22360  Biso   1.000  C
  C134     1.0000 0.92680  0.51370  0.27640  Biso   1.000  C
  C135     1.0000 0.57320  0.01370  0.22360  Biso   1.000  C
  C136     1.0000 0.42680  0.01370  0.27640  Biso   1.000  C
  H73      1.0000 0.86960  0.65180  0.68600  Biso   1.000  H
  H74      1.0000 0.13040  0.65180  0.81400  Biso   1.000  H
  H75      1.0000 0.36960  0.15180  0.68600  Biso   1.000  H
  H76      1.0000 0.63040  0.15180  0.81400  Biso   1.000  H
  H77      1.0000 0.13040  0.34820  0.31400  Biso   1.000  H
  H78      1.0000 0.86960  0.34820  0.18600  Biso   1.000  H
  H79      1.0000 0.63040  0.84820  0.31400  Biso   1.000  H
  H80      1.0000 0.36960  0.84820  0.18600  Biso   1.000  H
  H81      1.0000 0.98090  0.36380  0.88290  Biso   1.000  H
  H82      1.0000 0.01910  0.36380  0.61710  Biso   1.000  H
  H83      1.0000 0.48090  0.86380  0.88290  Biso   1.000  H
  H84      1.0000 0.51910  0.86380  0.61710  Biso   1.000  H
  H85      1.0000 0.01910  0.63620  0.11710  Biso   1.000  H
  H86      1.0000 0.98090  0.63620  0.38290  Biso   1.000  H
  H87      1.0000 0.51910  0.13620  0.11710  Biso   1.000  H
  H88      1.0000 0.48090  0.13620  0.38290  Biso   1.000  H
  H89      1.0000 0.93120  0.38880  0.74390  Biso   1.000  H
  H90      1.0000 0.06880  0.38880  0.75610  Biso   1.000  H
  H91      1.0000 0.43120  0.88880  0.74390  Biso   1.000  H
  H92      1.0000 0.56880  0.88880  0.75610  Biso   1.000  H
  H93      1.0000 0.06880  0.61120  0.25610  Biso   1.000  H
  H94      1.0000 0.93120  0.61120  0.24390  Biso   1.000  H
  H95      1.0000 0.56880  0.11120  0.25610  Biso   1.000  H
  H96      1.0000 0.43120  0.11120  0.24390  Biso   1.000  H
