data_image0
_cell_length_a       10.234
_cell_length_b       13.69
_cell_length_c       10.478
_cell_angle_alpha    90
_cell_angle_beta     119.174
_cell_angle_gamma    90

_symmetry_space_group_name_H-M    "P 1"
_symmetry_int_tables_number       1

loop_
  _symmetry_equiv_pos_as_xyz
  'x, y, z'

loop_
  _atom_site_label
  _atom_site_occupancy
  _atom_site_fract_x
  _atom_site_fract_y
  _atom_site_fract_z
  _atom_site_thermal_displace_type
  _atom_site_B_iso_or_equiv
  _atom_site_type_symbol
  Cu1      1.0000 0.57901  0.12310  0.04226  Biso   1.000  Cu
  Cu2      1.0000 0.07901  0.37690  0.54226  Biso   1.000  Cu
  Cu3      1.0000 0.42099  0.87690  0.95774  Biso   1.000  Cu
  Cu4      1.0000 0.92099  0.62310  0.45774  Biso   1.000  Cu
  Cl1      1.0000 0.52049  0.02443  0.18239  Biso   1.000  Cl
  Cl2      1.0000 0.02049  0.47557  0.68239  Biso   1.000  Cl
  Cl3      1.0000 0.47951  0.97557  0.81761  Biso   1.000  Cl
  Cl4      1.0000 0.97951  0.52443  0.31761  Biso   1.000  Cl
  Cl5      1.0000 0.64953  0.23024  0.92323  Biso   1.000  Cl
  Cl6      1.0000 0.14953  0.26976  0.42323  Biso   1.000  Cl
  Cl7      1.0000 0.35047  0.76976  0.07677  Biso   1.000  Cl
  Cl8      1.0000 0.85047  0.73024  0.57677  Biso   1.000  Cl
  N1       1.0000 0.65480  0.27266  0.25635  Biso   1.000  N
  N2       1.0000 0.15480  0.22734  0.75635  Biso   1.000  N
  N3       1.0000 0.34520  0.72734  0.74365  Biso   1.000  N
  N4       1.0000 0.84520  0.77266  0.24365  Biso   1.000  N
  N5       1.0000 0.65985  0.26969  0.38530  Biso   1.000  N
  N6       1.0000 0.15985  0.23031  0.88530  Biso   1.000  N
  N7       1.0000 0.34015  0.73031  0.61470  Biso   1.000  N
  N8       1.0000 0.84015  0.76969  0.11470  Biso   1.000  N
  N9       1.0000 0.78670  0.29883  0.49492  Biso   1.000  N
  N10      1.0000 0.28670  0.20117  0.99492  Biso   1.000  N
  N11      1.0000 0.21330  0.70117  0.50508  Biso   1.000  N
  N12      1.0000 0.71330  0.79883  0.00508  Biso   1.000  N
  N13      1.0000 0.87140  0.32192  0.43586  Biso   1.000  N
  N14      1.0000 0.37140  0.17808  0.93586  Biso   1.000  N
  N15      1.0000 0.12860  0.67808  0.56414  Biso   1.000  N
  N16      1.0000 0.62860  0.82192  0.06414  Biso   1.000  N
  C1       1.0000 0.79060  0.30564  0.29280  Biso   1.000  C
  C2       1.0000 0.29060  0.19436  0.79280  Biso   1.000  C
  C3       1.0000 0.20940  0.69436  0.70720  Biso   1.000  C
  C4       1.0000 0.70940  0.80564  0.20720  Biso   1.000  C
  H1       1.0000 0.82510  0.31610  0.22650  Biso   1.000  H
  H2       1.0000 0.32510  0.18390  0.72650  Biso   1.000  H
  H3       1.0000 0.17490  0.68390  0.77350  Biso   1.000  H
  H4       1.0000 0.67490  0.81610  0.27350  Biso   1.000  H
  C5       1.0000 0.52950  0.24050  0.40090  Biso   1.000  C
  C6       1.0000 0.02950  0.25950  0.90090  Biso   1.000  C
  C7       1.0000 0.47050  0.75950  0.59910  Biso   1.000  C
  C8       1.0000 0.97050  0.74050  0.09910  Biso   1.000  C
  H5       1.0000 0.44600  0.28330  0.34190  Biso   1.000  H
  H6       1.0000 0.94600  0.21670  0.84190  Biso   1.000  H
  H7       1.0000 0.55400  0.71670  0.65810  Biso   1.000  H
  H8       1.0000 0.05400  0.78330  0.15810  Biso   1.000  H
  H9       1.0000 0.50050  0.17450  0.36450  Biso   1.000  H
  H10      1.0000 0.00050  0.32550  0.86450  Biso   1.000  H
  H11      1.0000 0.49950  0.82550  0.63550  Biso   1.000  H
  H12      1.0000 0.99950  0.67450  0.13550  Biso   1.000  H
  C9       1.0000 0.56120  0.24480  0.55420  Biso   1.000  C
  C10      1.0000 0.06120  0.25520  0.05420  Biso   1.000  C
  C11      1.0000 0.43880  0.75520  0.44580  Biso   1.000  C
  C12      1.0000 0.93880  0.74480  0.94580  Biso   1.000  C
  H13      1.0000 0.59920  0.30830  0.59380  Biso   1.000  H
  H14      1.0000 0.09920  0.19170  0.09380  Biso   1.000  H
  H15      1.0000 0.40080  0.69170  0.40620  Biso   1.000  H
  H16      1.0000 0.90080  0.80830  0.90620  Biso   1.000  H
  H17      1.0000 0.47070  0.23290  0.55800  Biso   1.000  H
  H18      1.0000 0.97070  0.26710  0.05800  Biso   1.000  H
  H19      1.0000 0.52930  0.76710  0.44200  Biso   1.000  H
  H20      1.0000 0.02930  0.73290  0.94200  Biso   1.000  H
  H21      1.0000 0.63410  0.19610  0.61060  Biso   1.000  H
  H22      1.0000 0.13410  0.30390  0.11060  Biso   1.000  H
  H23      1.0000 0.36590  0.80390  0.38940  Biso   1.000  H
  H24      1.0000 0.86590  0.69610  0.88940  Biso   1.000  H
  N17      1.0000 0.98800  0.99618  0.15020  Biso   1.000  N
  N18      1.0000 0.48800  0.50382  0.65020  Biso   1.000  N
  N19      1.0000 0.01200  0.00382  0.84980  Biso   1.000  N
  N20      1.0000 0.51200  0.49618  0.34980  Biso   1.000  N
  N21      1.0000 0.00320  0.02045  0.27913  Biso   1.000  N
  N22      1.0000 0.50320  0.47955  0.77913  Biso   1.000  N
  N23      1.0000 0.99680  0.97955  0.72087  Biso   1.000  N
  N24      1.0000 0.49680  0.52045  0.22087  Biso   1.000  N
  N25      1.0000 0.88395  0.06117  0.27274  Biso   1.000  N
  N26      1.0000 0.38395  0.43883  0.77274  Biso   1.000  N
  N27      1.0000 0.11605  0.93883  0.72726  Biso   1.000  N
  N28      1.0000 0.61605  0.56117  0.22726  Biso   1.000  N
  N29      1.0000 0.78574  0.06495  0.13237  Biso   1.000  N
  N30      1.0000 0.28574  0.43505  0.63237  Biso   1.000  N
  N31      1.0000 0.21426  0.93505  0.86763  Biso   1.000  N
  N32      1.0000 0.71426  0.56495  0.36763  Biso   1.000  N
  C13      1.0000 0.85050  0.02601  0.06050  Biso   1.000  C
  C14      1.0000 0.35050  0.47399  0.56050  Biso   1.000  C
  C15      1.0000 0.14950  0.97399  0.93950  Biso   1.000  C
  C16      1.0000 0.64950  0.52601  0.43950  Biso   1.000  C
  H25      1.0000 0.80440  0.02050  0.95930  Biso   1.000  H
  H26      1.0000 0.30440  0.47950  0.45930  Biso   1.000  H
  H27      1.0000 0.19560  0.97950  0.04070  Biso   1.000  H
  H28      1.0000 0.69560  0.52050  0.54070  Biso   1.000  H
  C17      1.0000 0.14090  0.00250  0.41870  Biso   1.000  C
  C18      1.0000 0.64090  0.49750  0.91870  Biso   1.000  C
  C19      1.0000 0.85910  0.99750  0.58130  Biso   1.000  C
  C20      1.0000 0.35910  0.50250  0.08130  Biso   1.000  C
  H29      1.0000 0.14290  0.93490  0.44740  Biso   1.000  H
  H30      1.0000 0.64290  0.56510  0.94740  Biso   1.000  H
  H31      1.0000 0.85710  0.06510  0.55260  Biso   1.000  H
  H32      1.0000 0.35710  0.43490  0.05260  Biso   1.000  H
  H33      1.0000 0.14090  0.04360  0.49410  Biso   1.000  H
  H34      1.0000 0.64090  0.45640  0.99410  Biso   1.000  H
  H35      1.0000 0.85910  0.95640  0.50590  Biso   1.000  H
  H36      1.0000 0.35910  0.54360  0.00590  Biso   1.000  H
  C21      1.0000 0.27710  0.02340  0.40610  Biso   1.000  C
  C22      1.0000 0.77710  0.47660  0.90610  Biso   1.000  C
  C23      1.0000 0.72290  0.97660  0.59390  Biso   1.000  C
  C24      1.0000 0.22290  0.52340  0.09390  Biso   1.000  C
  H37      1.0000 0.28300  0.97790  0.33940  Biso   1.000  H
  H38      1.0000 0.78300  0.52210  0.83940  Biso   1.000  H
  H39      1.0000 0.71700  0.02210  0.66060  Biso   1.000  H
  H40      1.0000 0.21700  0.47790  0.16060  Biso   1.000  H
  H41      1.0000 0.36440  0.01710  0.50050  Biso   1.000  H
  H42      1.0000 0.86440  0.48290  0.00050  Biso   1.000  H
  H43      1.0000 0.63560  0.98290  0.49950  Biso   1.000  H
  H44      1.0000 0.13560  0.51710  0.99950  Biso   1.000  H
  H45      1.0000 0.27160  0.08870  0.37050  Biso   1.000  H
  H46      1.0000 0.77160  0.41130  0.87050  Biso   1.000  H
  H47      1.0000 0.72840  0.91130  0.62950  Biso   1.000  H
  H48      1.0000 0.22840  0.58870  0.12950  Biso   1.000  H
