data_image0
_cell_length_a       6.9481
_cell_length_b       13.7028
_cell_length_c       12.2932
_cell_angle_alpha    90
_cell_angle_beta     102.007
_cell_angle_gamma    90

_symmetry_space_group_name_H-M    "P 1"
_symmetry_int_tables_number       1

loop_
  _symmetry_equiv_pos_as_xyz
  'x, y, z'

loop_
  _atom_site_label
  _atom_site_occupancy
  _atom_site_fract_x
  _atom_site_fract_y
  _atom_site_fract_z
  _atom_site_thermal_displace_type
  _atom_site_B_iso_or_equiv
  _atom_site_type_symbol
  Cu1      1.0000 0.50000  0.50000  0.50000  Biso   1.000  Cu
  Cu2      1.0000 0.50000  0.00000  0.50000  Biso   1.000  Cu
  O1       1.0000 0.73180  0.49694  0.62330  Biso   1.000  O
  O2       1.0000 0.26820  0.99694  0.37670  Biso   1.000  O
  O3       1.0000 0.26820  0.50306  0.37670  Biso   1.000  O
  O4       1.0000 0.73180  0.00306  0.62330  Biso   1.000  O
  N1       1.0000 0.72170  0.50070  0.73240  Biso   1.000  N
  N2       1.0000 0.27830  0.00070  0.26760  Biso   1.000  N
  N3       1.0000 0.27830  0.49930  0.26760  Biso   1.000  N
  N4       1.0000 0.72170  0.99930  0.73240  Biso   1.000  N
  O5       1.0000 0.24730  0.50960  0.60860  Biso   1.000  O
  O6       1.0000 0.75270  0.00960  0.39140  Biso   1.000  O
  O7       1.0000 0.75270  0.49040  0.39140  Biso   1.000  O
  O8       1.0000 0.24730  0.99040  0.60860  Biso   1.000  O
  H1       1.0000 0.23800  0.54540  0.66420  Biso   1.000  H
  H2       1.0000 0.76200  0.04540  0.33580  Biso   1.000  H
  H3       1.0000 0.76200  0.45460  0.33580  Biso   1.000  H
  H4       1.0000 0.23800  0.95460  0.66420  Biso   1.000  H
  H5       1.0000 0.16190  0.46500  0.61350  Biso   1.000  H
  H6       1.0000 0.83810  0.96500  0.38650  Biso   1.000  H
  H7       1.0000 0.83810  0.53500  0.38650  Biso   1.000  H
  H8       1.0000 0.16190  0.03500  0.61350  Biso   1.000  H
  C1       1.0000 0.64250  0.42730  0.77870  Biso   1.000  C
  C2       1.0000 0.35750  0.92730  0.22130  Biso   1.000  C
  C3       1.0000 0.35750  0.57270  0.22130  Biso   1.000  C
  C4       1.0000 0.64250  0.07270  0.77870  Biso   1.000  C
  H9       1.0000 0.58450  0.37570  0.73480  Biso   1.000  H
  H10      1.0000 0.41550  0.87570  0.26520  Biso   1.000  H
  H11      1.0000 0.41550  0.62430  0.26520  Biso   1.000  H
  H12      1.0000 0.58450  0.12430  0.73480  Biso   1.000  H
  C5       1.0000 0.64540  0.42710  0.89100  Biso   1.000  C
  C6       1.0000 0.35460  0.92710  0.10900  Biso   1.000  C
  C7       1.0000 0.35460  0.57290  0.10900  Biso   1.000  C
  C8       1.0000 0.64540  0.07290  0.89100  Biso   1.000  C
  H13      1.0000 0.59120  0.37540  0.92340  Biso   1.000  H
  H14      1.0000 0.40880  0.87540  0.07660  Biso   1.000  H
  H15      1.0000 0.40880  0.62460  0.07660  Biso   1.000  H
  H16      1.0000 0.59120  0.12460  0.92340  Biso   1.000  H
  C9       1.0000 0.73010  0.50490  0.95450  Biso   1.000  C
  C10      1.0000 0.26990  0.00490  0.04550  Biso   1.000  C
  C11      1.0000 0.26990  0.49510  0.04550  Biso   1.000  C
  C12      1.0000 0.73010  0.99510  0.95450  Biso   1.000  C
  H17      1.0000 0.73450  0.50610  0.03060  Biso   1.000  H
  H18      1.0000 0.26550  0.00610  0.96940  Biso   1.000  H
  H19      1.0000 0.26550  0.49390  0.96940  Biso   1.000  H
  H20      1.0000 0.73450  0.99390  0.03060  Biso   1.000  H
  C13      1.0000 0.80800  0.58060  0.90440  Biso   1.000  C
  C14      1.0000 0.19200  0.08060  0.09560  Biso   1.000  C
  C15      1.0000 0.19200  0.41940  0.09560  Biso   1.000  C
  C16      1.0000 0.80800  0.91940  0.90440  Biso   1.000  C
  H21      1.0000 0.86350  0.63420  0.94590  Biso   1.000  H
  H22      1.0000 0.13650  0.13420  0.05410  Biso   1.000  H
  H23      1.0000 0.13650  0.36580  0.05410  Biso   1.000  H
  H24      1.0000 0.86350  0.86580  0.94590  Biso   1.000  H
  C17      1.0000 0.80270  0.57610  0.79200  Biso   1.000  C
  C18      1.0000 0.19730  0.07610  0.20800  Biso   1.000  C
  C19      1.0000 0.19730  0.42390  0.20800  Biso   1.000  C
  C20      1.0000 0.80270  0.92390  0.79200  Biso   1.000  C
  H25      1.0000 0.85660  0.62660  0.75760  Biso   1.000  H
  H26      1.0000 0.14340  0.12660  0.24240  Biso   1.000  H
  H27      1.0000 0.14340  0.37340  0.24240  Biso   1.000  H
  H28      1.0000 0.85660  0.87340  0.75760  Biso   1.000  H
  N5       1.0000 0.49140  0.35100  0.49650  Biso   1.000  N
  N6       1.0000 0.50860  0.85100  0.50350  Biso   1.000  N
  N7       1.0000 0.50860  0.64900  0.50350  Biso   1.000  N
  N8       1.0000 0.49140  0.14900  0.49650  Biso   1.000  N
  C21      1.0000 0.65900  0.30060  0.51900  Biso   1.000  C
  C22      1.0000 0.34100  0.80060  0.48100  Biso   1.000  C
  C23      1.0000 0.34100  0.69940  0.48100  Biso   1.000  C
  C24      1.0000 0.65900  0.19940  0.51900  Biso   1.000  C
  H29      1.0000 0.77820  0.33390  0.53490  Biso   1.000  H
  H30      1.0000 0.22180  0.83390  0.46510  Biso   1.000  H
  H31      1.0000 0.22180  0.66610  0.46510  Biso   1.000  H
  H32      1.0000 0.77820  0.16610  0.53490  Biso   1.000  H
  C25      1.0000 0.32340  0.30060  0.47350  Biso   1.000  C
  C26      1.0000 0.67660  0.80060  0.52650  Biso   1.000  C
  C27      1.0000 0.67660  0.69940  0.52650  Biso   1.000  C
  C28      1.0000 0.32340  0.19940  0.47350  Biso   1.000  C
  H33      1.0000 0.20430  0.33400  0.45720  Biso   1.000  H
  H34      1.0000 0.79570  0.83400  0.54280  Biso   1.000  H
  H35      1.0000 0.79570  0.66600  0.54280  Biso   1.000  H
  H36      1.0000 0.20430  0.16600  0.45720  Biso   1.000  H
  P1       1.0000 0.29160  0.75000  0.80474  Biso   1.000  P
  P2       1.0000 0.70840  0.25000  0.19526  Biso   1.000  P
  F1       1.0000 0.29070  0.63420  0.80460  Biso   1.000  F
  F2       1.0000 0.70930  0.13420  0.19540  Biso   1.000  F
  F3       1.0000 0.70930  0.36580  0.19540  Biso   1.000  F
  F4       1.0000 0.29070  0.86580  0.80460  Biso   1.000  F
  F5       1.0000 0.45640  0.75000  0.91510  Biso   1.000  F
  F6       1.0000 0.54360  0.25000  0.08490  Biso   1.000  F
  F7       1.0000 0.12410  0.75000  0.87390  Biso   1.000  F
  F8       1.0000 0.87590  0.25000  0.12610  Biso   1.000  F
  F9       1.0000 0.12430  0.75000  0.69340  Biso   1.000  F
  F10      1.0000 0.87570  0.25000  0.30660  Biso   1.000  F
  F11      1.0000 0.45470  0.75000  0.73210  Biso   1.000  F
  F12      1.0000 0.54530  0.25000  0.26790  Biso   1.000  F
  P3       1.0000 0.13440  0.25000  0.76756  Biso   1.000  P
  P4       1.0000 0.86560  0.75000  0.23244  Biso   1.000  P
  F13      1.0000 0.35740  0.25000  0.75330  Biso   1.000  F
  F14      1.0000 0.64260  0.75000  0.24670  Biso   1.000  F
  F15      1.0000 0.90900  0.25000  0.76990  Biso   1.000  F
  F16      1.0000 0.09100  0.75000  0.23010  Biso   1.000  F
  F17      1.0000 0.08730  0.17250  0.66870  Biso   1.000  F
  F18      1.0000 0.91270  0.67250  0.33130  Biso   1.000  F
  F19      1.0000 0.91270  0.82750  0.33130  Biso   1.000  F
  F20      1.0000 0.08730  0.32750  0.66870  Biso   1.000  F
  F21      1.0000 0.18120  0.15980  0.84800  Biso   1.000  F
  F22      1.0000 0.81880  0.65980  0.15200  Biso   1.000  F
  F23      1.0000 0.81880  0.84020  0.15200  Biso   1.000  F
  F24      1.0000 0.18120  0.34020  0.84800  Biso   1.000  F
  F25      1.0000 0.07600  0.25000  0.63700  Biso   1.000  F
  F26      1.0000 0.92400  0.75000  0.36300  Biso   1.000  F
  F27      1.0000 0.13460  0.13430  0.76970  Biso   1.000  F
  F28      1.0000 0.86540  0.63430  0.23030  Biso   1.000  F
  F29      1.0000 0.86540  0.86570  0.23030  Biso   1.000  F
  F30      1.0000 0.13460  0.36570  0.76970  Biso   1.000  F
  F31      1.0000 0.18900  0.25000  0.89770  Biso   1.000  F
  F32      1.0000 0.81100  0.75000  0.10230  Biso   1.000  F
