data_image0
_cell_length_a       6.732
_cell_length_b       11.5
_cell_length_c       14.64
_cell_angle_alpha    90
_cell_angle_beta     90
_cell_angle_gamma    90

_symmetry_space_group_name_H-M    "P 1"
_symmetry_int_tables_number       1

loop_
  _symmetry_equiv_pos_as_xyz
  'x, y, z'

loop_
  _atom_site_label
  _atom_site_occupancy
  _atom_site_fract_x
  _atom_site_fract_y
  _atom_site_fract_z
  _atom_site_thermal_displace_type
  _atom_site_B_iso_or_equiv
  _atom_site_type_symbol
  Cu1      1.0000 0.17007  0.12557  0.00000  Biso   1.000  Cu
  Cu2      1.0000 0.67007  0.37443  0.50000  Biso   1.000  Cu
  Cu3      1.0000 0.32993  0.62557  0.50000  Biso   1.000  Cu
  Cu4      1.0000 0.82993  0.87443  0.00000  Biso   1.000  Cu
  Cl1      1.0000 0.23641  0.93200  0.00000  Biso   1.000  Cl
  Cl2      1.0000 0.73641  0.56800  0.50000  Biso   1.000  Cl
  Cl3      1.0000 0.26359  0.43200  0.50000  Biso   1.000  Cl
  Cl4      1.0000 0.76359  0.06800  0.00000  Biso   1.000  Cl
  Cl5      1.0000 0.21727  0.31926  0.00000  Biso   1.000  Cl
  Cl6      1.0000 0.71727  0.18074  0.50000  Biso   1.000  Cl
  Cl7      1.0000 0.28273  0.81926  0.50000  Biso   1.000  Cl
  Cl8      1.0000 0.78273  0.68074  0.00000  Biso   1.000  Cl
  N1       1.0000 0.17650  0.11767  0.28509  Biso   1.000  N
  N2       1.0000 0.17650  0.11767  0.71491  Biso   1.000  N
  N3       1.0000 0.67650  0.38233  0.78509  Biso   1.000  N
  N4       1.0000 0.32350  0.61767  0.78509  Biso   1.000  N
  N5       1.0000 0.82350  0.88233  0.71491  Biso   1.000  N
  N6       1.0000 0.82350  0.88233  0.28509  Biso   1.000  N
  N7       1.0000 0.32350  0.61767  0.21491  Biso   1.000  N
  N8       1.0000 0.67650  0.38233  0.21491  Biso   1.000  N
  N9       1.0000 0.99010  0.15263  0.26511  Biso   1.000  N
  N10      1.0000 0.99010  0.15263  0.73489  Biso   1.000  N
  N11      1.0000 0.49010  0.34737  0.76511  Biso   1.000  N
  N12      1.0000 0.50990  0.65263  0.76511  Biso   1.000  N
  N13      1.0000 0.00990  0.84737  0.73489  Biso   1.000  N
  N14      1.0000 0.00990  0.84737  0.26511  Biso   1.000  N
  N15      1.0000 0.50990  0.65263  0.23489  Biso   1.000  N
  N16      1.0000 0.49010  0.34737  0.23489  Biso   1.000  N
  N17      1.0000 0.97880  0.15912  0.17736  Biso   1.000  N
  N18      1.0000 0.97880  0.15912  0.82264  Biso   1.000  N
  N19      1.0000 0.47880  0.34088  0.67736  Biso   1.000  N
  N20      1.0000 0.52120  0.65912  0.67736  Biso   1.000  N
  N21      1.0000 0.02120  0.84088  0.82264  Biso   1.000  N
  N22      1.0000 0.02120  0.84088  0.17736  Biso   1.000  N
  N23      1.0000 0.52120  0.65912  0.32264  Biso   1.000  N
  N24      1.0000 0.47880  0.34088  0.32264  Biso   1.000  N
  N25      1.0000 0.15510  0.12729  0.13921  Biso   1.000  N
  N26      1.0000 0.15510  0.12729  0.86079  Biso   1.000  N
  N27      1.0000 0.65510  0.37271  0.63921  Biso   1.000  N
  N28      1.0000 0.34490  0.62729  0.63921  Biso   1.000  N
  N29      1.0000 0.84490  0.87271  0.86079  Biso   1.000  N
  N30      1.0000 0.84490  0.87271  0.13921  Biso   1.000  N
  N31      1.0000 0.34490  0.62729  0.36079  Biso   1.000  N
  N32      1.0000 0.65510  0.37271  0.36079  Biso   1.000  N
  C1       1.0000 0.27740  0.10270  0.20719  Biso   1.000  C
  C2       1.0000 0.27740  0.10270  0.79281  Biso   1.000  C
  C3       1.0000 0.77740  0.39730  0.70719  Biso   1.000  C
  C4       1.0000 0.22260  0.60270  0.70719  Biso   1.000  C
  C5       1.0000 0.72260  0.89730  0.79281  Biso   1.000  C
  C6       1.0000 0.72260  0.89730  0.20719  Biso   1.000  C
  C7       1.0000 0.22260  0.60270  0.29281  Biso   1.000  C
  C8       1.0000 0.77740  0.39730  0.29281  Biso   1.000  C
  C9       1.0000 0.23610  0.10120  0.38024  Biso   1.000  C
  C10      1.0000 0.23610  0.10120  0.61976  Biso   1.000  C
  C11      1.0000 0.73610  0.39880  0.88024  Biso   1.000  C
  C12      1.0000 0.26390  0.60120  0.88024  Biso   1.000  C
  C13      1.0000 0.76390  0.89880  0.61976  Biso   1.000  C
  C14      1.0000 0.76390  0.89880  0.38024  Biso   1.000  C
  C15      1.0000 0.26390  0.60120  0.11976  Biso   1.000  C
  C16      1.0000 0.73610  0.39880  0.11976  Biso   1.000  C
  H1       1.0000 0.12680  0.12010  0.41970  Biso   1.000  H
  H2       1.0000 0.12680  0.12010  0.58030  Biso   1.000  H
  H3       1.0000 0.62680  0.37990  0.91970  Biso   1.000  H
  H4       1.0000 0.37320  0.62010  0.91970  Biso   1.000  H
  H5       1.0000 0.87320  0.87990  0.58030  Biso   1.000  H
  H6       1.0000 0.87320  0.87990  0.41970  Biso   1.000  H
  H7       1.0000 0.37320  0.62010  0.08030  Biso   1.000  H
  H8       1.0000 0.62680  0.37990  0.08030  Biso   1.000  H
  H9       1.0000 0.34660  0.15100  0.39390  Biso   1.000  H
  H10      1.0000 0.34660  0.15100  0.60610  Biso   1.000  H
  H11      1.0000 0.84660  0.34900  0.89390  Biso   1.000  H
  H12      1.0000 0.15340  0.65100  0.89390  Biso   1.000  H
  H13      1.0000 0.65340  0.84900  0.60610  Biso   1.000  H
  H14      1.0000 0.65340  0.84900  0.39390  Biso   1.000  H
  H15      1.0000 0.15340  0.65100  0.10610  Biso   1.000  H
  H16      1.0000 0.84660  0.34900  0.10610  Biso   1.000  H
  H17      1.0000 0.27390  0.02160  0.38960  Biso   1.000  H
  H18      1.0000 0.27390  0.02160  0.61040  Biso   1.000  H
  H19      1.0000 0.77390  0.47840  0.88960  Biso   1.000  H
  H20      1.0000 0.22610  0.52160  0.88960  Biso   1.000  H
  H21      1.0000 0.72610  0.97840  0.61040  Biso   1.000  H
  H22      1.0000 0.72610  0.97840  0.38960  Biso   1.000  H
  H23      1.0000 0.22610  0.52160  0.11040  Biso   1.000  H
  H24      1.0000 0.77390  0.47840  0.11040  Biso   1.000  H
  C17      1.0000 0.48920  0.06675  0.20180  Biso   1.000  C
  C18      1.0000 0.48920  0.06675  0.79820  Biso   1.000  C
  C19      1.0000 0.98920  0.43325  0.70180  Biso   1.000  C
  C20      1.0000 0.01080  0.56675  0.70180  Biso   1.000  C
  C21      1.0000 0.51080  0.93325  0.79820  Biso   1.000  C
  C22      1.0000 0.51080  0.93325  0.20180  Biso   1.000  C
  C23      1.0000 0.01080  0.56675  0.29820  Biso   1.000  C
  C24      1.0000 0.98920  0.43325  0.29820  Biso   1.000  C
  H25      1.0000 0.56090  0.09880  0.25350  Biso   1.000  H
  H26      1.0000 0.56090  0.09880  0.74650  Biso   1.000  H
  H27      1.0000 0.06090  0.40120  0.75350  Biso   1.000  H
  H28      1.0000 0.93910  0.59880  0.75350  Biso   1.000  H
  H29      1.0000 0.43910  0.90120  0.74650  Biso   1.000  H
  H30      1.0000 0.43910  0.90120  0.25350  Biso   1.000  H
  H31      1.0000 0.93910  0.59880  0.24650  Biso   1.000  H
  H32      1.0000 0.06090  0.40120  0.24650  Biso   1.000  H
  H33      1.0000 0.54770  0.09800  0.14650  Biso   1.000  H
  H34      1.0000 0.54770  0.09800  0.85350  Biso   1.000  H
  H35      1.0000 0.04770  0.40200  0.64650  Biso   1.000  H
  H36      1.0000 0.95230  0.59800  0.64650  Biso   1.000  H
  H37      1.0000 0.45230  0.90200  0.85350  Biso   1.000  H
  H38      1.0000 0.45230  0.90200  0.14650  Biso   1.000  H
  H39      1.0000 0.95230  0.59800  0.35350  Biso   1.000  H
  H40      1.0000 0.04770  0.40200  0.35350  Biso   1.000  H
