data_image0
_cell_length_a       9.862
_cell_length_b       16.541
_cell_length_c       10.21
_cell_angle_alpha    90
_cell_angle_beta     113.84
_cell_angle_gamma    90

_symmetry_space_group_name_H-M    "P 1"
_symmetry_int_tables_number       1

loop_
  _symmetry_equiv_pos_as_xyz
  'x, y, z'

loop_
  _atom_site_label
  _atom_site_occupancy
  _atom_site_fract_x
  _atom_site_fract_y
  _atom_site_fract_z
  _atom_site_thermal_displace_type
  _atom_site_B_iso_or_equiv
  _atom_site_type_symbol
  Ag1      1.0000 0.50000  0.64008  0.25000  Biso   1.000  Ag
  Ag2      1.0000 0.50000  0.35992  0.75000  Biso   1.000  Ag
  C1       1.0000 0.71690  0.62430  0.39870  Biso   1.000  C
  C2       1.0000 0.71690  0.37570  0.89870  Biso   1.000  C
  C3       1.0000 0.28310  0.37570  0.60130  Biso   1.000  C
  C4       1.0000 0.28310  0.62430  0.10130  Biso   1.000  C
  N1       1.0000 0.82580  0.60690  0.48060  Biso   1.000  N
  N2       1.0000 0.82580  0.39310  0.98060  Biso   1.000  N
  N3       1.0000 0.17420  0.39310  0.51940  Biso   1.000  N
  N4       1.0000 0.17420  0.60690  0.01940  Biso   1.000  N
  Cu1      1.0000 0.00000  0.58158  0.75000  Biso   1.000  Cu
  Cu2      1.0000 0.00000  0.41842  0.25000  Biso   1.000  Cu
  N5       1.0000 0.00000  0.70320  0.75000  Biso   1.000  N
  N6       1.0000 0.00000  0.29680  0.25000  Biso   1.000  N
  H1       1.0000 0.99680  0.72110  0.66660  Biso   1.000  H
  H2       1.0000 0.99680  0.27890  0.16660  Biso   1.000  H
  H3       1.0000 0.00320  0.27890  0.33340  Biso   1.000  H
  H4       1.0000 0.00320  0.72110  0.83340  Biso   1.000  H
  H5       1.0000 0.08210  0.72110  0.82070  Biso   1.000  H
  H6       1.0000 0.08210  0.27890  0.32070  Biso   1.000  H
  H7       1.0000 0.91790  0.27890  0.17930  Biso   1.000  H
  H8       1.0000 0.91790  0.72110  0.67930  Biso   1.000  H
  H9       1.0000 0.92110  0.72110  0.76270  Biso   1.000  H
  H10      1.0000 0.92110  0.27890  0.26270  Biso   1.000  H
  H11      1.0000 0.07890  0.27890  0.23730  Biso   1.000  H
  H12      1.0000 0.07890  0.72110  0.73730  Biso   1.000  H
  N7       1.0000 0.15560  0.57880  0.66680  Biso   1.000  N
  N8       1.0000 0.15560  0.42120  0.16680  Biso   1.000  N
  N9       1.0000 0.84440  0.42120  0.33320  Biso   1.000  N
  N10      1.0000 0.84440  0.57880  0.83320  Biso   1.000  N
  H13      1.0000 0.13580  0.53610  0.60720  Biso   1.000  H
  H14      1.0000 0.13580  0.46390  0.10720  Biso   1.000  H
  H15      1.0000 0.86420  0.46390  0.39280  Biso   1.000  H
  H16      1.0000 0.86420  0.53610  0.89280  Biso   1.000  H
  H17      1.0000 0.14430  0.62350  0.61320  Biso   1.000  H
  H18      1.0000 0.14430  0.37650  0.11320  Biso   1.000  H
  H19      1.0000 0.85570  0.37650  0.38680  Biso   1.000  H
  H20      1.0000 0.85570  0.62350  0.88680  Biso   1.000  H
  C5       1.0000 0.31280  0.57380  0.76730  Biso   1.000  C
  C6       1.0000 0.31280  0.42620  0.26730  Biso   1.000  C
  C7       1.0000 0.68720  0.42620  0.23270  Biso   1.000  C
  C8       1.0000 0.68720  0.57380  0.73270  Biso   1.000  C
  H21      1.0000 0.32840  0.52360  0.82060  Biso   1.000  H
  H22      1.0000 0.32840  0.47640  0.32060  Biso   1.000  H
  H23      1.0000 0.67160  0.47640  0.17940  Biso   1.000  H
  H24      1.0000 0.67160  0.52360  0.67940  Biso   1.000  H
  H25      1.0000 0.33470  0.61800  0.83520  Biso   1.000  H
  H26      1.0000 0.33470  0.38200  0.33520  Biso   1.000  H
  H27      1.0000 0.66530  0.38200  0.16480  Biso   1.000  H
  H28      1.0000 0.66530  0.61800  0.66480  Biso   1.000  H
  C9       1.0000 0.41900  0.57720  0.69540  Biso   1.000  C
  C10      1.0000 0.41900  0.42280  0.19540  Biso   1.000  C
  C11      1.0000 0.58100  0.42280  0.30460  Biso   1.000  C
  C12      1.0000 0.58100  0.57720  0.80460  Biso   1.000  C
  H29      1.0000 0.40010  0.62570  0.63740  Biso   1.000  H
  H30      1.0000 0.40010  0.37430  0.13740  Biso   1.000  H
  H31      1.0000 0.59990  0.37430  0.36260  Biso   1.000  H
  H32      1.0000 0.59990  0.62570  0.86260  Biso   1.000  H
  H33      1.0000 0.40230  0.53100  0.63230  Biso   1.000  H
  H34      1.0000 0.40230  0.46900  0.13230  Biso   1.000  H
  H35      1.0000 0.59770  0.46900  0.36770  Biso   1.000  H
  H36      1.0000 0.59770  0.53100  0.86770  Biso   1.000  H
  N11      1.0000 0.00000  0.46090  0.75000  Biso   1.000  N
  N12      1.0000 0.00000  0.53910  0.25000  Biso   1.000  N
  C13      1.0000 0.00000  0.39270  0.75000  Biso   1.000  C
  C14      1.0000 0.00000  0.60730  0.25000  Biso   1.000  C
  Ag3      1.0000 0.00000  0.26818  0.75000  Biso   1.000  Ag
  Ag4      1.0000 0.00000  0.73182  0.25000  Biso   1.000  Ag
  C15      1.0000 0.00000  0.14370  0.75000  Biso   1.000  C
  C16      1.0000 0.00000  0.85630  0.25000  Biso   1.000  C
  N13      1.0000 0.00000  0.07480  0.75000  Biso   1.000  N
  N14      1.0000 0.00000  0.92520  0.25000  Biso   1.000  N
  Cu3      1.0000 0.00000  0.95231  0.75000  Biso   1.000  Cu
  Cu4      1.0000 0.00000  0.04769  0.25000  Biso   1.000  Cu
  N15      1.0000 0.16060  0.95090  0.67610  Biso   1.000  N
  N16      1.0000 0.16060  0.04910  0.17610  Biso   1.000  N
  N17      1.0000 0.83940  0.04910  0.32390  Biso   1.000  N
  N18      1.0000 0.83940  0.95090  0.82390  Biso   1.000  N
  H37      1.0000 0.16200  0.90110  0.64120  Biso   1.000  H
  H38      1.0000 0.16200  0.09890  0.14120  Biso   1.000  H
  H39      1.0000 0.83800  0.09890  0.35880  Biso   1.000  H
  H40      1.0000 0.83800  0.90110  0.85880  Biso   1.000  H
  H41      1.0000 0.13340  0.98530  0.60160  Biso   1.000  H
  H42      1.0000 0.13340  0.01470  0.10160  Biso   1.000  H
  H43      1.0000 0.86660  0.01470  0.39840  Biso   1.000  H
  H44      1.0000 0.86660  0.98530  0.89840  Biso   1.000  H
  C17      1.0000 0.31480  0.97130  0.77380  Biso   1.000  C
  C18      1.0000 0.31480  0.02870  0.27380  Biso   1.000  C
  C19      1.0000 0.68520  0.02870  0.22620  Biso   1.000  C
  C20      1.0000 0.68520  0.97130  0.72620  Biso   1.000  C
  H45      1.0000 0.34980  0.93220  0.85120  Biso   1.000  H
  H46      1.0000 0.34980  0.06780  0.35120  Biso   1.000  H
  H47      1.0000 0.65020  0.06780  0.14880  Biso   1.000  H
  H48      1.0000 0.65020  0.93220  0.64880  Biso   1.000  H
  H49      1.0000 0.31600  0.02410  0.81530  Biso   1.000  H
  H50      1.0000 0.31600  0.97590  0.31530  Biso   1.000  H
  H51      1.0000 0.68400  0.97590  0.18470  Biso   1.000  H
  H52      1.0000 0.68400  0.02410  0.68470  Biso   1.000  H
  C21      1.0000 0.41940  0.97180  0.69820  Biso   1.000  C
  C22      1.0000 0.41940  0.02820  0.19820  Biso   1.000  C
  C23      1.0000 0.58060  0.02820  0.30180  Biso   1.000  C
  C24      1.0000 0.58060  0.97180  0.80180  Biso   1.000  C
  H53      1.0000 0.40020  0.92450  0.63700  Biso   1.000  H
  H54      1.0000 0.40020  0.07550  0.13700  Biso   1.000  H
  H55      1.0000 0.59980  0.07550  0.36300  Biso   1.000  H
  H56      1.0000 0.59980  0.92450  0.86300  Biso   1.000  H
  H57      1.0000 0.39990  0.01930  0.63780  Biso   1.000  H
  H58      1.0000 0.39990  0.98070  0.13780  Biso   1.000  H
  H59      1.0000 0.60010  0.98070  0.36220  Biso   1.000  H
  H60      1.0000 0.60010  0.01930  0.86220  Biso   1.000  H
  N19      1.0000 0.87400  0.88580  0.57460  Biso   1.000  N
  N20      1.0000 0.87400  0.11420  0.07460  Biso   1.000  N
  N21      1.0000 0.12600  0.11420  0.42540  Biso   1.000  N
  N22      1.0000 0.12600  0.88580  0.92540  Biso   1.000  N
  C25      1.0000 0.80830  0.85060  0.47240  Biso   1.000  C
  C26      1.0000 0.80830  0.14940  0.97240  Biso   1.000  C
  C27      1.0000 0.19170  0.14940  0.52760  Biso   1.000  C
  C28      1.0000 0.19170  0.85060  0.02760  Biso   1.000  C
  Ag5      1.0000 0.68400  0.79710  0.27767  Biso   1.000  Ag
  Ag6      1.0000 0.68400  0.20290  0.77767  Biso   1.000  Ag
  Ag7      1.0000 0.31600  0.20290  0.72233  Biso   1.000  Ag
  Ag8      1.0000 0.31600  0.79710  0.22233  Biso   1.000  Ag
  C29      1.0000 0.56140  0.77610  0.06460  Biso   1.000  C
  C30      1.0000 0.56140  0.22390  0.56460  Biso   1.000  C
  C31      1.0000 0.43860  0.22390  0.93540  Biso   1.000  C
  C32      1.0000 0.43860  0.77610  0.43540  Biso   1.000  C
  N23      1.0000 0.49360  0.77040  0.94380  Biso   1.000  N
  N24      1.0000 0.49360  0.22960  0.44380  Biso   1.000  N
  N25      1.0000 0.50640  0.22960  0.05620  Biso   1.000  N
  N26      1.0000 0.50640  0.77040  0.55620  Biso   1.000  N
  O1       1.0000 0.24910  0.77240  0.66350  Biso   1.000  O
  O2       1.0000 0.24910  0.22760  0.16350  Biso   1.000  O
  O3       1.0000 0.75090  0.22760  0.33650  Biso   1.000  O
  O4       1.0000 0.75090  0.77240  0.83650  Biso   1.000  O
  H61      1.0000 0.30600  0.78200  0.74300  Biso   1.000  H
  H62      1.0000 0.30600  0.21800  0.24300  Biso   1.000  H
  H63      1.0000 0.69400  0.21800  0.25700  Biso   1.000  H
  H64      1.0000 0.69400  0.78200  0.75700  Biso   1.000  H
  H65      1.0000 0.29900  0.77600  0.61900  Biso   1.000  H
  H66      1.0000 0.29900  0.22400  0.11900  Biso   1.000  H
  H67      1.0000 0.70100  0.22400  0.38100  Biso   1.000  H
  H68      1.0000 0.70100  0.77600  0.88100  Biso   1.000  H
