data_image0
_cell_length_a       9.9254
_cell_length_b       12.0608
_cell_length_c       21.0919
_cell_angle_alpha    87.034
_cell_angle_beta     87.183
_cell_angle_gamma    80.854

_symmetry_space_group_name_H-M    "P 1"
_symmetry_int_tables_number       1

loop_
  _symmetry_equiv_pos_as_xyz
  'x, y, z'

loop_
  _atom_site_label
  _atom_site_occupancy
  _atom_site_fract_x
  _atom_site_fract_y
  _atom_site_fract_z
  _atom_site_thermal_displace_type
  _atom_site_B_iso_or_equiv
  _atom_site_type_symbol
  Cu1      1.0000 0.59986  0.44065  0.26547  Biso   1.000  Cu
  Cu2      1.0000 0.40014  0.55935  0.73453  Biso   1.000  Cu
  Cu3      1.0000 0.12030  0.89957  0.05900  Biso   1.000  Cu
  Cu4      1.0000 0.87970  0.10043  0.94100  Biso   1.000  Cu
  Cu5      1.0000 0.13828  0.91425  0.44783  Biso   1.000  Cu
  Cu6      1.0000 0.86172  0.08575  0.55217  Biso   1.000  Cu
  Cl1      1.0000 0.46838  0.36096  0.20082  Biso   1.000  Cl
  Cl2      1.0000 0.53162  0.63904  0.79918  Biso   1.000  Cl
  Cl3      1.0000 0.58630  0.30813  0.34244  Biso   1.000  Cl
  Cl4      1.0000 0.41370  0.69187  0.65756  Biso   1.000  Cl
  Cl5      1.0000 0.10899  0.72395  0.03147  Biso   1.000  Cl
  Cl6      1.0000 0.89101  0.27605  0.96853  Biso   1.000  Cl
  Cl7      1.0000 0.89118  0.94763  0.06602  Biso   1.000  Cl
  Cl8      1.0000 0.10882  0.05237  0.93398  Biso   1.000  Cl
  Cl9      1.0000 0.90983  0.95784  0.43843  Biso   1.000  Cl
  Cl10     1.0000 0.09017  0.04216  0.56157  Biso   1.000  Cl
  Cl11     1.0000 0.12743  0.73511  0.48459  Biso   1.000  Cl
  Cl12     1.0000 0.87257  0.26489  0.51541  Biso   1.000  Cl
  Cl13     1.0000 0.13170  0.73268  0.21992  Biso   1.000  Cl
  Cl14     1.0000 0.86830  0.26732  0.78008  Biso   1.000  Cl
  Cl15     1.0000 0.06075  0.50580  0.22481  Biso   1.000  Cl
  Cl16     1.0000 0.93925  0.49420  0.77519  Biso   1.000  Cl
  S1       1.0000 0.34892  0.61785  0.35437  Biso   1.000  S
  S2       1.0000 0.65108  0.38215  0.64563  Biso   1.000  S
  N1       1.0000 0.51540  0.80210  0.18946  Biso   1.000  N
  N2       1.0000 0.48460  0.19790  0.81054  Biso   1.000  N
  N3       1.0000 0.36470  0.94000  0.24616  Biso   1.000  N
  N4       1.0000 0.63530  0.06000  0.75384  Biso   1.000  N
  N5       1.0000 0.52250  0.80320  0.30244  Biso   1.000  N
  N6       1.0000 0.47750  0.19680  0.69756  Biso   1.000  N
  N7       1.0000 0.66810  0.67380  0.24564  Biso   1.000  N
  N8       1.0000 0.33190  0.32620  0.75436  Biso   1.000  N
  N9       1.0000 0.68890  0.51110  0.18770  Biso   1.000  N
  N10      1.0000 0.31110  0.48890  0.81230  Biso   1.000  N
  N11      1.0000 0.72660  0.52140  0.31730  Biso   1.000  N
  N12      1.0000 0.27340  0.47860  0.68270  Biso   1.000  N
  N13      1.0000 0.36090  0.93570  0.13708  Biso   1.000  N
  N14      1.0000 0.63910  0.06430  0.86292  Biso   1.000  N
  N15      1.0000 0.15360  0.03800  0.10303  Biso   1.000  N
  N16      1.0000 0.84640  0.96200  0.89697  Biso   1.000  N
  N17      1.0000 0.32210  0.87260  0.03711  Biso   1.000  N
  N18      1.0000 0.67790  0.12740  0.96289  Biso   1.000  N
  N19      1.0000 0.37610  0.94130  0.35532  Biso   1.000  N
  N20      1.0000 0.62390  0.05870  0.64468  Biso   1.000  N
  N21      1.0000 0.34120  0.88550  0.46095  Biso   1.000  N
  N22      1.0000 0.65880  0.11450  0.53905  Biso   1.000  N
  N23      1.0000 0.17320  0.05150  0.39133  Biso   1.000  N
  N24      1.0000 0.82680  0.94850  0.60867  Biso   1.000  N
  O1       1.0000 0.42700  0.57570  0.29486  Biso   1.000  O
  O2       1.0000 0.57300  0.42430  0.70514  Biso   1.000  O
  C1       1.0000 0.56280  0.76400  0.24550  Biso   1.000  C
  C2       1.0000 0.43720  0.23600  0.75450  Biso   1.000  C
  C3       1.0000 0.41660  0.88990  0.19350  Biso   1.000  C
  C4       1.0000 0.58340  0.11010  0.80650  Biso   1.000  C
  C5       1.0000 0.42380  0.89330  0.29860  Biso   1.000  C
  C6       1.0000 0.57620  0.10670  0.70140  Biso   1.000  C
  C7       1.0000 0.71280  0.61820  0.18760  Biso   1.000  C
  C8       1.0000 0.28720  0.38180  0.81240  Biso   1.000  C
  C9       1.0000 0.78000  0.66980  0.13920  Biso   1.000  C
  C10      1.0000 0.22000  0.33020  0.86080  Biso   1.000  C
  H1       1.0000 0.79470  0.74370  0.14150  Biso   1.000  H
  H2       1.0000 0.20530  0.25630  0.85850  Biso   1.000  H
  C11      1.0000 0.82540  0.60800  0.08640  Biso   1.000  C
  C12      1.0000 0.17460  0.39200  0.91360  Biso   1.000  C
  H3       1.0000 0.86970  0.64040  0.05210  Biso   1.000  H
  H4       1.0000 0.13030  0.35960  0.94790  Biso   1.000  H
  C13      1.0000 0.80370  0.49670  0.08560  Biso   1.000  C
  C14      1.0000 0.19630  0.50330  0.91440  Biso   1.000  C
  H5       1.0000 0.83500  0.45330  0.05110  Biso   1.000  H
  H6       1.0000 0.16500  0.54670  0.94890  Biso   1.000  H
  C15      1.0000 0.73620  0.45220  0.13610  Biso   1.000  C
  C16      1.0000 0.26380  0.54780  0.86390  Biso   1.000  C
  H7       1.0000 0.72190  0.37800  0.13500  Biso   1.000  H
  H8       1.0000 0.27810  0.62200  0.86500  Biso   1.000  H
  C17      1.0000 0.73200  0.62930  0.30210  Biso   1.000  C
  C18      1.0000 0.26800  0.37070  0.69790  Biso   1.000  C
  C19      1.0000 0.80160  0.69590  0.33660  Biso   1.000  C
  C20      1.0000 0.19840  0.30410  0.66340  Biso   1.000  C
  H9       1.0000 0.80320  0.77080  0.32430  Biso   1.000  H
  H10      1.0000 0.19680  0.22920  0.67570  Biso   1.000  H
  C21      1.0000 0.86860  0.64730  0.38990  Biso   1.000  C
  C22      1.0000 0.13140  0.35270  0.61010  Biso   1.000  C
  H11      1.0000 0.91510  0.68930  0.41460  Biso   1.000  H
  H12      1.0000 0.08490  0.31070  0.58540  Biso   1.000  H
  C23      1.0000 0.86460  0.53430  0.40540  Biso   1.000  C
  C24      1.0000 0.13540  0.46570  0.59460  Biso   1.000  C
  H13      1.0000 0.90940  0.49940  0.44060  Biso   1.000  H
  H14      1.0000 0.09060  0.50060  0.55940  Biso   1.000  H
  C25      1.0000 0.79410  0.47460  0.36870  Biso   1.000  C
  C26      1.0000 0.20590  0.52540  0.63130  Biso   1.000  C
  H15      1.0000 0.79270  0.39910  0.37950  Biso   1.000  H
  H16      1.0000 0.20730  0.60090  0.62050  Biso   1.000  H
  C27      1.0000 0.26580  0.03840  0.13490  Biso   1.000  C
  C28      1.0000 0.73420  0.96160  0.86510  Biso   1.000  C
  C29      1.0000 0.29570  0.13320  0.16270  Biso   1.000  C
  C30      1.0000 0.70430  0.86680  0.83730  Biso   1.000  C
  H17      1.0000 0.37530  0.13020  0.18470  Biso   1.000  H
  H18      1.0000 0.62470  0.86980  0.81530  Biso   1.000  H
  C31      1.0000 0.20400  0.23200  0.15690  Biso   1.000  C
  C32      1.0000 0.79600  0.76800  0.84310  Biso   1.000  C
  H19      1.0000 0.21960  0.29650  0.17580  Biso   1.000  H
  H20      1.0000 0.78040  0.70350  0.82420  Biso   1.000  H
  C33      1.0000 0.08910  0.23330  0.12250  Biso   1.000  C
  C34      1.0000 0.91090  0.76670  0.87750  Biso   1.000  C
  H21      1.0000 0.02720  0.29930  0.11740  Biso   1.000  H
  H22      1.0000 0.97280  0.70070  0.88260  Biso   1.000  H
  C35      1.0000 0.06640  0.13700  0.09610  Biso   1.000  C
  C36      1.0000 0.93360  0.86300  0.90390  Biso   1.000  C
  H23      1.0000 0.98910  0.13910  0.07260  Biso   1.000  H
  H24      1.0000 0.01090  0.86090  0.92740  Biso   1.000  H
  C37      1.0000 0.41510  0.89400  0.07700  Biso   1.000  C
  C38      1.0000 0.58490  0.10600  0.92300  Biso   1.000  C
  C39      1.0000 0.55380  0.87990  0.06120  Biso   1.000  C
  C40      1.0000 0.44620  0.12010  0.93880  Biso   1.000  C
  H25      1.0000 0.61540  0.89820  0.08930  Biso   1.000  H
  H26      1.0000 0.38460  0.10180  0.91070  Biso   1.000  H
  C41      1.0000 0.59810  0.83820  0.00290  Biso   1.000  C
  C42      1.0000 0.40190  0.16180  0.99710  Biso   1.000  C
  H27      1.0000 0.69050  0.82810  0.99100  Biso   1.000  H
  H28      1.0000 0.30950  0.17190  0.00900  Biso   1.000  H
  C43      1.0000 0.50430  0.81160  0.96220  Biso   1.000  C
  C44      1.0000 0.49570  0.18840  0.03780  Biso   1.000  C
  H29      1.0000 0.53270  0.77950  0.92370  Biso   1.000  H
  H30      1.0000 0.46730  0.22050  0.07630  Biso   1.000  H
  C45      1.0000 0.36780  0.83360  0.98010  Biso   1.000  C
  C46      1.0000 0.63220  0.16640  0.01990  Biso   1.000  C
  H31      1.0000 0.30420  0.82090  0.95140  Biso   1.000  H
  H32      1.0000 0.69580  0.17910  0.04860  Biso   1.000  H
  C47      1.0000 0.43190  0.90260  0.41430  Biso   1.000  C
  C48      1.0000 0.56810  0.09740  0.58570  Biso   1.000  C
  C49      1.0000 0.57250  0.88750  0.42320  Biso   1.000  C
  C50      1.0000 0.42750  0.11250  0.57680  Biso   1.000  C
  H33      1.0000 0.63340  0.90280  0.39020  Biso   1.000  H
  H34      1.0000 0.36660  0.09720  0.60980  Biso   1.000  H
  C51      1.0000 0.61810  0.84930  0.48200  Biso   1.000  C
  C52      1.0000 0.38190  0.15070  0.51800  Biso   1.000  C
  H35      1.0000 0.71110  0.83660  0.48910  Biso   1.000  H
  H36      1.0000 0.28890  0.16340  0.51090  Biso   1.000  H
  C53      1.0000 0.52500  0.82990  0.53080  Biso   1.000  C
  C54      1.0000 0.47500  0.17010  0.46920  Biso   1.000  C
  H37      1.0000 0.55470  0.80350  0.57070  Biso   1.000  H
  H38      1.0000 0.44530  0.19650  0.42930  Biso   1.000  H
  C55      1.0000 0.38680  0.85030  0.51910  Biso   1.000  C
  C56      1.0000 0.61320  0.14970  0.48090  Biso   1.000  C
  H39      1.0000 0.32390  0.83970  0.55210  Biso   1.000  H
  H40      1.0000 0.67610  0.16030  0.44790  Biso   1.000  H
  C57      1.0000 0.28710  0.04790  0.35450  Biso   1.000  C
  C58      1.0000 0.71290  0.95210  0.64550  Biso   1.000  C
  C59      1.0000 0.32620  0.14000  0.32070  Biso   1.000  C
  C60      1.0000 0.67380  0.86000  0.67930  Biso   1.000  C
  H41      1.0000 0.40890  0.13410  0.29740  Biso   1.000  H
  H42      1.0000 0.59110  0.86590  0.70260  Biso   1.000  H
  C61      1.0000 0.23810  0.24120  0.32260  Biso   1.000  C
  C62      1.0000 0.76190  0.75880  0.67740  Biso   1.000  C
  H43      1.0000 0.25870  0.30460  0.29950  Biso   1.000  H
  H44      1.0000 0.74130  0.69540  0.70050  Biso   1.000  H
  C63      1.0000 0.11890  0.24560  0.35970  Biso   1.000  C
  C64      1.0000 0.88110  0.75440  0.64030  Biso   1.000  C
  H45      1.0000 0.05830  0.31270  0.36150  Biso   1.000  H
  H46      1.0000 0.94170  0.68730  0.63850  Biso   1.000  H
  C65      1.0000 0.08910  0.15160  0.39390  Biso   1.000  C
  C66      1.0000 0.91090  0.84840  0.60610  Biso   1.000  C
  H47      1.0000 0.00940  0.15690  0.41950  Biso   1.000  H
  H48      1.0000 0.99060  0.84310  0.58050  Biso   1.000  H
  C67      1.0000 0.24910  0.51160  0.37990  Biso   1.000  C
  C68      1.0000 0.75090  0.48840  0.62010  Biso   1.000  C
  H49      1.0000 0.18550  0.50460  0.34800  Biso   1.000  H
  H50      1.0000 0.81450  0.49540  0.65200  Biso   1.000  H
  H51      1.0000 0.20000  0.53200  0.41900  Biso   1.000  H
  H52      1.0000 0.80000  0.46800  0.58100  Biso   1.000  H
  H53      1.0000 0.30820  0.44120  0.38640  Biso   1.000  H
  H54      1.0000 0.69180  0.55880  0.61360  Biso   1.000  H
  C69      1.0000 0.46320  0.59470  0.41810  Biso   1.000  C
  C70      1.0000 0.53680  0.40530  0.58190  Biso   1.000  C
  H55      1.0000 0.50450  0.51710  0.42050  Biso   1.000  H
  H56      1.0000 0.49550  0.48290  0.57950  Biso   1.000  H
  H57      1.0000 0.41360  0.61340  0.45740  Biso   1.000  H
  H58      1.0000 0.58640  0.38660  0.54260  Biso   1.000  H
  H59      1.0000 0.53300  0.64110  0.41080  Biso   1.000  H
  H60      1.0000 0.46700  0.35890  0.58920  Biso   1.000  H
  S3       1.0000 0.80390  0.06250  0.28680  Biso   1.000  S
  S4       1.0000 0.19610  0.93750  0.71320  Biso   1.000  S
  O3       1.0000 0.70450  0.97910  0.28350  Biso   1.000  O
  O4       1.0000 0.29550  0.02090  0.71650  Biso   1.000  O
  C71      1.0000 0.98760  0.02600  0.25540  Biso   1.000  C
  C72      1.0000 0.01240  0.97400  0.74460  Biso   1.000  C
  H61      1.0000 0.03540  0.96770  0.28240  Biso   1.000  H
  H62      1.0000 0.96460  0.03230  0.71760  Biso   1.000  H
  H63      1.0000 0.03150  0.09150  0.25500  Biso   1.000  H
  H64      1.0000 0.96850  0.90850  0.74500  Biso   1.000  H
  H65      1.0000 0.98880  0.00030  0.21300  Biso   1.000  H
  H66      1.0000 0.01120  0.99970  0.78700  Biso   1.000  H
  C73      1.0000 0.76910  0.14120  0.21350  Biso   1.000  C
  C74      1.0000 0.23090  0.85880  0.78650  Biso   1.000  C
  H67      1.0000 0.77450  0.09050  0.17950  Biso   1.000  H
  H68      1.0000 0.22550  0.90950  0.82050  Biso   1.000  H
  H69      1.0000 0.83500  0.19100  0.20530  Biso   1.000  H
  H70      1.0000 0.16500  0.80900  0.79470  Biso   1.000  H
  H71      1.0000 0.67910  0.18420  0.21640  Biso   1.000  H
  H72      1.0000 0.32090  0.81580  0.78360  Biso   1.000  H
  S5       1.0000 0.78870  0.05960  0.28040  Biso   1.000  S
  S6       1.0000 0.21130  0.94040  0.71960  Biso   1.000  S
  O5       1.0000 0.70890  0.99830  0.23980  Biso   1.000  O
  O6       1.0000 0.29110  0.00170  0.76020  Biso   1.000  O
  C75      1.0000 0.95860  0.98310  0.26060  Biso   1.000  C
  C76      1.0000 0.04140  0.01690  0.73940  Biso   1.000  C
  H73      1.0000 0.98090  0.92230  0.29140  Biso   1.000  H
  H74      1.0000 0.01910  0.07770  0.70860  Biso   1.000  H
  H75      1.0000 0.02470  0.03310  0.26100  Biso   1.000  H
  H76      1.0000 0.97530  0.96690  0.73900  Biso   1.000  H
  H77      1.0000 0.95930  0.95370  0.21910  Biso   1.000  H
  H78      1.0000 0.04070  0.04630  0.78090  Biso   1.000  H
  C77      1.0000 0.84000  0.17800  0.23900  Biso   1.000  C
  C78      1.0000 0.16000  0.82200  0.76100  Biso   1.000  C
  H79      1.0000 0.93610  0.16140  0.22710  Biso   1.000  H
  H80      1.0000 0.06390  0.83860  0.77290  Biso   1.000  H
  H81      1.0000 0.82400  0.24110  0.26520  Biso   1.000  H
  H82      1.0000 0.17600  0.75890  0.73480  Biso   1.000  H
  H83      1.0000 0.78930  0.19450  0.20090  Biso   1.000  H
  H84      1.0000 0.21070  0.80550  0.79910  Biso   1.000  H
  C79      1.0000 0.17480  0.59550  0.19280  Biso   1.000  C
  C80      1.0000 0.82520  0.40450  0.80720  Biso   1.000  C
  H85      1.0000 0.26690  0.56490  0.20470  Biso   1.000  H
  H86      1.0000 0.73310  0.43510  0.79530  Biso   1.000  H
  H87      1.0000 0.17310  0.59830  0.14680  Biso   1.000  H
  H88      1.0000 0.82690  0.40170  0.85320  Biso   1.000  H
  Cl17     1.0000 0.26880  0.43820  0.06230  Biso   1.000  Cl
  Cl18     1.0000 0.73120  0.56180  0.93770  Biso   1.000  Cl
  Cl19     1.0000 0.51620  0.48940  0.98380  Biso   1.000  Cl
  Cl20     1.0000 0.48380  0.51060  0.01620  Biso   1.000  Cl
  Cl21     1.0000 0.45380  0.61620  0.09200  Biso   1.000  Cl
  Cl22     1.0000 0.54620  0.38380  0.90800  Biso   1.000  Cl
  C81      1.0000 0.40720  0.50860  0.05130  Biso   1.000  C
  C82      1.0000 0.59280  0.49140  0.94870  Biso   1.000  C
  H89      1.0000 0.46250  0.48990  0.08800  Biso   1.000  H
  H90      1.0000 0.53750  0.51010  0.91200  Biso   1.000  H
  H91      1.0000 0.37180  0.58840  0.05220  Biso   1.000  H
  H92      1.0000 0.62820  0.41160  0.94780  Biso   1.000  H
  H93      1.0000 0.31270  0.52770  0.03940  Biso   1.000  H
  H94      1.0000 0.68730  0.47230  0.96060  Biso   1.000  H
  H95      1.0000 0.41540  0.44010  0.07830  Biso   1.000  H
  H96      1.0000 0.58460  0.55990  0.92170  Biso   1.000  H
