data_image0
_cell_length_a       10.5295
_cell_length_b       12.493
_cell_length_c       23.4994
_cell_angle_alpha    95.8
_cell_angle_beta     100.89
_cell_angle_gamma    111.74

_symmetry_space_group_name_H-M    "P 1"
_symmetry_int_tables_number       1

loop_
  _symmetry_equiv_pos_as_xyz
  'x, y, z'

loop_
  _atom_site_label
  _atom_site_occupancy
  _atom_site_fract_x
  _atom_site_fract_y
  _atom_site_fract_z
  _atom_site_thermal_displace_type
  _atom_site_B_iso_or_equiv
  _atom_site_type_symbol
  Gd1      1.0000 0.54368  0.10777  0.57349  Biso   1.000  Gd
  Gd2      1.0000 0.45632  0.89223  0.42651  Biso   1.000  Gd
  Gd3      1.0000 0.52123  0.30942  0.71185  Biso   1.000  Gd
  Gd4      1.0000 0.47877  0.69058  0.28815  Biso   1.000  Gd
  Gd5      1.0000 0.32792  0.38439  0.15254  Biso   1.000  Gd
  Gd6      1.0000 0.67208  0.61561  0.84746  Biso   1.000  Gd
  Cu1      1.0000 0.53798  0.81831  0.93927  Biso   1.000  Cu
  Cu2      1.0000 0.46202  0.18169  0.06073  Biso   1.000  Cu
  C1       1.0000 0.73930  0.39850  0.62250  Biso   1.000  C
  C2       1.0000 0.26070  0.60150  0.37750  Biso   1.000  C
  C3       1.0000 0.87730  0.49240  0.62000  Biso   1.000  C
  C4       1.0000 0.12270  0.50760  0.38000  Biso   1.000  C
  C5       1.0000 0.94950  0.46700  0.58070  Biso   1.000  C
  C6       1.0000 0.05050  0.53300  0.41930  Biso   1.000  C
  H1       1.0000 0.91060  0.39490  0.55510  Biso   1.000  H
  H2       1.0000 0.08940  0.60510  0.44490  Biso   1.000  H
  C7       1.0000 0.07900  0.54900  0.57970  Biso   1.000  C
  C8       1.0000 0.92100  0.45100  0.42030  Biso   1.000  C
  H3       1.0000 0.12390  0.53380  0.55110  Biso   1.000  H
  H4       1.0000 0.87610  0.46620  0.44890  Biso   1.000  H
  C9       1.0000 0.14200  0.64800  0.61820  Biso   1.000  C
  C10      1.0000 0.85800  0.35200  0.38180  Biso   1.000  C
  H5       1.0000 0.23300  0.69860  0.61870  Biso   1.000  H
  H6       1.0000 0.76700  0.30140  0.38130  Biso   1.000  H
  C11      1.0000 0.07200  0.67970  0.65890  Biso   1.000  C
  C12      1.0000 0.92800  0.32030  0.34110  Biso   1.000  C
  C13      1.0000 0.93730  0.59820  0.65870  Biso   1.000  C
  C14      1.0000 0.06270  0.40180  0.34130  Biso   1.000  C
  H7       1.0000 0.88850  0.61590  0.68480  Biso   1.000  H
  H8       1.0000 0.11150  0.38410  0.31520  Biso   1.000  H
  C15      1.0000 0.13700  0.79400  0.70190  Biso   1.000  C
  C16      1.0000 0.86300  0.20600  0.29810  Biso   1.000  C
  C17      1.0000 0.47960  0.13630  0.42240  Biso   1.000  C
  C18      1.0000 0.52040  0.86370  0.57760  Biso   1.000  C
  C19      1.0000 0.49620  0.25680  0.40940  Biso   1.000  C
  C20      1.0000 0.50380  0.74320  0.59060  Biso   1.000  C
  C21      1.0000 0.56580  0.35330  0.45570  Biso   1.000  C
  C22      1.0000 0.43420  0.64670  0.54430  Biso   1.000  C
  H9       1.0000 0.59470  0.34250  0.49380  Biso   1.000  H
  H10      1.0000 0.40530  0.65750  0.50620  Biso   1.000  H
  C23      1.0000 0.59110  0.46450  0.44440  Biso   1.000  C
  C24      1.0000 0.40890  0.53550  0.55560  Biso   1.000  C
  H11      1.0000 0.64260  0.52990  0.47420  Biso   1.000  H
  H12      1.0000 0.35740  0.47010  0.52580  Biso   1.000  H
  C25      1.0000 0.53860  0.47700  0.38820  Biso   1.000  C
  C26      1.0000 0.46140  0.52300  0.61180  Biso   1.000  C
  H13      1.0000 0.55230  0.55190  0.38100  Biso   1.000  H
  H14      1.0000 0.44770  0.44810  0.61900  Biso   1.000  H
  C27      1.0000 0.46630  0.38200  0.34210  Biso   1.000  C
  C28      1.0000 0.53370  0.61800  0.65790  Biso   1.000  C
  C29      1.0000 0.44730  0.27190  0.35360  Biso   1.000  C
  C30      1.0000 0.55270  0.72810  0.64640  Biso   1.000  C
  H15      1.0000 0.40060  0.20700  0.32320  Biso   1.000  H
  H16      1.0000 0.59940  0.79300  0.67680  Biso   1.000  H
  C31      1.0000 0.41110  0.39950  0.28160  Biso   1.000  C
  C32      1.0000 0.58890  0.60050  0.71840  Biso   1.000  C
  C33      1.0000 0.28840  0.21240  0.60970  Biso   1.000  C
  C34      1.0000 0.71160  0.78760  0.39030  Biso   1.000  C
  C35      1.0000 0.18090  0.18740  0.55460  Biso   1.000  C
  C36      1.0000 0.81910  0.81260  0.44540  Biso   1.000  C
  C37      1.0000 0.21420  0.19490  0.50010  Biso   1.000  C
  C38      1.0000 0.78580  0.80510  0.49990  Biso   1.000  C
  H17      1.0000 0.30770  0.21830  0.49800  Biso   1.000  H
  H18      1.0000 0.69230  0.78170  0.50200  Biso   1.000  H
  C39      1.0000 0.11170  0.16860  0.45020  Biso   1.000  C
  C40      1.0000 0.88830  0.83140  0.54980  Biso   1.000  C
  H19      1.0000 0.13690  0.17700  0.41450  Biso   1.000  H
  H20      1.0000 0.86310  0.82300  0.58550  Biso   1.000  H
  C41      1.0000 0.96970  0.12930  0.45040  Biso   1.000  C
  C42      1.0000 0.03030  0.87070  0.54960  Biso   1.000  C
  H21      1.0000 0.90040  0.10830  0.41550  Biso   1.000  H
  H22      1.0000 0.09960  0.89170  0.58450  Biso   1.000  H
  C43      1.0000 0.93380  0.12230  0.50560  Biso   1.000  C
  C44      1.0000 0.06620  0.87770  0.49440  Biso   1.000  C
  C45      1.0000 0.04290  0.15630  0.55660  Biso   1.000  C
  C46      1.0000 0.95710  0.84370  0.44340  Biso   1.000  C
  H23      1.0000 0.02100  0.15790  0.59310  Biso   1.000  H
  H24      1.0000 0.97900  0.84210  0.40690  Biso   1.000  H
  C47      1.0000 0.78440  0.07920  0.50750  Biso   1.000  C
  C48      1.0000 0.21560  0.92080  0.49250  Biso   1.000  C
  C49      1.0000 0.84050  0.46920  0.79960  Biso   1.000  C
  C50      1.0000 0.15950  0.53080  0.20040  Biso   1.000  C
  C51      1.0000 0.97210  0.46960  0.78460  Biso   1.000  C
  C52      1.0000 0.02790  0.53040  0.21540  Biso   1.000  C
  C53      1.0000 0.96870  0.38860  0.73930  Biso   1.000  C
  C54      1.0000 0.03130  0.61140  0.26070  Biso   1.000  C
  H25      1.0000 0.88290  0.32830  0.71960  Biso   1.000  H
  H26      1.0000 0.11710  0.67170  0.28040  Biso   1.000  H
  C55      1.0000 0.09040  0.39490  0.72240  Biso   1.000  C
  C56      1.0000 0.90960  0.60510  0.27760  Biso   1.000  C
  H27      1.0000 0.08610  0.34050  0.69120  Biso   1.000  H
  H28      1.0000 0.91390  0.65950  0.30880  Biso   1.000  H
  C57      1.0000 0.21860  0.48380  0.75280  Biso   1.000  C
  C58      1.0000 0.78140  0.51620  0.24720  Biso   1.000  C
  H29      1.0000 0.30060  0.48850  0.74180  Biso   1.000  H
  H30      1.0000 0.69940  0.51150  0.25820  Biso   1.000  H
  C59      1.0000 0.22630  0.56550  0.79920  Biso   1.000  C
  C60      1.0000 0.77370  0.43450  0.20080  Biso   1.000  C
  C61      1.0000 0.09980  0.55710  0.81430  Biso   1.000  C
  C62      1.0000 0.90020  0.44290  0.18570  Biso   1.000  C
  H31      1.0000 0.10290  0.61200  0.84490  Biso   1.000  H
  H32      1.0000 0.89710  0.38800  0.15510  Biso   1.000  H
  C63      1.0000 0.36500  0.65080  0.83550  Biso   1.000  C
  C64      1.0000 0.63500  0.34920  0.16450  Biso   1.000  C
  C65      1.0000 0.41940  0.35080  0.83600  Biso   1.000  C
  C66      1.0000 0.58060  0.64920  0.16400  Biso   1.000  C
  C67      1.0000 0.30770  0.31600  0.87050  Biso   1.000  C
  C68      1.0000 0.69230  0.68400  0.12950  Biso   1.000  C
  C69      1.0000 0.16630  0.25830  0.84020  Biso   1.000  C
  C70      1.0000 0.83370  0.74170  0.15980  Biso   1.000  C
  H33      1.0000 0.14310  0.23500  0.79940  Biso   1.000  H
  H34      1.0000 0.85690  0.76500  0.20060  Biso   1.000  H
  C71      1.0000 0.05910  0.23490  0.87010  Biso   1.000  C
  C72      1.0000 0.94090  0.76510  0.12990  Biso   1.000  C
  H35      1.0000 0.96470  0.20040  0.84950  Biso   1.000  H
  H36      1.0000 0.03530  0.79960  0.15050  Biso   1.000  H
  C73      1.0000 0.09630  0.26400  0.93050  Biso   1.000  C
  C74      1.0000 0.90370  0.73600  0.06950  Biso   1.000  C
  H37      1.0000 0.02600  0.24790  0.95110  Biso   1.000  H
  H38      1.0000 0.97400  0.75210  0.04890  Biso   1.000  H
  C75      1.0000 0.23640  0.31680  0.96160  Biso   1.000  C
  C76      1.0000 0.76360  0.68320  0.03840  Biso   1.000  C
  C77      1.0000 0.34100  0.34180  0.93070  Biso   1.000  C
  C78      1.0000 0.65900  0.65820  0.06930  Biso   1.000  C
  H39      1.0000 0.43520  0.37680  0.95140  Biso   1.000  H
  H40      1.0000 0.56480  0.62320  0.04860  Biso   1.000  H
  C79      1.0000 0.27310  0.33800  0.02790  Biso   1.000  C
  C80      1.0000 0.72690  0.66200  0.97210  Biso   1.000  C
  C81      1.0000 0.72340  0.88470  0.86030  Biso   1.000  C
  C82      1.0000 0.27660  0.11530  0.13970  Biso   1.000  C
  C83      1.0000 0.75640  0.94760  0.81070  Biso   1.000  C
  C84      1.0000 0.24360  0.05240  0.18930  Biso   1.000  C
  C85      1.0000 0.86560  0.94500  0.78520  Biso   1.000  C
  C86      1.0000 0.13440  0.05500  0.21480  Biso   1.000  C
  H41      1.0000 0.92030  0.90540  0.79990  Biso   1.000  H
  H42      1.0000 0.07970  0.09460  0.20010  Biso   1.000  H
  C87      1.0000 0.89200  0.00060  0.73860  Biso   1.000  C
  C88      1.0000 0.10800  0.99940  0.26140  Biso   1.000  C
  H43      1.0000 0.96250  0.99740  0.72070  Biso   1.000  H
  H44      1.0000 0.03750  0.00260  0.27930  Biso   1.000  H
  C89      1.0000 0.81040  0.06220  0.71860  Biso   1.000  C
  C90      1.0000 0.18960  0.93780  0.28140  Biso   1.000  C
  H45      1.0000 0.83160  0.10390  0.68860  Biso   1.000  H
  H46      1.0000 0.16840  0.89610  0.31140  Biso   1.000  H
  C91      1.0000 0.70000  0.06350  0.74170  Biso   1.000  C
  C92      1.0000 0.30000  0.93650  0.25830  Biso   1.000  C
  C93      1.0000 0.67860  0.00840  0.78980  Biso   1.000  C
  C94      1.0000 0.32140  0.99160  0.21020  Biso   1.000  C
  H47      1.0000 0.60950  0.01300  0.80820  Biso   1.000  H
  H48      1.0000 0.39050  0.98700  0.19180  Biso   1.000  H
  C95      1.0000 0.61140  0.12450  0.72050  Biso   1.000  C
  C96      1.0000 0.38860  0.87550  0.27950  Biso   1.000  C
  C97      1.0000 0.79620  0.02480  0.00880  Biso   1.000  C
  C98      1.0000 0.20380  0.97520  0.99120  Biso   1.000  C
  H49      1.0000 0.82940  0.02180  0.97500  Biso   1.000  H
  H50      1.0000 0.17060  0.97820  0.02500  Biso   1.000  H
  C99      1.0000 0.87900  0.11350  0.05450  Biso   1.000  C
  C100     1.0000 0.12100  0.88650  0.94550  Biso   1.000  C
  H51      1.0000 0.96520  0.16960  0.05240  Biso   1.000  H
  H52      1.0000 0.03480  0.83040  0.94760  Biso   1.000  H
  C101     1.0000 0.82900  0.11500  0.10390  Biso   1.000  C
  C102     1.0000 0.17100  0.88500  0.89610  Biso   1.000  C
  H53      1.0000 0.87960  0.17620  0.13600  Biso   1.000  H
  H54      1.0000 0.12040  0.82380  0.86400  Biso   1.000  H
  C103     1.0000 0.70500  0.02920  0.10740  Biso   1.000  C
  C104     1.0000 0.29500  0.97080  0.89260  Biso   1.000  C
  H55      1.0000 0.67410  0.02870  0.14190  Biso   1.000  H
  H56      1.0000 0.32590  0.97130  0.85810  Biso   1.000  H
  C105     1.0000 0.62800  0.94370  0.05800  Biso   1.000  C
  C106     1.0000 0.37200  0.05630  0.94200  Biso   1.000  C
  C107     1.0000 0.49210  0.84720  0.05470  Biso   1.000  C
  C108     1.0000 0.50790  0.15280  0.94530  Biso   1.000  C
  C109     1.0000 0.43500  0.82670  0.10220  Biso   1.000  C
  C110     1.0000 0.56500  0.17330  0.89780  Biso   1.000  C
  H57      1.0000 0.47850  0.87680  0.13860  Biso   1.000  H
  H58      1.0000 0.52150  0.12320  0.86140  Biso   1.000  H
  C111     1.0000 0.31500  0.73300  0.09510  Biso   1.000  C
  C112     1.0000 0.68500  0.26700  0.90490  Biso   1.000  C
  H59      1.0000 0.27690  0.71690  0.12750  Biso   1.000  H
  H60      1.0000 0.72310  0.28310  0.87250  Biso   1.000  H
  C113     1.0000 0.24400  0.65880  0.04050  Biso   1.000  C
  C114     1.0000 0.75600  0.34120  0.95950  Biso   1.000  C
  H61      1.0000 0.15800  0.59540  0.03520  Biso   1.000  H
  H62      1.0000 0.84200  0.40460  0.96480  Biso   1.000  H
  C115     1.0000 0.31100  0.68630  0.99360  Biso   1.000  C
  C116     1.0000 0.68900  0.31370  0.00640  Biso   1.000  C
  H63      1.0000 0.26970  0.63730  0.95680  Biso   1.000  H
  H64      1.0000 0.73030  0.36270  0.04320  Biso   1.000  H
  N1       1.0000 0.67250  0.94210  0.00760  Biso   1.000  N
  N2       1.0000 0.32750  0.05790  0.99240  Biso   1.000  N
  N3       1.0000 0.42820  0.77780  0.00040  Biso   1.000  N
  N4       1.0000 0.57180  0.22220  0.99960  Biso   1.000  N
  O1       1.0000 0.68230  0.42080  0.66280  Biso   1.000  O
  O2       1.0000 0.31770  0.57920  0.33720  Biso   1.000  O
  O3       1.0000 0.68790  0.30530  0.58540  Biso   1.000  O
  O4       1.0000 0.31210  0.69470  0.41460  Biso   1.000  O
  O5       1.0000 0.25300  0.86070  0.69500  Biso   1.000  O
  O6       1.0000 0.74700  0.13930  0.30500  Biso   1.000  O
  H65      1.0000 0.27690  0.92610  0.71460  Biso   1.000  H
  H66      1.0000 0.72310  0.07390  0.28540  Biso   1.000  H
  O7       1.0000 0.07700  0.81800  0.73630  Biso   1.000  O
  O8       1.0000 0.92300  0.18200  0.26370  Biso   1.000  O
  O9       1.0000 0.49880  0.12360  0.47600  Biso   1.000  O
  O10      1.0000 0.50120  0.87640  0.52400  Biso   1.000  O
  O11      1.0000 0.45750  0.05670  0.38180  Biso   1.000  O
  O12      1.0000 0.54250  0.94330  0.61820  Biso   1.000  O
  O13      1.0000 0.31690  0.31470  0.24600  Biso   1.000  O
  O14      1.0000 0.68310  0.68530  0.75400  Biso   1.000  O
  O15      1.0000 0.46300  0.50140  0.26700  Biso   1.000  O
  O16      1.0000 0.53700  0.49860  0.73300  Biso   1.000  O
  O17      1.0000 0.27070  0.24010  0.65910  Biso   1.000  O
  O18      1.0000 0.72930  0.75990  0.34090  Biso   1.000  O
  O19      1.0000 0.41150  0.21470  0.60630  Biso   1.000  O
  O20      1.0000 0.58850  0.78530  0.39370  Biso   1.000  O
  O21      1.0000 0.75070  0.10230  0.55400  Biso   1.000  O
  O22      1.0000 0.24930  0.89770  0.44600  Biso   1.000  O
  O23      1.0000 0.69280  0.01950  0.45890  Biso   1.000  O
  O24      1.0000 0.30720  0.98050  0.54110  Biso   1.000  O
  O25      1.0000 0.84850  0.56210  0.82890  Biso   1.000  O
  O26      1.0000 0.15150  0.43790  0.17110  Biso   1.000  O
  O27      1.0000 0.73280  0.37570  0.78220  Biso   1.000  O
  O28      1.0000 0.26720  0.62430  0.21780  Biso   1.000  O
  O29      1.0000 0.47440  0.65150  0.82040  Biso   1.000  O
  O30      1.0000 0.52560  0.34850  0.17960  Biso   1.000  O
  O31      1.0000 0.36760  0.72110  0.87870  Biso   1.000  O
  O32      1.0000 0.63240  0.27890  0.12130  Biso   1.000  O
  O33      1.0000 0.53150  0.43550  0.86050  Biso   1.000  O
  O34      1.0000 0.46850  0.56450  0.13950  Biso   1.000  O
  O35      1.0000 0.39430  0.29040  0.78600  Biso   1.000  O
  O36      1.0000 0.60570  0.70960  0.21400  Biso   1.000  O
  O37      1.0000 0.18870  0.36080  0.05460  Biso   1.000  O
  O38      1.0000 0.81130  0.63920  0.94540  Biso   1.000  O
  O39      1.0000 0.38730  0.33560  0.05640  Biso   1.000  O
  O40      1.0000 0.61270  0.66440  0.94360  Biso   1.000  O
  O41      1.0000 0.63510  0.90380  0.88440  Biso   1.000  O
  O42      1.0000 0.36490  0.09620  0.11560  Biso   1.000  O
  O43      1.0000 0.78380  0.81810  0.87480  Biso   1.000  O
  O44      1.0000 0.21620  0.18190  0.12520  Biso   1.000  O
  O45      1.0000 0.51750  0.13070  0.74500  Biso   1.000  O
  O46      1.0000 0.48250  0.86930  0.25500  Biso   1.000  O
  O47      1.0000 0.63150  0.17650  0.67710  Biso   1.000  O
  O48      1.0000 0.36850  0.82350  0.32290  Biso   1.000  O
  O49      1.0000 0.25100  0.04800  0.77010  Biso   1.000  O
  O50      1.0000 0.74900  0.95200  0.22990  Biso   1.000  O
