data_image0
_cell_length_a       10.8313
_cell_length_b       6.656
_cell_length_c       14.322
_cell_angle_alpha    90
_cell_angle_beta     96.282
_cell_angle_gamma    90

_symmetry_space_group_name_H-M    "P 1"
_symmetry_int_tables_number       1

loop_
  _symmetry_equiv_pos_as_xyz
  'x, y, z'

loop_
  _atom_site_label
  _atom_site_occupancy
  _atom_site_fract_x
  _atom_site_fract_y
  _atom_site_fract_z
  _atom_site_thermal_displace_type
  _atom_site_B_iso_or_equiv
  _atom_site_type_symbol
  Cu1      1.0000 0.15460  0.66693  0.25798  Biso   1.000  Cu
  Cu2      1.0000 0.15460  0.83307  0.75798  Biso   1.000  Cu
  Cu3      1.0000 0.84540  0.33307  0.74202  Biso   1.000  Cu
  Cu4      1.0000 0.84540  0.16693  0.24202  Biso   1.000  Cu
  Cl1      1.0000 0.02412  0.41378  0.20135  Biso   1.000  Cl
  Cl2      1.0000 0.02412  0.08622  0.70135  Biso   1.000  Cl
  Cl3      1.0000 0.97588  0.58622  0.79865  Biso   1.000  Cl
  Cl4      1.0000 0.97588  0.91378  0.29865  Biso   1.000  Cl
  Cl5      1.0000 0.20301  0.72896  0.11075  Biso   1.000  Cl
  Cl6      1.0000 0.20301  0.77104  0.61075  Biso   1.000  Cl
  Cl7      1.0000 0.79699  0.27104  0.88925  Biso   1.000  Cl
  Cl8      1.0000 0.79699  0.22896  0.38925  Biso   1.000  Cl
  N1       1.0000 0.39685  0.66220  0.40802  Biso   1.000  N
  N2       1.0000 0.39685  0.83780  0.90802  Biso   1.000  N
  N3       1.0000 0.60315  0.33780  0.59198  Biso   1.000  N
  N4       1.0000 0.60315  0.16220  0.09198  Biso   1.000  N
  N5       1.0000 0.19119  0.53550  0.38626  Biso   1.000  N
  N6       1.0000 0.19119  0.96450  0.88626  Biso   1.000  N
  N7       1.0000 0.80881  0.46450  0.61374  Biso   1.000  N
  N8       1.0000 0.80881  0.03550  0.11374  Biso   1.000  N
  N9       1.0000 0.34900  0.39200  0.49543  Biso   1.000  N
  N10      1.0000 0.34900  0.10800  0.99543  Biso   1.000  N
  N11      1.0000 0.65100  0.60800  0.50457  Biso   1.000  N
  N12      1.0000 0.65100  0.89200  0.00457  Biso   1.000  N
  N13      1.0000 0.27648  0.88130  0.30583  Biso   1.000  N
  N14      1.0000 0.27648  0.61870  0.80583  Biso   1.000  N
  N15      1.0000 0.72352  0.11870  0.69417  Biso   1.000  N
  N16      1.0000 0.72352  0.38130  0.19417  Biso   1.000  N
  N17      1.0000 0.48002  0.96600  0.37553  Biso   1.000  N
  N18      1.0000 0.48002  0.53400  0.87553  Biso   1.000  N
  N19      1.0000 0.51998  0.03400  0.62447  Biso   1.000  N
  N20      1.0000 0.51998  0.46600  0.12447  Biso   1.000  N
  C1       1.0000 0.30741  0.52840  0.43041  Biso   1.000  C
  C2       1.0000 0.30741  0.97160  0.93041  Biso   1.000  C
  C3       1.0000 0.69259  0.47160  0.56959  Biso   1.000  C
  C4       1.0000 0.69259  0.02840  0.06959  Biso   1.000  C
  C5       1.0000 0.26562  0.26160  0.52222  Biso   1.000  C
  C6       1.0000 0.26562  0.23840  0.02222  Biso   1.000  C
  C7       1.0000 0.73438  0.73840  0.47778  Biso   1.000  C
  C8       1.0000 0.73438  0.76160  0.97778  Biso   1.000  C
  C9       1.0000 0.14084  0.27070  0.48801  Biso   1.000  C
  C10      1.0000 0.14084  0.22930  0.98801  Biso   1.000  C
  C11      1.0000 0.85916  0.72930  0.51199  Biso   1.000  C
  C12      1.0000 0.85916  0.77070  0.01199  Biso   1.000  C
  C13      1.0000 0.10764  0.40990  0.41887  Biso   1.000  C
  C14      1.0000 0.10764  0.09010  0.91887  Biso   1.000  C
  C15      1.0000 0.89236  0.59010  0.58113  Biso   1.000  C
  C16      1.0000 0.89236  0.90990  0.08113  Biso   1.000  C
  C17      1.0000 0.38155  0.84280  0.36168  Biso   1.000  C
  C18      1.0000 0.38155  0.65720  0.86168  Biso   1.000  C
  C19      1.0000 0.61845  0.15720  0.63832  Biso   1.000  C
  C20      1.0000 0.61845  0.34280  0.13832  Biso   1.000  C
  C21      1.0000 0.46904  0.14350  0.33255  Biso   1.000  C
  C22      1.0000 0.46904  0.35650  0.83255  Biso   1.000  C
  C23      1.0000 0.53096  0.85650  0.66745  Biso   1.000  C
  C24      1.0000 0.53096  0.64350  0.16745  Biso   1.000  C
  C25      1.0000 0.36133  0.20210  0.27696  Biso   1.000  C
  C26      1.0000 0.36133  0.29790  0.77696  Biso   1.000  C
  C27      1.0000 0.63867  0.79790  0.72304  Biso   1.000  C
  C28      1.0000 0.63867  0.70210  0.22304  Biso   1.000  C
  C29      1.0000 0.26652  0.06420  0.26510  Biso   1.000  C
  C30      1.0000 0.26652  0.43580  0.76510  Biso   1.000  C
  C31      1.0000 0.73348  0.93580  0.73490  Biso   1.000  C
  C32      1.0000 0.73348  0.56420  0.23490  Biso   1.000  C
  H1       1.0000 0.46800  0.64600  0.43880  Biso   1.000  H
  H2       1.0000 0.46800  0.85400  0.93880  Biso   1.000  H
  H3       1.0000 0.53200  0.35400  0.56120  Biso   1.000  H
  H4       1.0000 0.53200  0.14600  0.06120  Biso   1.000  H
  H5       1.0000 0.29280  0.15950  0.56610  Biso   1.000  H
  H6       1.0000 0.29280  0.34050  0.06610  Biso   1.000  H
  H7       1.0000 0.70720  0.84050  0.43390  Biso   1.000  H
  H8       1.0000 0.70720  0.65950  0.93390  Biso   1.000  H
  H9       1.0000 0.08120  0.18480  0.51130  Biso   1.000  H
  H10      1.0000 0.08120  0.31520  0.01130  Biso   1.000  H
  H11      1.0000 0.91880  0.81520  0.48870  Biso   1.000  H
  H12      1.0000 0.91880  0.68480  0.98870  Biso   1.000  H
  H13      1.0000 0.02310  0.41820  0.39320  Biso   1.000  H
  H14      1.0000 0.02310  0.08180  0.89320  Biso   1.000  H
  H15      1.0000 0.97690  0.58180  0.60680  Biso   1.000  H
  H16      1.0000 0.97690  0.91820  0.10680  Biso   1.000  H
  H17      1.0000 0.53730  0.23390  0.34010  Biso   1.000  H
  H18      1.0000 0.53730  0.26610  0.84010  Biso   1.000  H
  H19      1.0000 0.46270  0.76610  0.65990  Biso   1.000  H
  H20      1.0000 0.46270  0.73390  0.15990  Biso   1.000  H
  H21      1.0000 0.35380  0.33120  0.24860  Biso   1.000  H
  H22      1.0000 0.35380  0.16880  0.74860  Biso   1.000  H
  H23      1.0000 0.64620  0.66880  0.75140  Biso   1.000  H
  H24      1.0000 0.64620  0.83120  0.25140  Biso   1.000  H
  H25      1.0000 0.19200  0.09860  0.22720  Biso   1.000  H
  H26      1.0000 0.19200  0.40140  0.72720  Biso   1.000  H
  H27      1.0000 0.80800  0.90140  0.77280  Biso   1.000  H
  H28      1.0000 0.80800  0.59860  0.27280  Biso   1.000  H
