data_image0
_cell_length_a       15.531
_cell_length_b       12.211
_cell_length_c       12.14
_cell_angle_alpha    121.69
_cell_angle_beta     99.3
_cell_angle_gamma    101.73

_symmetry_space_group_name_H-M    "P 1"
_symmetry_int_tables_number       1

loop_
  _symmetry_equiv_pos_as_xyz
  'x, y, z'

loop_
  _atom_site_label
  _atom_site_occupancy
  _atom_site_fract_x
  _atom_site_fract_y
  _atom_site_fract_z
  _atom_site_thermal_displace_type
  _atom_site_B_iso_or_equiv
  _atom_site_type_symbol
  Cu1      1.0000 0.00000  0.00000  0.00000  Biso   1.000  Cu
  Cu2      1.0000 0.50000  0.50000  0.50000  Biso   1.000  Cu
  Si1      1.0000 0.25220  0.22910  0.26070  Biso   1.000  Si
  Si2      1.0000 0.74780  0.77090  0.73930  Biso   1.000  Si
  F1       1.0000 0.14680  0.12330  0.14360  Biso   1.000  F
  F2       1.0000 0.85320  0.87670  0.85640  Biso   1.000  F
  F3       1.0000 0.35720  0.34250  0.37320  Biso   1.000  F
  F4       1.0000 0.64280  0.65750  0.62680  Biso   1.000  F
  F5       1.0000 0.28800  0.23700  0.14000  Biso   1.000  F
  F6       1.0000 0.71200  0.76300  0.86000  Biso   1.000  F
  F7       1.0000 0.28700  0.09800  0.21800  Biso   1.000  F
  F8       1.0000 0.71300  0.90200  0.78200  Biso   1.000  F
  F9       1.0000 0.21900  0.22500  0.37800  Biso   1.000  F
  F10      1.0000 0.78100  0.77500  0.62200  Biso   1.000  F
  F11      1.0000 0.22100  0.36400  0.29800  Biso   1.000  F
  F12      1.0000 0.77900  0.63600  0.70200  Biso   1.000  F
  F13      1.0000 0.24200  0.32500  0.19800  Biso   1.000  F
  F14      1.0000 0.75800  0.67500  0.80200  Biso   1.000  F
  F15      1.0000 0.30300  0.15100  0.15300  Biso   1.000  F
  F16      1.0000 0.69700  0.84900  0.84700  Biso   1.000  F
  F17      1.0000 0.25600  0.13800  0.31600  Biso   1.000  F
  F18      1.0000 0.74400  0.86200  0.68400  Biso   1.000  F
  F19      1.0000 0.19700  0.31200  0.36600  Biso   1.000  F
  F20      1.0000 0.80300  0.68800  0.63400  Biso   1.000  F
  N1       1.0000 0.01790  0.28780  0.21530  Biso   1.000  N
  N2       1.0000 0.98210  0.71220  0.78470  Biso   1.000  N
  N3       1.0000 0.96080  0.16130  0.10860  Biso   1.000  N
  N4       1.0000 0.03920  0.83870  0.89140  Biso   1.000  N
  C1       1.0000 0.87980  0.17470  0.08120  Biso   1.000  C
  C2       1.0000 0.12020  0.82530  0.91880  Biso   1.000  C
  C3       1.0000 0.88550  0.30970  0.17060  Biso   1.000  C
  C4       1.0000 0.11450  0.69030  0.82940  Biso   1.000  C
  C5       1.0000 0.97490  0.38120  0.25730  Biso   1.000  C
  C6       1.0000 0.02510  0.61880  0.74270  Biso   1.000  C
  N5       1.0000 0.88170  0.85280  0.08780  Biso   1.000  N
  N6       1.0000 0.11830  0.14720  0.91220  Biso   1.000  N
  N7       1.0000 0.96870  0.93200  0.11110  Biso   1.000  N
  N8       1.0000 0.03130  0.06800  0.88890  Biso   1.000  N
  C7       1.0000 0.02140  0.94840  0.21890  Biso   1.000  C
  C8       1.0000 0.97860  0.05160  0.78110  Biso   1.000  C
  C9       1.0000 0.97100  0.88160  0.26350  Biso   1.000  C
  C10      1.0000 0.02900  0.11840  0.73650  Biso   1.000  C
  C11      1.0000 0.88120  0.82070  0.17820  Biso   1.000  C
  C12      1.0000 0.11880  0.17930  0.82180  Biso   1.000  C
  N9       1.0000 0.61730  0.41690  0.64400  Biso   1.000  N
  N10      1.0000 0.38270  0.58310  0.35600  Biso   1.000  N
  N11      1.0000 0.53040  0.39930  0.57890  Biso   1.000  N
  N12      1.0000 0.46960  0.60070  0.42110  Biso   1.000  N
  C13      1.0000 0.47590  0.29210  0.56770  Biso   1.000  C
  C14      1.0000 0.52410  0.70790  0.43230  Biso   1.000  C
  C15      1.0000 0.52590  0.24280  0.62490  Biso   1.000  C
  C16      1.0000 0.47410  0.75720  0.37510  Biso   1.000  C
  C17      1.0000 0.61730  0.32530  0.67380  Biso   1.000  C
  C18      1.0000 0.38270  0.67470  0.32620  Biso   1.000  C
  N13      1.0000 0.49300  0.29920  0.21360  Biso   1.000  N
  N14      1.0000 0.50700  0.70080  0.78640  Biso   1.000  N
  N15      1.0000 0.54720  0.39010  0.34620  Biso   1.000  N
  N16      1.0000 0.45280  0.60990  0.65380  Biso   1.000  N
  C19      1.0000 0.63150  0.39250  0.34270  Biso   1.000  C
  C20      1.0000 0.36850  0.60750  0.65730  Biso   1.000  C
  C21      1.0000 0.63270  0.30390  0.21330  Biso   1.000  C
  C22      1.0000 0.36730  0.69610  0.78670  Biso   1.000  C
  C23      1.0000 0.54190  0.24300  0.12900  Biso   1.000  C
  C24      1.0000 0.45810  0.75700  0.87100  Biso   1.000  C
  C25      1.0000 0.02060  0.52640  0.37190  Biso   1.000  C
  C26      1.0000 0.97940  0.47360  0.62810  Biso   1.000  C
  C27      1.0000 0.97040  0.61210  0.40790  Biso   1.000  C
  C28      1.0000 0.02960  0.38790  0.59210  Biso   1.000  C
  C29      1.0000 0.00980  0.74790  0.51400  Biso   1.000  C
  C30      1.0000 0.99020  0.25210  0.48600  Biso   1.000  C
  C31      1.0000 0.10140  0.79680  0.58490  Biso   1.000  C
  C32      1.0000 0.89860  0.20320  0.41510  Biso   1.000  C
  C33      1.0000 0.15300  0.71410  0.55470  Biso   1.000  C
  C34      1.0000 0.84700  0.28590  0.44530  Biso   1.000  C
  C35      1.0000 0.11260  0.57790  0.44630  Biso   1.000  C
  C36      1.0000 0.88740  0.42210  0.55370  Biso   1.000  C
  C37      1.0000 0.79730  0.73790  0.17590  Biso   1.000  C
  C38      1.0000 0.20270  0.26210  0.82410  Biso   1.000  C
  C39      1.0000 0.79410  0.74750  0.29330  Biso   1.000  C
  C40      1.0000 0.20590  0.25250  0.70670  Biso   1.000  C
  C41      1.0000 0.71680  0.66880  0.29310  Biso   1.000  C
  C42      1.0000 0.28320  0.33120  0.70690  Biso   1.000  C
  C43      1.0000 0.64350  0.58160  0.17950  Biso   1.000  C
  C44      1.0000 0.35650  0.41840  0.82050  Biso   1.000  C
  C45      1.0000 0.64400  0.56930  0.06050  Biso   1.000  C
  C46      1.0000 0.35600  0.43070  0.93950  Biso   1.000  C
  C47      1.0000 0.72100  0.64840  0.06010  Biso   1.000  C
  C48      1.0000 0.27900  0.35160  0.93990  Biso   1.000  C
  C49      1.0000 0.70310  0.32000  0.73900  Biso   1.000  C
  C50      1.0000 0.29690  0.68000  0.26100  Biso   1.000  C
  C51      1.0000 0.69950  0.21090  0.74560  Biso   1.000  C
  C52      1.0000 0.30050  0.78910  0.25440  Biso   1.000  C
  C53      1.0000 0.77660  0.20380  0.80840  Biso   1.000  C
  C54      1.0000 0.22340  0.79620  0.19160  Biso   1.000  C
  C55      1.0000 0.86080  0.30300  0.86080  Biso   1.000  C
  C56      1.0000 0.13920  0.69700  0.13920  Biso   1.000  C
  C57      1.0000 0.86610  0.41040  0.85350  Biso   1.000  C
  C58      1.0000 0.13390  0.58960  0.14650  Biso   1.000  C
  C59      1.0000 0.78830  0.41990  0.79370  Biso   1.000  C
  C60      1.0000 0.21170  0.58010  0.20630  Biso   1.000  C
  C61      1.0000 0.50060  0.14550  0.98120  Biso   1.000  C
  C62      1.0000 0.49940  0.85450  0.01880  Biso   1.000  C
  C63      1.0000 0.54770  0.06700  0.90610  Biso   1.000  C
  C64      1.0000 0.45230  0.93300  0.09390  Biso   1.000  C
  C65      1.0000 0.50980  0.97730  0.76690  Biso   1.000  C
  C66      1.0000 0.49020  0.02270  0.23310  Biso   1.000  C
  C67      1.0000 0.42420  0.96330  0.70030  Biso   1.000  C
  C68      1.0000 0.57580  0.03670  0.29970  Biso   1.000  C
  C69      1.0000 0.37760  0.04230  0.77460  Biso   1.000  C
  C70      1.0000 0.62240  0.95770  0.22540  Biso   1.000  C
  C71      1.0000 0.41530  0.13290  0.91570  Biso   1.000  C
  C72      1.0000 0.58470  0.86710  0.08430  Biso   1.000  C
  H1       1.0000 0.08360  0.30950  0.25710  Biso   1.000  H
  H2       1.0000 0.91640  0.69050  0.74290  Biso   1.000  H
  H3       1.0000 0.82360  0.10110  0.00790  Biso   1.000  H
  H4       1.0000 0.17640  0.89890  0.99210  Biso   1.000  H
  H5       1.0000 0.83510  0.34640  0.17270  Biso   1.000  H
  H6       1.0000 0.16490  0.65360  0.82730  Biso   1.000  H
  H7       1.0000 0.82670  0.82260  0.01360  Biso   1.000  H
  H8       1.0000 0.17330  0.17740  0.98640  Biso   1.000  H
  H9       1.0000 0.08780  0.00030  0.26150  Biso   1.000  H
  H10      1.0000 0.91220  0.99970  0.73850  Biso   1.000  H
  H11      1.0000 0.99510  0.87910  0.34120  Biso   1.000  H
  H12      1.0000 0.00490  0.12090  0.65880  Biso   1.000  H
  H13      1.0000 0.67330  0.48870  0.66790  Biso   1.000  H
  H14      1.0000 0.32670  0.51130  0.33210  Biso   1.000  H
  H15      1.0000 0.40860  0.25300  0.52470  Biso   1.000  H
  H16      1.0000 0.59140  0.74700  0.47530  Biso   1.000  H
  H17      1.0000 0.50140  0.16560  0.62940  Biso   1.000  H
  H18      1.0000 0.49860  0.83440  0.37060  Biso   1.000  H
  H19      1.0000 0.42600  0.27690  0.18270  Biso   1.000  H
  H20      1.0000 0.57400  0.72310  0.81730  Biso   1.000  H
  H21      1.0000 0.68690  0.44990  0.42330  Biso   1.000  H
  H22      1.0000 0.31310  0.55010  0.57670  Biso   1.000  H
  H23      1.0000 0.68710  0.28810  0.18600  Biso   1.000  H
  H24      1.0000 0.31290  0.71190  0.81400  Biso   1.000  H
  H25      1.0000 0.90440  0.57580  0.35720  Biso   1.000  H
  H26      1.0000 0.09560  0.42420  0.64280  Biso   1.000  H
  H27      1.0000 0.97330  0.80850  0.53720  Biso   1.000  H
  H28      1.0000 0.02670  0.19150  0.46280  Biso   1.000  H
  H29      1.0000 0.13010  0.89360  0.66030  Biso   1.000  H
  H30      1.0000 0.86990  0.10640  0.33970  Biso   1.000  H
  H31      1.0000 0.21820  0.75130  0.60900  Biso   1.000  H
  H32      1.0000 0.78180  0.24870  0.39100  Biso   1.000  H
  H33      1.0000 0.15000  0.51860  0.42190  Biso   1.000  H
  H34      1.0000 0.85000  0.48140  0.57810  Biso   1.000  H
  H35      1.0000 0.84650  0.81090  0.37760  Biso   1.000  H
  H36      1.0000 0.15350  0.18910  0.62240  Biso   1.000  H
  H37      1.0000 0.71550  0.67600  0.37670  Biso   1.000  H
  H38      1.0000 0.28450  0.32400  0.62330  Biso   1.000  H
  H39      1.0000 0.58940  0.52560  0.18040  Biso   1.000  H
  H40      1.0000 0.41060  0.47440  0.81960  Biso   1.000  H
  H41      1.0000 0.59040  0.50720  0.97770  Biso   1.000  H
  H42      1.0000 0.40960  0.49280  0.02230  Biso   1.000  H
  H43      1.0000 0.72220  0.63830  0.97520  Biso   1.000  H
  H44      1.0000 0.27780  0.36170  0.02480  Biso   1.000  H
  H45      1.0000 0.64040  0.13630  0.70290  Biso   1.000  H
  H46      1.0000 0.35960  0.86370  0.29710  Biso   1.000  H
  H47      1.0000 0.77250  0.12830  0.81740  Biso   1.000  H
  H48      1.0000 0.22750  0.87170  0.18260  Biso   1.000  H
  H49      1.0000 0.91670  0.29630  0.90270  Biso   1.000  H
  H50      1.0000 0.08330  0.70370  0.09730  Biso   1.000  H
  H51      1.0000 0.92630  0.48160  0.89210  Biso   1.000  H
  H52      1.0000 0.07370  0.51840  0.10790  Biso   1.000  H
  H53      1.0000 0.79370  0.49820  0.78900  Biso   1.000  H
  H54      1.0000 0.20630  0.50180  0.21100  Biso   1.000  H
  H55      1.0000 0.60860  0.07390  0.95080  Biso   1.000  H
  H56      1.0000 0.39140  0.92610  0.04920  Biso   1.000  H
  H57      1.0000 0.54380  0.92200  0.71350  Biso   1.000  H
  H58      1.0000 0.45620  0.07800  0.28650  Biso   1.000  H
  H59      1.0000 0.39730  0.89860  0.60120  Biso   1.000  H
  H60      1.0000 0.60270  0.10140  0.39880  Biso   1.000  H
  H61      1.0000 0.31670  0.03450  0.72870  Biso   1.000  H
  H62      1.0000 0.68330  0.96550  0.27130  Biso   1.000  H
  H63      1.0000 0.38090  0.18820  0.96810  Biso   1.000  H
  H64      1.0000 0.61910  0.81180  0.03190  Biso   1.000  H
