data_image0
_cell_length_a       8.5094
_cell_length_b       9.3206
_cell_length_c       10.392
_cell_angle_alpha    92.274
_cell_angle_beta     93.803
_cell_angle_gamma    112.85

_symmetry_space_group_name_H-M    "P 1"
_symmetry_int_tables_number       1

loop_
  _symmetry_equiv_pos_as_xyz
  'x, y, z'

loop_
  _atom_site_label
  _atom_site_occupancy
  _atom_site_fract_x
  _atom_site_fract_y
  _atom_site_fract_z
  _atom_site_thermal_displace_type
  _atom_site_B_iso_or_equiv
  _atom_site_type_symbol
  Cu1      1.0000 0.26905  0.28202  0.19226  Biso   1.000  Cu
  Cu2      1.0000 0.73095  0.71798  0.80774  Biso   1.000  Cu
  Cu3      1.0000 0.00000  0.00000  0.00000  Biso   1.000  Cu
  C1       1.0000 0.31250  0.99450  0.11470  Biso   1.000  C
  C2       1.0000 0.68750  0.00550  0.88530  Biso   1.000  C
  C3       1.0000 0.46680  0.05960  0.21570  Biso   1.000  C
  C4       1.0000 0.53320  0.94040  0.78430  Biso   1.000  C
  H1       1.0000 0.47820  0.97170  0.26020  Biso   1.000  H
  H2       1.0000 0.52180  0.02830  0.73980  Biso   1.000  H
  H3       1.0000 0.57160  0.11010  0.17090  Biso   1.000  H
  H4       1.0000 0.42840  0.88990  0.82910  Biso   1.000  H
  C5       1.0000 0.63110  0.40750  0.20570  Biso   1.000  C
  C6       1.0000 0.36890  0.59250  0.79430  Biso   1.000  C
  C7       1.0000 0.60710  0.31700  0.32710  Biso   1.000  C
  C8       1.0000 0.39290  0.68300  0.67290  Biso   1.000  C
  H5       1.0000 0.70930  0.29320  0.34770  Biso   1.000  H
  H6       1.0000 0.29070  0.70680  0.65230  Biso   1.000  H
  H7       1.0000 0.59760  0.38310  0.40070  Biso   1.000  H
  H8       1.0000 0.40240  0.61690  0.59930  Biso   1.000  H
  C9       1.0000 0.36520  0.11200  0.42010  Biso   1.000  C
  C10      1.0000 0.63480  0.88800  0.57990  Biso   1.000  C
  C11      1.0000 0.24520  0.95760  0.41350  Biso   1.000  C
  C12      1.0000 0.75480  0.04240  0.58650  Biso   1.000  C
  H9       1.0000 0.23140  0.89060  0.33860  Biso   1.000  H
  H10      1.0000 0.76860  0.10940  0.66140  Biso   1.000  H
  C13      1.0000 0.14680  0.90220  0.51490  Biso   1.000  C
  C14      1.0000 0.85320  0.09780  0.48510  Biso   1.000  C
  H11      1.0000 0.06400  0.79790  0.50800  Biso   1.000  H
  H12      1.0000 0.93600  0.20210  0.49200  Biso   1.000  H
  C15      1.0000 0.16670  0.99570  0.62660  Biso   1.000  C
  C16      1.0000 0.83330  0.00430  0.37340  Biso   1.000  C
  C17      1.0000 0.28460  0.14810  0.63310  Biso   1.000  C
  C18      1.0000 0.71540  0.85190  0.36690  Biso   1.000  C
  H13      1.0000 0.29880  0.21410  0.70880  Biso   1.000  H
  H14      1.0000 0.70120  0.78590  0.29120  Biso   1.000  H
  C19      1.0000 0.38160  0.20620  0.53230  Biso   1.000  C
  C20      1.0000 0.61840  0.79380  0.46770  Biso   1.000  C
  H15      1.0000 0.46090  0.31190  0.53900  Biso   1.000  H
  H16      1.0000 0.53910  0.68810  0.46100  Biso   1.000  H
  C21      1.0000 0.06220  0.93680  0.73600  Biso   1.000  C
  C22      1.0000 0.93780  0.06320  0.26400  Biso   1.000  C
  N1       1.0000 0.45600  0.17230  0.31230  Biso   1.000  N
  N2       1.0000 0.54400  0.82770  0.68770  Biso   1.000  N
  O1       1.0000 0.22420  0.07920  0.09910  Biso   1.000  O
  O2       1.0000 0.77580  0.92080  0.90090  Biso   1.000  O
  O3       1.0000 0.27780  0.86920  0.05300  Biso   1.000  O
  O4       1.0000 0.72220  0.13080  0.94700  Biso   1.000  O
  O5       1.0000 0.49760  0.38230  0.12920  Biso   1.000  O
  O6       1.0000 0.50240  0.61770  0.87080  Biso   1.000  O
  O7       1.0000 0.77810  0.50000  0.18800  Biso   1.000  O
  O8       1.0000 0.22190  0.50000  0.81200  Biso   1.000  O
  O9       1.0000 0.31940  0.48220  0.28800  Biso   1.000  O
  O10      1.0000 0.68060  0.51780  0.71200  Biso   1.000  O
  O11      1.0000 0.10070  0.30330  0.01080  Biso   1.000  O
  O12      1.0000 0.89930  0.69670  0.98920  Biso   1.000  O
  O13      1.0000 0.93980  0.80320  0.72020  Biso   1.000  O
  O14      1.0000 0.06020  0.19680  0.27980  Biso   1.000  O
  O15      1.0000 0.10470  0.02380  0.84000  Biso   1.000  O
  O16      1.0000 0.89530  0.97620  0.16000  Biso   1.000  O
  O17      1.0000 0.04060  0.51380  0.36680  Biso   1.000  O
  O18      1.0000 0.95940  0.48620  0.63320  Biso   1.000  O
  O19      1.0000 0.44760  0.68600  0.12160  Biso   1.000  O
  O20      1.0000 0.55240  0.31400  0.87840  Biso   1.000  O
