data_image0
_cell_length_a       20.124
_cell_length_b       7.0312
_cell_length_c       17.2274
_cell_angle_alpha    90
_cell_angle_beta     90
_cell_angle_gamma    90

_symmetry_space_group_name_H-M    "P 1"
_symmetry_int_tables_number       1

loop_
  _symmetry_equiv_pos_as_xyz
  'x, y, z'

loop_
  _atom_site_label
  _atom_site_occupancy
  _atom_site_fract_x
  _atom_site_fract_y
  _atom_site_fract_z
  _atom_site_thermal_displace_type
  _atom_site_B_iso_or_equiv
  _atom_site_type_symbol
  Cu1      1.0000 0.50856  0.84551  0.59479  Biso   1.000  Cu
  Cu2      1.0000 0.99144  0.65449  0.59479  Biso   1.000  Cu
  Cu3      1.0000 0.00856  0.15449  0.90521  Biso   1.000  Cu
  Cu4      1.0000 0.49144  0.34551  0.90521  Biso   1.000  Cu
  Cu5      1.0000 0.49144  0.15449  0.40521  Biso   1.000  Cu
  Cu6      1.0000 0.00856  0.34551  0.40521  Biso   1.000  Cu
  Cu7      1.0000 0.99144  0.84551  0.09478  Biso   1.000  Cu
  Cu8      1.0000 0.50856  0.65449  0.09478  Biso   1.000  Cu
  O1       1.0000 0.42778  0.70450  0.55876  Biso   1.000  O
  O2       1.0000 0.07222  0.79550  0.55876  Biso   1.000  O
  O3       1.0000 0.92778  0.29550  0.94124  Biso   1.000  O
  O4       1.0000 0.57222  0.20450  0.94124  Biso   1.000  O
  O5       1.0000 0.57222  0.29550  0.44124  Biso   1.000  O
  O6       1.0000 0.92778  0.20450  0.44124  Biso   1.000  O
  O7       1.0000 0.07222  0.70450  0.05876  Biso   1.000  O
  O8       1.0000 0.42778  0.79550  0.05876  Biso   1.000  O
  O9       1.0000 0.50707  0.77990  0.48281  Biso   1.000  O
  O10      1.0000 0.99293  0.72010  0.48281  Biso   1.000  O
  O11      1.0000 0.00707  0.22010  0.01719  Biso   1.000  O
  O12      1.0000 0.49293  0.27990  0.01719  Biso   1.000  O
  O13      1.0000 0.49293  0.22010  0.51719  Biso   1.000  O
  O14      1.0000 0.00707  0.27990  0.51719  Biso   1.000  O
  O15      1.0000 0.99293  0.77990  0.98281  Biso   1.000  O
  O16      1.0000 0.50707  0.72010  0.98281  Biso   1.000  O
  O17      1.0000 0.48812  0.63010  0.20139  Biso   1.000  O
  O18      1.0000 0.01188  0.86990  0.20139  Biso   1.000  O
  O19      1.0000 0.98812  0.36990  0.29861  Biso   1.000  O
  O20      1.0000 0.51188  0.13010  0.29861  Biso   1.000  O
  O21      1.0000 0.51188  0.36990  0.79861  Biso   1.000  O
  O22      1.0000 0.98812  0.13010  0.79861  Biso   1.000  O
  O23      1.0000 0.01188  0.63010  0.70139  Biso   1.000  O
  O24      1.0000 0.48812  0.86990  0.70139  Biso   1.000  O
  O25      1.0000 0.40764  0.44270  0.16102  Biso   1.000  O
  O26      1.0000 0.09236  0.05730  0.16102  Biso   1.000  O
  O27      1.0000 0.90764  0.55730  0.33898  Biso   1.000  O
  O28      1.0000 0.59236  0.94270  0.33898  Biso   1.000  O
  O29      1.0000 0.59236  0.55730  0.83898  Biso   1.000  O
  O30      1.0000 0.90764  0.94270  0.83898  Biso   1.000  O
  O31      1.0000 0.09236  0.44270  0.66102  Biso   1.000  O
  O32      1.0000 0.40764  0.05730  0.66102  Biso   1.000  O
  N1       1.0000 0.10176  0.41290  0.39683  Biso   1.000  N
  N2       1.0000 0.39824  0.08710  0.39683  Biso   1.000  N
  N3       1.0000 0.60176  0.58710  0.10317  Biso   1.000  N
  N4       1.0000 0.89824  0.91290  0.10317  Biso   1.000  N
  N5       1.0000 0.89824  0.58710  0.60317  Biso   1.000  N
  N6       1.0000 0.60176  0.91290  0.60317  Biso   1.000  N
  N7       1.0000 0.39824  0.41290  0.89683  Biso   1.000  N
  N8       1.0000 0.10176  0.08710  0.89683  Biso   1.000  N
  C1       1.0000 0.45157  0.70690  0.49152  Biso   1.000  C
  C2       1.0000 0.04843  0.79310  0.49152  Biso   1.000  C
  C3       1.0000 0.95157  0.29310  0.00848  Biso   1.000  C
  C4       1.0000 0.54843  0.20690  0.00848  Biso   1.000  C
  C5       1.0000 0.54843  0.29310  0.50848  Biso   1.000  C
  C6       1.0000 0.95157  0.20690  0.50848  Biso   1.000  C
  C7       1.0000 0.04843  0.70690  0.99152  Biso   1.000  C
  C8       1.0000 0.45157  0.79310  0.99152  Biso   1.000  C
  C9       1.0000 0.43531  0.53550  0.21189  Biso   1.000  C
  C10      1.0000 0.06469  0.96450  0.21189  Biso   1.000  C
  C11      1.0000 0.93531  0.46450  0.28811  Biso   1.000  C
  C12      1.0000 0.56469  0.03550  0.28811  Biso   1.000  C
  C13      1.0000 0.56469  0.46450  0.78811  Biso   1.000  C
  C14      1.0000 0.93531  0.03550  0.78811  Biso   1.000  C
  C15      1.0000 0.06469  0.53550  0.71189  Biso   1.000  C
  C16      1.0000 0.43531  0.96450  0.71189  Biso   1.000  C
  C17      1.0000 0.41301  0.62700  0.42602  Biso   1.000  C
  C18      1.0000 0.08699  0.87300  0.42602  Biso   1.000  C
  C19      1.0000 0.91301  0.37300  0.07398  Biso   1.000  C
  C20      1.0000 0.58699  0.12700  0.07398  Biso   1.000  C
  C21      1.0000 0.58699  0.37300  0.57398  Biso   1.000  C
  C22      1.0000 0.91301  0.12700  0.57398  Biso   1.000  C
  C23      1.0000 0.08699  0.62700  0.92602  Biso   1.000  C
  C24      1.0000 0.41301  0.87300  0.92602  Biso   1.000  C
  C25      1.0000 0.44345  0.61130  0.35367  Biso   1.000  C
  C26      1.0000 0.05655  0.88870  0.35367  Biso   1.000  C
  C27      1.0000 0.94345  0.38870  0.14633  Biso   1.000  C
  C28      1.0000 0.55655  0.11130  0.14633  Biso   1.000  C
  C29      1.0000 0.55655  0.38870  0.64633  Biso   1.000  C
  C30      1.0000 0.94345  0.11130  0.64633  Biso   1.000  C
  C31      1.0000 0.05655  0.61130  0.85367  Biso   1.000  C
  C32      1.0000 0.44345  0.88870  0.85367  Biso   1.000  C
  H1       1.0000 0.48790  0.64400  0.34700  Biso   1.000  H
  H2       1.0000 0.01210  0.85600  0.34700  Biso   1.000  H
  H3       1.0000 0.98790  0.35600  0.15300  Biso   1.000  H
  H4       1.0000 0.51210  0.14400  0.15300  Biso   1.000  H
  H5       1.0000 0.51210  0.35600  0.65300  Biso   1.000  H
  H6       1.0000 0.98790  0.14400  0.65300  Biso   1.000  H
  H7       1.0000 0.01210  0.64400  0.84700  Biso   1.000  H
  H8       1.0000 0.48790  0.85600  0.84700  Biso   1.000  H
  C33      1.0000 0.40589  0.54570  0.29220  Biso   1.000  C
  C34      1.0000 0.09411  0.95430  0.29220  Biso   1.000  C
  C35      1.0000 0.90589  0.45430  0.20780  Biso   1.000  C
  C36      1.0000 0.59411  0.04570  0.20780  Biso   1.000  C
  C37      1.0000 0.59411  0.45430  0.70780  Biso   1.000  C
  C38      1.0000 0.90589  0.04570  0.70780  Biso   1.000  C
  C39      1.0000 0.09411  0.54570  0.79220  Biso   1.000  C
  C40      1.0000 0.40589  0.95430  0.79220  Biso   1.000  C
  C41      1.0000 0.34023  0.50240  0.30228  Biso   1.000  C
  C42      1.0000 0.15977  0.99760  0.30228  Biso   1.000  C
  C43      1.0000 0.84023  0.49760  0.19772  Biso   1.000  C
  C44      1.0000 0.65977  0.00240  0.19772  Biso   1.000  C
  C45      1.0000 0.65977  0.49760  0.69772  Biso   1.000  C
  C46      1.0000 0.84023  0.00240  0.69772  Biso   1.000  C
  C47      1.0000 0.15977  0.50240  0.80228  Biso   1.000  C
  C48      1.0000 0.34023  0.99760  0.80228  Biso   1.000  C
  H9       1.0000 0.31590  0.45770  0.26020  Biso   1.000  H
  H10      1.0000 0.18410  0.04230  0.26020  Biso   1.000  H
  H11      1.0000 0.81590  0.54230  0.23980  Biso   1.000  H
  H12      1.0000 0.68410  0.95770  0.23980  Biso   1.000  H
  H13      1.0000 0.68410  0.54230  0.73980  Biso   1.000  H
  H14      1.0000 0.81590  0.95770  0.73980  Biso   1.000  H
  H15      1.0000 0.18410  0.45770  0.76020  Biso   1.000  H
  H16      1.0000 0.31590  0.04230  0.76020  Biso   1.000  H
  C49      1.0000 0.30879  0.52310  0.37373  Biso   1.000  C
  C50      1.0000 0.19121  0.97690  0.37373  Biso   1.000  C
  C51      1.0000 0.80879  0.47690  0.12627  Biso   1.000  C
  C52      1.0000 0.69121  0.02310  0.12627  Biso   1.000  C
  C53      1.0000 0.69121  0.47690  0.62627  Biso   1.000  C
  C54      1.0000 0.80879  0.02310  0.62627  Biso   1.000  C
  C55      1.0000 0.19121  0.52310  0.87373  Biso   1.000  C
  C56      1.0000 0.30879  0.97690  0.87373  Biso   1.000  C
  C57      1.0000 0.34796  0.58490  0.43535  Biso   1.000  C
  C58      1.0000 0.15204  0.91510  0.43535  Biso   1.000  C
  C59      1.0000 0.84796  0.41510  0.06465  Biso   1.000  C
  C60      1.0000 0.65204  0.08490  0.06465  Biso   1.000  C
  C61      1.0000 0.65204  0.41510  0.56465  Biso   1.000  C
  C62      1.0000 0.84796  0.08490  0.56465  Biso   1.000  C
  C63      1.0000 0.15204  0.58490  0.93535  Biso   1.000  C
  C64      1.0000 0.34796  0.91510  0.93535  Biso   1.000  C
  H17      1.0000 0.32890  0.59750  0.48420  Biso   1.000  H
  H18      1.0000 0.17110  0.90250  0.48420  Biso   1.000  H
  H19      1.0000 0.82890  0.40250  0.01580  Biso   1.000  H
  H20      1.0000 0.67110  0.09750  0.01580  Biso   1.000  H
  H21      1.0000 0.67110  0.40250  0.51580  Biso   1.000  H
  H22      1.0000 0.82890  0.09750  0.51580  Biso   1.000  H
  H23      1.0000 0.17110  0.59750  0.98420  Biso   1.000  H
  H24      1.0000 0.32890  0.90250  0.98420  Biso   1.000  H
  C65      1.0000 0.23753  0.48900  0.38229  Biso   1.000  C
  C66      1.0000 0.26247  0.01100  0.38229  Biso   1.000  C
  C67      1.0000 0.73753  0.51100  0.11771  Biso   1.000  C
  C68      1.0000 0.76247  0.98900  0.11771  Biso   1.000  C
  C69      1.0000 0.76247  0.51100  0.61771  Biso   1.000  C
  C70      1.0000 0.73753  0.98900  0.61771  Biso   1.000  C
  C71      1.0000 0.26247  0.48900  0.88229  Biso   1.000  C
  C72      1.0000 0.23753  0.01100  0.88229  Biso   1.000  C
  C73      1.0000 0.19454  0.49540  0.31957  Biso   1.000  C
  C74      1.0000 0.30546  0.00460  0.31957  Biso   1.000  C
  C75      1.0000 0.69454  0.50460  0.18043  Biso   1.000  C
  C76      1.0000 0.80546  0.99540  0.18043  Biso   1.000  C
  C77      1.0000 0.80546  0.50460  0.68043  Biso   1.000  C
  C78      1.0000 0.69454  0.99540  0.68043  Biso   1.000  C
  C79      1.0000 0.30546  0.49540  0.81957  Biso   1.000  C
  C80      1.0000 0.19454  0.00460  0.81957  Biso   1.000  C
  H25      1.0000 0.21130  0.52450  0.27070  Biso   1.000  H
  H26      1.0000 0.28870  0.97550  0.27070  Biso   1.000  H
  H27      1.0000 0.71130  0.47550  0.22930  Biso   1.000  H
  H28      1.0000 0.78870  0.02450  0.22930  Biso   1.000  H
  H29      1.0000 0.78870  0.47550  0.72930  Biso   1.000  H
  H30      1.0000 0.71130  0.02450  0.72930  Biso   1.000  H
  H31      1.0000 0.28870  0.52450  0.77070  Biso   1.000  H
  H32      1.0000 0.21130  0.97550  0.77070  Biso   1.000  H
  C81      1.0000 0.12903  0.46040  0.32773  Biso   1.000  C
  C82      1.0000 0.37097  0.03960  0.32773  Biso   1.000  C
  C83      1.0000 0.62903  0.53960  0.17227  Biso   1.000  C
  C84      1.0000 0.87097  0.96040  0.17227  Biso   1.000  C
  C85      1.0000 0.87097  0.53960  0.67227  Biso   1.000  C
  C86      1.0000 0.62903  0.96040  0.67227  Biso   1.000  C
  C87      1.0000 0.37097  0.46040  0.82773  Biso   1.000  C
  C88      1.0000 0.12903  0.03960  0.82773  Biso   1.000  C
  H33      1.0000 0.10170  0.46920  0.28440  Biso   1.000  H
  H34      1.0000 0.39830  0.03080  0.28440  Biso   1.000  H
  H35      1.0000 0.60170  0.53080  0.21560  Biso   1.000  H
  H36      1.0000 0.89830  0.96920  0.21560  Biso   1.000  H
  H37      1.0000 0.89830  0.53080  0.71560  Biso   1.000  H
  H38      1.0000 0.60170  0.96920  0.71560  Biso   1.000  H
  H39      1.0000 0.39830  0.46920  0.78440  Biso   1.000  H
  H40      1.0000 0.10170  0.03080  0.78440  Biso   1.000  H
  C89      1.0000 0.14247  0.40760  0.45853  Biso   1.000  C
  C90      1.0000 0.35753  0.09240  0.45853  Biso   1.000  C
  C91      1.0000 0.64247  0.59240  0.04147  Biso   1.000  C
  C92      1.0000 0.85753  0.90760  0.04147  Biso   1.000  C
  C93      1.0000 0.85753  0.59240  0.54147  Biso   1.000  C
  C94      1.0000 0.64247  0.90760  0.54147  Biso   1.000  C
  C95      1.0000 0.35753  0.40760  0.95853  Biso   1.000  C
  C96      1.0000 0.14247  0.09240  0.95853  Biso   1.000  C
  H41      1.0000 0.12480  0.37710  0.50680  Biso   1.000  H
  H42      1.0000 0.37520  0.12290  0.50680  Biso   1.000  H
  H43      1.0000 0.62480  0.62290  0.99320  Biso   1.000  H
  H44      1.0000 0.87520  0.87710  0.99320  Biso   1.000  H
  H45      1.0000 0.87520  0.62290  0.49320  Biso   1.000  H
  H46      1.0000 0.62480  0.87710  0.49320  Biso   1.000  H
  H47      1.0000 0.37520  0.37710  0.00680  Biso   1.000  H
  H48      1.0000 0.12480  0.12290  0.00680  Biso   1.000  H
  C97      1.0000 0.20864  0.44510  0.45313  Biso   1.000  C
  C98      1.0000 0.29136  0.05490  0.45313  Biso   1.000  C
  C99      1.0000 0.70864  0.55490  0.04687  Biso   1.000  C
  C100     1.0000 0.79136  0.94510  0.04687  Biso   1.000  C
  C101     1.0000 0.79136  0.55490  0.54687  Biso   1.000  C
  C102     1.0000 0.70864  0.94510  0.54687  Biso   1.000  C
  C103     1.0000 0.29136  0.44510  0.95313  Biso   1.000  C
  C104     1.0000 0.20864  0.05490  0.95313  Biso   1.000  C
  H49      1.0000 0.23480  0.44130  0.49760  Biso   1.000  H
  H50      1.0000 0.26520  0.05870  0.49760  Biso   1.000  H
  H51      1.0000 0.73480  0.55870  0.00240  Biso   1.000  H
  H52      1.0000 0.76520  0.94130  0.00240  Biso   1.000  H
  H53      1.0000 0.76520  0.55870  0.50240  Biso   1.000  H
  H54      1.0000 0.73480  0.94130  0.50240  Biso   1.000  H
  H55      1.0000 0.26520  0.44130  0.99760  Biso   1.000  H
  H56      1.0000 0.23480  0.05870  0.99760  Biso   1.000  H
  O33      1.0000 0.18870  0.32530  0.12838  Biso   1.000  O
  O34      1.0000 0.31130  0.17470  0.12838  Biso   1.000  O
  O35      1.0000 0.68870  0.67470  0.37162  Biso   1.000  O
  O36      1.0000 0.81130  0.82530  0.37162  Biso   1.000  O
  O37      1.0000 0.81130  0.67470  0.87162  Biso   1.000  O
  O38      1.0000 0.68870  0.82530  0.87162  Biso   1.000  O
  O39      1.0000 0.31130  0.32530  0.62838  Biso   1.000  O
  O40      1.0000 0.18870  0.17470  0.62838  Biso   1.000  O
  H57      1.0000 0.15990  0.24020  0.13840  Biso   1.000  H
  H58      1.0000 0.34010  0.25980  0.13840  Biso   1.000  H
  H59      1.0000 0.65990  0.75980  0.36160  Biso   1.000  H
  H60      1.0000 0.84010  0.74020  0.36160  Biso   1.000  H
  H61      1.0000 0.84010  0.75980  0.86160  Biso   1.000  H
  H62      1.0000 0.65990  0.74020  0.86160  Biso   1.000  H
  H63      1.0000 0.34010  0.24020  0.63840  Biso   1.000  H
  H64      1.0000 0.15990  0.25980  0.63840  Biso   1.000  H
  H65      1.0000 0.22690  0.27410  0.12880  Biso   1.000  H
  H66      1.0000 0.27310  0.22590  0.12880  Biso   1.000  H
  H67      1.0000 0.72690  0.72590  0.37120  Biso   1.000  H
  H68      1.0000 0.77310  0.77410  0.37120  Biso   1.000  H
  H69      1.0000 0.77310  0.72590  0.87120  Biso   1.000  H
  H70      1.0000 0.72690  0.77410  0.87120  Biso   1.000  H
  H71      1.0000 0.27310  0.27410  0.62880  Biso   1.000  H
  H72      1.0000 0.22690  0.22590  0.62880  Biso   1.000  H
  H73      1.0000 0.18200  0.42020  0.15790  Biso   1.000  H
  H74      1.0000 0.31800  0.07980  0.15790  Biso   1.000  H
  H75      1.0000 0.68200  0.57980  0.34210  Biso   1.000  H
  H76      1.0000 0.81800  0.92020  0.34210  Biso   1.000  H
  H77      1.0000 0.81800  0.57980  0.84210  Biso   1.000  H
  H78      1.0000 0.68200  0.92020  0.84210  Biso   1.000  H
  H79      1.0000 0.31800  0.42020  0.65790  Biso   1.000  H
  H80      1.0000 0.18200  0.07980  0.65790  Biso   1.000  H
  O41      1.0000 0.30300  0.67080  0.63577  Biso   1.000  O
  O42      1.0000 0.19700  0.82920  0.63577  Biso   1.000  O
  O43      1.0000 0.80300  0.32920  0.86423  Biso   1.000  O
  O44      1.0000 0.69700  0.17080  0.86423  Biso   1.000  O
  O45      1.0000 0.69700  0.32920  0.36423  Biso   1.000  O
  O46      1.0000 0.80300  0.17080  0.36423  Biso   1.000  O
  O47      1.0000 0.19700  0.67080  0.13577  Biso   1.000  O
  O48      1.0000 0.30300  0.82920  0.13577  Biso   1.000  O
  H81      1.0000 0.32850  0.71200  0.60020  Biso   1.000  H
  H82      1.0000 0.17150  0.78800  0.60020  Biso   1.000  H
  H83      1.0000 0.82850  0.28800  0.89980  Biso   1.000  H
  H84      1.0000 0.67150  0.21200  0.89980  Biso   1.000  H
  H85      1.0000 0.67150  0.28800  0.39980  Biso   1.000  H
  H86      1.0000 0.82850  0.21200  0.39980  Biso   1.000  H
  H87      1.0000 0.17150  0.71200  0.10020  Biso   1.000  H
  H88      1.0000 0.32850  0.78800  0.10020  Biso   1.000  H
  H89      1.0000 0.30090  0.55020  0.63350  Biso   1.000  H
  H90      1.0000 0.19910  0.94980  0.63350  Biso   1.000  H
  H91      1.0000 0.80090  0.44980  0.86650  Biso   1.000  H
  H92      1.0000 0.69910  0.05020  0.86650  Biso   1.000  H
  H93      1.0000 0.69910  0.44980  0.36650  Biso   1.000  H
  H94      1.0000 0.80090  0.05020  0.36650  Biso   1.000  H
  H95      1.0000 0.19910  0.55020  0.13350  Biso   1.000  H
  H96      1.0000 0.30090  0.94980  0.13350  Biso   1.000  H
  H97      1.0000 0.26370  0.71500  0.63550  Biso   1.000  H
  H98      1.0000 0.23630  0.78500  0.63550  Biso   1.000  H
  H99      1.0000 0.76370  0.28500  0.86450  Biso   1.000  H
  H100     1.0000 0.73630  0.21500  0.86450  Biso   1.000  H
  H101     1.0000 0.73630  0.28500  0.36450  Biso   1.000  H
  H102     1.0000 0.76370  0.21500  0.36450  Biso   1.000  H
  H103     1.0000 0.23630  0.71500  0.13550  Biso   1.000  H
  H104     1.0000 0.26370  0.78500  0.13550  Biso   1.000  H
