data_image0
_cell_length_a       9.4951
_cell_length_b       9.4951
_cell_length_c       12.62
_cell_angle_alpha    90
_cell_angle_beta     90
_cell_angle_gamma    90

_symmetry_space_group_name_H-M    "P 1"
_symmetry_int_tables_number       1

loop_
  _symmetry_equiv_pos_as_xyz
  'x, y, z'

loop_
  _atom_site_label
  _atom_site_occupancy
  _atom_site_fract_x
  _atom_site_fract_y
  _atom_site_fract_z
  _atom_site_thermal_displace_type
  _atom_site_B_iso_or_equiv
  _atom_site_type_symbol
  Cu1      1.0000 0.50000  0.00000  0.95374  Biso   1.000  Cu
  Cu2      1.0000 0.00000  0.50000  0.45374  Biso   1.000  Cu
  Cu3      1.0000 0.00000  0.00000  0.20374  Biso   1.000  Cu
  Cu4      1.0000 0.50000  0.50000  0.20374  Biso   1.000  Cu
  N1       1.0000 0.35190  0.00540  0.84084  Biso   1.000  N
  N2       1.0000 0.14810  0.49460  0.34084  Biso   1.000  N
  N3       1.0000 0.99460  0.85190  0.09084  Biso   1.000  N
  N4       1.0000 0.50540  0.64810  0.09084  Biso   1.000  N
  N5       1.0000 0.85190  0.50540  0.34084  Biso   1.000  N
  N6       1.0000 0.64810  0.99460  0.84084  Biso   1.000  N
  N7       1.0000 0.49460  0.35190  0.09084  Biso   1.000  N
  N8       1.0000 0.00540  0.14810  0.09084  Biso   1.000  N
  N9       1.0000 0.34220  0.10760  0.76810  Biso   1.000  N
  N10      1.0000 0.15780  0.39240  0.26810  Biso   1.000  N
  N11      1.0000 0.89240  0.84220  0.01810  Biso   1.000  N
  N12      1.0000 0.60760  0.65780  0.01810  Biso   1.000  N
  N13      1.0000 0.84220  0.60760  0.26810  Biso   1.000  N
  N14      1.0000 0.65780  0.89240  0.76810  Biso   1.000  N
  N15      1.0000 0.39240  0.34220  0.01810  Biso   1.000  N
  N16      1.0000 0.10760  0.15780  0.01810  Biso   1.000  N
  H1       1.0000 0.39510  0.18110  0.76650  Biso   1.000  H
  H2       1.0000 0.10490  0.31890  0.26650  Biso   1.000  H
  H3       1.0000 0.81890  0.89510  0.01650  Biso   1.000  H
  H4       1.0000 0.68110  0.60490  0.01650  Biso   1.000  H
  H5       1.0000 0.89510  0.68110  0.26650  Biso   1.000  H
  H6       1.0000 0.60490  0.81890  0.76650  Biso   1.000  H
  H7       1.0000 0.31890  0.39510  0.01650  Biso   1.000  H
  H8       1.0000 0.18110  0.10490  0.01650  Biso   1.000  H
  C1       1.0000 0.24050  0.08100  0.69860  Biso   1.000  C
  C2       1.0000 0.25950  0.41900  0.19860  Biso   1.000  C
  C3       1.0000 0.91900  0.74050  0.94860  Biso   1.000  C
  C4       1.0000 0.58100  0.75950  0.94860  Biso   1.000  C
  C5       1.0000 0.74050  0.58100  0.19860  Biso   1.000  C
  C6       1.0000 0.75950  0.91900  0.69860  Biso   1.000  C
  C7       1.0000 0.41900  0.24050  0.94860  Biso   1.000  C
  C8       1.0000 0.08100  0.25950  0.94860  Biso   1.000  C
  H9       1.0000 0.21460  0.13780  0.64180  Biso   1.000  H
  H10      1.0000 0.28540  0.36220  0.14180  Biso   1.000  H
  H11      1.0000 0.86220  0.71460  0.89180  Biso   1.000  H
  H12      1.0000 0.63780  0.78540  0.89180  Biso   1.000  H
  H13      1.0000 0.71460  0.63780  0.14180  Biso   1.000  H
  H14      1.0000 0.78540  0.86220  0.64180  Biso   1.000  H
  H15      1.0000 0.36220  0.21460  0.89180  Biso   1.000  H
  H16      1.0000 0.13780  0.28540  0.89180  Biso   1.000  H
  C9       1.0000 0.18180  0.95680  0.72540  Biso   1.000  C
  C10      1.0000 0.31820  0.54320  0.22540  Biso   1.000  C
  C11      1.0000 0.04320  0.68180  0.97540  Biso   1.000  C
  C12      1.0000 0.45680  0.81820  0.97540  Biso   1.000  C
  C13      1.0000 0.68180  0.45680  0.22540  Biso   1.000  C
  C14      1.0000 0.81820  0.04320  0.72540  Biso   1.000  C
  C15      1.0000 0.54320  0.18180  0.97540  Biso   1.000  C
  C16      1.0000 0.95680  0.31820  0.97540  Biso   1.000  C
  H17      1.0000 0.10890  0.91000  0.69090  Biso   1.000  H
  H18      1.0000 0.39110  0.59000  0.19090  Biso   1.000  H
  H19      1.0000 0.09000  0.60890  0.94090  Biso   1.000  H
  H20      1.0000 0.41000  0.89110  0.94090  Biso   1.000  H
  H21      1.0000 0.60890  0.41000  0.19090  Biso   1.000  H
  H22      1.0000 0.89110  0.09000  0.69090  Biso   1.000  H
  H23      1.0000 0.59000  0.10890  0.94090  Biso   1.000  H
  H24      1.0000 0.91000  0.39110  0.94090  Biso   1.000  H
  C17      1.0000 0.25340  0.91360  0.81550  Biso   1.000  C
  C18      1.0000 0.24660  0.58640  0.31550  Biso   1.000  C
  C19      1.0000 0.08640  0.75340  0.06550  Biso   1.000  C
  C20      1.0000 0.41360  0.74660  0.06550  Biso   1.000  C
  C21      1.0000 0.75340  0.41360  0.31550  Biso   1.000  C
  C22      1.0000 0.74660  0.08640  0.81550  Biso   1.000  C
  C23      1.0000 0.58640  0.25340  0.06550  Biso   1.000  C
  C24      1.0000 0.91360  0.24660  0.06550  Biso   1.000  C
  H25      1.0000 0.23460  0.83130  0.85280  Biso   1.000  H
  H26      1.0000 0.26540  0.66870  0.35280  Biso   1.000  H
  H27      1.0000 0.16870  0.73460  0.10280  Biso   1.000  H
  H28      1.0000 0.33130  0.76540  0.10280  Biso   1.000  H
  H29      1.0000 0.73460  0.33130  0.35280  Biso   1.000  H
  H30      1.0000 0.76540  0.16870  0.85280  Biso   1.000  H
  H31      1.0000 0.66870  0.23460  0.10280  Biso   1.000  H
  H32      1.0000 0.83130  0.26540  0.10280  Biso   1.000  H
  O1       1.0000 0.64971  0.99860  0.05922  Biso   1.000  O
  O2       1.0000 0.85029  0.50140  0.55922  Biso   1.000  O
  O3       1.0000 0.00140  0.14971  0.30922  Biso   1.000  O
  O4       1.0000 0.49860  0.35029  0.30922  Biso   1.000  O
  O5       1.0000 0.14971  0.49860  0.55922  Biso   1.000  O
  O6       1.0000 0.35029  0.00140  0.05922  Biso   1.000  O
  O7       1.0000 0.50140  0.64971  0.30922  Biso   1.000  O
  O8       1.0000 0.99860  0.85029  0.30922  Biso   1.000  O
  O9       1.0000 0.49100  0.26380  0.97102  Biso   1.000  O
  O10      1.0000 0.00900  0.23620  0.47102  Biso   1.000  O
  O11      1.0000 0.73620  0.99100  0.22102  Biso   1.000  O
  O12      1.0000 0.76380  0.50900  0.22102  Biso   1.000  O
  O13      1.0000 0.99100  0.76380  0.47102  Biso   1.000  O
  O14      1.0000 0.50900  0.73620  0.97102  Biso   1.000  O
  O15      1.0000 0.23620  0.49100  0.22102  Biso   1.000  O
  O16      1.0000 0.26380  0.00900  0.22102  Biso   1.000  O
  C25      1.0000 0.63810  0.99660  0.15890  Biso   1.000  C
  C26      1.0000 0.86190  0.50340  0.65890  Biso   1.000  C
  C27      1.0000 0.00340  0.13810  0.40890  Biso   1.000  C
  C28      1.0000 0.49660  0.36190  0.40890  Biso   1.000  C
  C29      1.0000 0.13810  0.49660  0.65890  Biso   1.000  C
  C30      1.0000 0.36190  0.00340  0.15890  Biso   1.000  C
  C31      1.0000 0.50340  0.63810  0.40890  Biso   1.000  C
  C32      1.0000 0.99660  0.86190  0.40890  Biso   1.000  C
  C33      1.0000 0.50340  0.06990  0.20140  Biso   1.000  C
  C34      1.0000 0.99660  0.43010  0.70140  Biso   1.000  C
  C35      1.0000 0.93010  0.00340  0.45140  Biso   1.000  C
  C36      1.0000 0.56990  0.49660  0.45140  Biso   1.000  C
  C37      1.0000 0.00340  0.56990  0.70140  Biso   1.000  C
  C38      1.0000 0.49660  0.93010  0.20140  Biso   1.000  C
  C39      1.0000 0.43010  0.50340  0.45140  Biso   1.000  C
  C40      1.0000 0.06990  0.99660  0.45140  Biso   1.000  C
  H33      1.0000 0.50640  0.16770  0.18230  Biso   1.000  H
  H34      1.0000 0.99360  0.33230  0.68230  Biso   1.000  H
  H35      1.0000 0.83230  0.00640  0.43230  Biso   1.000  H
  H36      1.0000 0.66770  0.49360  0.43230  Biso   1.000  H
  H37      1.0000 0.00640  0.66770  0.68230  Biso   1.000  H
  H38      1.0000 0.49360  0.83230  0.18230  Biso   1.000  H
  H39      1.0000 0.33230  0.50640  0.43230  Biso   1.000  H
  H40      1.0000 0.16770  0.99360  0.43230  Biso   1.000  H
  H41      1.0000 0.50350  0.06420  0.27740  Biso   1.000  H
  H42      1.0000 0.99650  0.43580  0.77740  Biso   1.000  H
  H43      1.0000 0.93580  0.00350  0.52740  Biso   1.000  H
  H44      1.0000 0.56420  0.49650  0.52740  Biso   1.000  H
  H45      1.0000 0.00350  0.56420  0.77740  Biso   1.000  H
  H46      1.0000 0.49650  0.93580  0.27740  Biso   1.000  H
  H47      1.0000 0.43580  0.50350  0.52740  Biso   1.000  H
  H48      1.0000 0.06420  0.99650  0.52740  Biso   1.000  H
  C41      1.0000 0.49660  0.36190  0.90890  Biso   1.000  C
  C42      1.0000 0.86190  0.50340  0.15890  Biso   1.000  C
  C43      1.0000 0.50340  0.63810  0.90890  Biso   1.000  C
  C44      1.0000 0.13810  0.49660  0.15890  Biso   1.000  C
  O17      1.0000 0.76380  0.50900  0.72102  Biso   1.000  O
  O18      1.0000 0.49100  0.26380  0.47102  Biso   1.000  O
  O19      1.0000 0.23620  0.49100  0.72102  Biso   1.000  O
  O20      1.0000 0.50900  0.73620  0.47102  Biso   1.000  O
