data_image0
_cell_length_a       11.0928
_cell_length_b       12.4805
_cell_length_c       15.1388
_cell_angle_alpha    81.463
_cell_angle_beta     83.416
_cell_angle_gamma    64.133

_symmetry_space_group_name_H-M    "P 1"
_symmetry_int_tables_number       1

loop_
  _symmetry_equiv_pos_as_xyz
  'x, y, z'

loop_
  _atom_site_label
  _atom_site_occupancy
  _atom_site_fract_x
  _atom_site_fract_y
  _atom_site_fract_z
  _atom_site_thermal_displace_type
  _atom_site_B_iso_or_equiv
  _atom_site_type_symbol
  Sm1      1.0000 0.90364  0.38898  0.03659  Biso   1.000  Sm
  Sm2      1.0000 0.09636  0.61102  0.96341  Biso   1.000  Sm
  Cu1      1.0000 0.51409  0.99920  0.41169  Biso   1.000  Cu
  Cu2      1.0000 0.48591  0.00080  0.58831  Biso   1.000  Cu
  I1       1.0000 0.65315  0.07438  0.49252  Biso   1.000  I
  I2       1.0000 0.34685  0.92562  0.50748  Biso   1.000  I
  O1       1.0000 0.26750  0.44780  0.05160  Biso   1.000  O
  O2       1.0000 0.73250  0.55220  0.94840  Biso   1.000  O
  O3       1.0000 0.10580  0.38770  0.06910  Biso   1.000  O
  O4       1.0000 0.89420  0.61230  0.93090  Biso   1.000  O
  O5       1.0000 0.97250  0.63980  0.10321  Biso   1.000  O
  O6       1.0000 0.02750  0.36020  0.89679  Biso   1.000  O
  O7       1.0000 0.83340  0.55000  0.12680  Biso   1.000  O
  O8       1.0000 0.16660  0.45000  0.87320  Biso   1.000  O
  O9       1.0000 0.04970  0.17610  0.04720  Biso   1.000  O
  O10      1.0000 0.95030  0.82390  0.95280  Biso   1.000  O
  O11      1.0000 0.79540  0.30830  0.95540  Biso   1.000  O
  O12      1.0000 0.20460  0.69170  0.04460  Biso   1.000  O
  O13      1.0000 0.89880  0.30060  0.19760  Biso   1.000  O
  O14      1.0000 0.10120  0.69940  0.80240  Biso   1.000  O
  O15      1.0000 0.71250  0.36980  0.13410  Biso   1.000  O
  O16      1.0000 0.28750  0.63020  0.86590  Biso   1.000  O
  O17      1.0000 0.72230  0.29910  0.27340  Biso   1.000  O
  O18      1.0000 0.27770  0.70090  0.72660  Biso   1.000  O
  N1       1.0000 0.41400  0.12940  0.31070  Biso   1.000  N
  N2       1.0000 0.58600  0.87060  0.68930  Biso   1.000  N
  N3       1.0000 0.64380  0.86250  0.33870  Biso   1.000  N
  N4       1.0000 0.35620  0.13750  0.66130  Biso   1.000  N
  N5       1.0000 0.19860  0.01870  0.97660  Biso   1.000  N
  N6       1.0000 0.80140  0.98130  0.02340  Biso   1.000  N
  N7       1.0000 0.63850  0.36540  0.85430  Biso   1.000  N
  N8       1.0000 0.36150  0.63460  0.14570  Biso   1.000  N
  N9       1.0000 0.77600  0.32290  0.20380  Biso   1.000  N
  N10      1.0000 0.22400  0.67710  0.79620  Biso   1.000  N
  C1       1.0000 0.46030  0.20700  0.26890  Biso   1.000  C
  C2       1.0000 0.53970  0.79300  0.73110  Biso   1.000  C
  H1       1.0000 0.53790  0.20660  0.29000  Biso   1.000  H
  H2       1.0000 0.46210  0.79340  0.71000  Biso   1.000  H
  C3       1.0000 0.40130  0.28780  0.19650  Biso   1.000  C
  C4       1.0000 0.59870  0.71220  0.80350  Biso   1.000  C
  H3       1.0000 0.43880  0.34040  0.16800  Biso   1.000  H
  H4       1.0000 0.56120  0.65960  0.83200  Biso   1.000  H
  C5       1.0000 0.28650  0.29110  0.16600  Biso   1.000  C
  C6       1.0000 0.71350  0.70890  0.83400  Biso   1.000  C
  C7       1.0000 0.23810  0.21100  0.20900  Biso   1.000  C
  C8       1.0000 0.76190  0.78900  0.79100  Biso   1.000  C
  H5       1.0000 0.15970  0.21040  0.19000  Biso   1.000  H
  H6       1.0000 0.84030  0.78960  0.81000  Biso   1.000  H
  C9       1.0000 0.30470  0.13210  0.27960  Biso   1.000  C
  C10      1.0000 0.69530  0.86790  0.72040  Biso   1.000  C
  H7       1.0000 0.27120  0.07650  0.30770  Biso   1.000  H
  H8       1.0000 0.72880  0.92350  0.69230  Biso   1.000  H
  C11      1.0000 0.21590  0.38130  0.08980  Biso   1.000  C
  C12      1.0000 0.78410  0.61870  0.91020  Biso   1.000  C
  C13      1.0000 0.75760  0.86290  0.29940  Biso   1.000  C
  C14      1.0000 0.24240  0.13710  0.70060  Biso   1.000  C
  H9       1.0000 0.78600  0.91910  0.31490  Biso   1.000  H
  H10      1.0000 0.21400  0.08090  0.68510  Biso   1.000  H
  C15      1.0000 0.83620  0.78650  0.23770  Biso   1.000  C
  C16      1.0000 0.16380  0.21350  0.76230  Biso   1.000  C
  H11      1.0000 0.91700  0.78960  0.21220  Biso   1.000  H
  H12      1.0000 0.08300  0.21040  0.78780  Biso   1.000  H
  C17      1.0000 0.79620  0.70520  0.21340  Biso   1.000  C
  C18      1.0000 0.20380  0.29480  0.78660  Biso   1.000  C
  C19      1.0000 0.68160  0.70030  0.25630  Biso   1.000  C
  C20      1.0000 0.31840  0.29970  0.74370  Biso   1.000  C
  H13      1.0000 0.65320  0.64280  0.24370  Biso   1.000  H
  H14      1.0000 0.34680  0.35720  0.75630  Biso   1.000  H
  C21      1.0000 0.60950  0.77960  0.31730  Biso   1.000  C
  C22      1.0000 0.39050  0.22040  0.68270  Biso   1.000  C
  H15      1.0000 0.53070  0.77530  0.34610  Biso   1.000  H
  H16      1.0000 0.46930  0.22470  0.65390  Biso   1.000  H
  C23      1.0000 0.87440  0.62390  0.14230  Biso   1.000  C
  C24      1.0000 0.12560  0.37610  0.85770  Biso   1.000  C
  C25      1.0000 0.30730  0.99810  0.03380  Biso   1.000  C
  C26      1.0000 0.69270  0.00190  0.96620  Biso   1.000  C
  H17      1.0000 0.27550  0.06070  0.07430  Biso   1.000  H
  H18      1.0000 0.72450  0.93930  0.92570  Biso   1.000  H
  H19      1.0000 0.38430  0.00050  0.99620  Biso   1.000  H
  H20      1.0000 0.61570  0.99950  0.00380  Biso   1.000  H
  H21      1.0000 0.33430  0.91960  0.06900  Biso   1.000  H
  H22      1.0000 0.66570  0.08040  0.93100  Biso   1.000  H
  C27      1.0000 0.22650  0.93490  0.91110  Biso   1.000  C
  C28      1.0000 0.77350  0.06510  0.08890  Biso   1.000  C
  H23      1.0000 0.14650  0.95900  0.87760  Biso   1.000  H
  H24      1.0000 0.85350  0.04100  0.12240  Biso   1.000  H
  H25      1.0000 0.25080  0.85410  0.94200  Biso   1.000  H
  H26      1.0000 0.74920  0.14590  0.05800  Biso   1.000  H
  H27      1.0000 0.30110  0.93530  0.86970  Biso   1.000  H
  H28      1.0000 0.69890  0.06470  0.13030  Biso   1.000  H
  C29      1.0000 0.07950  0.10630  0.99000  Biso   1.000  C
  C30      1.0000 0.92050  0.89370  0.01000  Biso   1.000  C
  H29      1.0000 0.01090  0.11670  0.95280  Biso   1.000  H
  H30      1.0000 0.98910  0.88330  0.04720  Biso   1.000  H
  C31      1.0000 0.53730  0.35670  0.92080  Biso   1.000  C
  C32      1.0000 0.46270  0.64330  0.07920  Biso   1.000  C
  H31      1.0000 0.57440  0.33240  0.98000  Biso   1.000  H
  H32      1.0000 0.42560  0.66760  0.02000  Biso   1.000  H
  H33      1.0000 0.50940  0.29700  0.90640  Biso   1.000  H
  H34      1.0000 0.49060  0.70300  0.09360  Biso   1.000  H
  H35      1.0000 0.45950  0.43480  0.92080  Biso   1.000  H
  H36      1.0000 0.54050  0.56520  0.07920  Biso   1.000  H
  C33      1.0000 0.60270  0.40020  0.76170  Biso   1.000  C
  C34      1.0000 0.39730  0.59980  0.23830  Biso   1.000  C
  H37      1.0000 0.67950  0.40290  0.72410  Biso   1.000  H
  H38      1.0000 0.32050  0.59710  0.27590  Biso   1.000  H
  H39      1.0000 0.52670  0.47950  0.75630  Biso   1.000  H
  H40      1.0000 0.47330  0.52050  0.24370  Biso   1.000  H
  H41      1.0000 0.57760  0.34160  0.74210  Biso   1.000  H
  H42      1.0000 0.42240  0.65840  0.25790  Biso   1.000  H
  C35      1.0000 0.75830  0.34230  0.87760  Biso   1.000  C
  C36      1.0000 0.24170  0.65770  0.12240  Biso   1.000  C
  H43      1.0000 0.82070  0.35200  0.83240  Biso   1.000  H
  H44      1.0000 0.17930  0.64800  0.16760  Biso   1.000  H
  O19      1.0000 0.50000  0.50000  0.50000  Biso   1.000  O
  O20      1.0000 0.09000  0.89680  0.18700  Biso   1.000  O
  O21      1.0000 0.91000  0.10320  0.81300  Biso   1.000  O
  N11      1.0000 0.04860  0.96300  0.32270  Biso   1.000  N
  N12      1.0000 0.95140  0.03700  0.67730  Biso   1.000  N
  C37      1.0000 0.08280  0.84690  0.37250  Biso   1.000  C
  C38      1.0000 0.91720  0.15310  0.62750  Biso   1.000  C
  H45      1.0000 0.11200  0.78590  0.33090  Biso   1.000  H
  H46      1.0000 0.88800  0.21410  0.66910  Biso   1.000  H
  H47      1.0000 0.00410  0.84670  0.40910  Biso   1.000  H
  H48      1.0000 0.99590  0.15330  0.59090  Biso   1.000  H
  H49      1.0000 0.15560  0.82900  0.41140  Biso   1.000  H
  H50      1.0000 0.84440  0.17100  0.58860  Biso   1.000  H
  C39      1.0000 0.00310  0.06450  0.37230  Biso   1.000  C
  C40      1.0000 0.99690  0.93550  0.62770  Biso   1.000  C
  H51      1.0000 0.98320  0.13740  0.33070  Biso   1.000  H
  H52      1.0000 0.01680  0.86260  0.66930  Biso   1.000  H
  H53      1.0000 0.07330  0.05390  0.41110  Biso   1.000  H
  H54      1.0000 0.92670  0.94610  0.58890  Biso   1.000  H
  H55      1.0000 0.92180  0.07140  0.40900  Biso   1.000  H
  H56      1.0000 0.07820  0.92860  0.59100  Biso   1.000  H
  C41      1.0000 0.05710  0.97680  0.23490  Biso   1.000  C
  C42      1.0000 0.94290  0.02320  0.76510  Biso   1.000  C
  H57      1.0000 0.03610  0.05540  0.20630  Biso   1.000  H
  H58      1.0000 0.96390  0.94460  0.79370  Biso   1.000  H
  O22      1.0000 0.88040  0.45660  0.68830  Biso   1.000  O
  O23      1.0000 0.11960  0.54340  0.31170  Biso   1.000  O
  N13      1.0000 0.90190  0.60730  0.59110  Biso   1.000  N
  N14      1.0000 0.09810  0.39270  0.40890  Biso   1.000  N
  C43      1.0000 0.01760  0.61510  0.60830  Biso   1.000  C
  C44      1.0000 0.98240  0.38490  0.39170  Biso   1.000  C
  H59      1.0000 0.06020  0.55620  0.65880  Biso   1.000  H
  H60      1.0000 0.93980  0.44380  0.34120  Biso   1.000  H
  H61      1.0000 0.99480  0.69580  0.62310  Biso   1.000  H
  H62      1.0000 0.00520  0.30420  0.37690  Biso   1.000  H
  H63      1.0000 0.07970  0.59870  0.55530  Biso   1.000  H
  H64      1.0000 0.92030  0.40130  0.44470  Biso   1.000  H
  C45      1.0000 0.83790  0.68600  0.52140  Biso   1.000  C
  C46      1.0000 0.16210  0.31400  0.47860  Biso   1.000  C
  H65      1.0000 0.75630  0.67770  0.51270  Biso   1.000  H
  H66      1.0000 0.24370  0.32230  0.48730  Biso   1.000  H
  H67      1.0000 0.89720  0.66930  0.46710  Biso   1.000  H
  H68      1.0000 0.10280  0.33070  0.53290  Biso   1.000  H
  H69      1.0000 0.81380  0.76780  0.53420  Biso   1.000  H
  H70      1.0000 0.18620  0.23220  0.46580  Biso   1.000  H
  C47      1.0000 0.85510  0.53290  0.63650  Biso   1.000  C
  C48      1.0000 0.14490  0.46710  0.36350  Biso   1.000  C
  H71      1.0000 0.76850  0.55310  0.61710  Biso   1.000  H
  H72      1.0000 0.23150  0.44690  0.38290  Biso   1.000  H
