data_image0
_cell_length_a       11.2008
_cell_length_b       12.5798
_cell_length_c       15.1576
_cell_angle_alpha    92.291
_cell_angle_beta     97.131
_cell_angle_gamma    116.347

_symmetry_space_group_name_H-M    "P 1"
_symmetry_int_tables_number       1

loop_
  _symmetry_equiv_pos_as_xyz
  'x, y, z'

loop_
  _atom_site_label
  _atom_site_occupancy
  _atom_site_fract_x
  _atom_site_fract_y
  _atom_site_fract_z
  _atom_site_thermal_displace_type
  _atom_site_B_iso_or_equiv
  _atom_site_type_symbol
  Tb1      1.0000 0.70722  0.11158  0.03618  Biso   1.000  Tb
  Tb2      1.0000 0.29278  0.88842  0.96382  Biso   1.000  Tb
  I1       1.0000 0.27494  0.42770  0.49105  Biso   1.000  I
  I2       1.0000 0.72506  0.57230  0.50895  Biso   1.000  I
  Cu1      1.0000 0.48669  0.50192  0.41092  Biso   1.000  Cu
  Cu2      1.0000 0.51331  0.49808  0.58908  Biso   1.000  Cu
  O1       1.0000 0.61740  0.95230  0.12480  Biso   1.000  O
  O2       1.0000 0.38260  0.04770  0.87520  Biso   1.000  O
  O3       1.0000 0.39120  0.86660  0.10270  Biso   1.000  O
  O4       1.0000 0.60880  0.13340  0.89730  Biso   1.000  O
  O5       1.0000 0.51710  0.12020  0.07060  Biso   1.000  O
  O6       1.0000 0.48290  0.87980  0.92940  Biso   1.000  O
  O7       1.0000 0.29630  0.05310  0.05130  Biso   1.000  O
  O8       1.0000 0.70370  0.94690  0.94870  Biso   1.000  O
  O9       1.0000 0.77240  0.32120  0.04310  Biso   1.000  O
  O10      1.0000 0.22760  0.67880  0.95690  Biso   1.000  O
  O11      1.0000 0.89110  0.18660  0.95650  Biso   1.000  O
  O12      1.0000 0.10890  0.81340  0.04350  Biso   1.000  O
  N1       1.0000 0.49550  0.64020  0.33710  Biso   1.000  N
  N2       1.0000 0.50450  0.35980  0.66290  Biso   1.000  N
  N3       1.0000 0.45770  0.37300  0.30840  Biso   1.000  N
  N4       1.0000 0.54230  0.62700  0.69160  Biso   1.000  N
  O13      1.0000 0.80200  0.20090  0.19390  Biso   1.000  O
  O14      1.0000 0.19800  0.79910  0.80610  Biso   1.000  O
  O15      1.0000 0.91140  0.12440  0.13230  Biso   1.000  O
  O16      1.0000 0.08860  0.87560  0.86770  Biso   1.000  O
  C1       1.0000 0.50140  0.79840  0.21180  Biso   1.000  C
  C2       1.0000 0.49860  0.20160  0.78820  Biso   1.000  C
  C3       1.0000 0.38180  0.72030  0.23770  Biso   1.000  C
  C4       1.0000 0.61820  0.27970  0.76230  Biso   1.000  C
  H1       1.0000 0.29910  0.71950  0.21290  Biso   1.000  H
  H2       1.0000 0.70090  0.28050  0.78710  Biso   1.000  H
  N5       1.0000 0.99350  0.13150  0.85800  Biso   1.000  N
  N6       1.0000 0.00650  0.86850  0.14200  Biso   1.000  N
  C5       1.0000 0.41260  0.12270  0.08970  Biso   1.000  C
  C6       1.0000 0.58740  0.87730  0.91030  Biso   1.000  C
  C7       1.0000 0.50430  0.88040  0.14090  Biso   1.000  C
  C8       1.0000 0.49570  0.11960  0.85910  Biso   1.000  C
  C9       1.0000 0.42810  0.21250  0.16480  Biso   1.000  C
  C10      1.0000 0.57190  0.78750  0.83520  Biso   1.000  C
  N7       1.0000 0.89930  0.17580  0.20060  Biso   1.000  N
  N8       1.0000 0.10070  0.82420  0.79940  Biso   1.000  N
  C11      1.0000 0.31630  0.21270  0.19520  Biso   1.000  C
  C12      1.0000 0.68370  0.78730  0.80480  Biso   1.000  C
  H3       1.0000 0.22770  0.15830  0.16720  Biso   1.000  H
  H4       1.0000 0.77230  0.84170  0.83280  Biso   1.000  H
  C13      1.0000 0.61790  0.79870  0.25290  Biso   1.000  C
  C14      1.0000 0.38210  0.20130  0.74710  Biso   1.000  C
  H5       1.0000 0.70270  0.85360  0.23900  Biso   1.000  H
  H6       1.0000 0.29730  0.14640  0.76100  Biso   1.000  H
  C15      1.0000 0.55410  0.29490  0.20690  Biso   1.000  C
  C16      1.0000 0.44590  0.70510  0.79310  Biso   1.000  C
  H7       1.0000 0.63300  0.29810  0.18740  Biso   1.000  H
  H8       1.0000 0.36700  0.70190  0.81260  Biso   1.000  H
  C17      1.0000 0.33590  0.29320  0.26700  Biso   1.000  C
  C18      1.0000 0.66410  0.70680  0.73300  Biso   1.000  C
  H9       1.0000 0.25870  0.29170  0.28790  Biso   1.000  H
  H10      1.0000 0.74130  0.70830  0.71210  Biso   1.000  H
  C19      1.0000 0.38330  0.64380  0.29970  Biso   1.000  C
  C20      1.0000 0.61670  0.35620  0.70030  Biso   1.000  C
  H11      1.0000 0.30010  0.59070  0.31680  Biso   1.000  H
  H12      1.0000 0.69990  0.40930  0.68320  Biso   1.000  H
  C21      1.0000 0.56460  0.37290  0.27780  Biso   1.000  C
  C22      1.0000 0.43540  0.62710  0.72220  Biso   1.000  C
  H13      1.0000 0.65210  0.42930  0.30610  Biso   1.000  H
  H14      1.0000 0.34790  0.57070  0.69390  Biso   1.000  H
  N9       1.0000 0.78130  0.47820  0.97090  Biso   1.000  N
  N10      1.0000 0.21870  0.52180  0.02910  Biso   1.000  N
  C23      1.0000 0.89550  0.15160  0.87940  Biso   1.000  C
  C24      1.0000 0.10450  0.84840  0.12060  Biso   1.000  C
  H15      1.0000 0.82310  0.13880  0.83340  Biso   1.000  H
  H16      1.0000 0.17690  0.86120  0.16660  Biso   1.000  H
  C25      1.0000 0.81430  0.39210  0.98670  Biso   1.000  C
  C26      1.0000 0.18570  0.60790  0.01330  Biso   1.000  C
  H17      1.0000 0.87510  0.38330  0.95200  Biso   1.000  H
  H18      1.0000 0.12490  0.61670  0.04800  Biso   1.000  H
  C27      1.0000 0.61170  0.71930  0.31430  Biso   1.000  C
  C28      1.0000 0.38830  0.28070  0.68570  Biso   1.000  C
  H19      1.0000 0.69350  0.72080  0.34170  Biso   1.000  H
  H20      1.0000 0.30650  0.27920  0.65830  Biso   1.000  H
  O17      1.0000 0.97880  0.20110  0.26970  Biso   1.000  O
  O18      1.0000 0.02120  0.79890  0.73030  Biso   1.000  O
  C29      1.0000 0.99570  0.09540  0.76610  Biso   1.000  C
  C30      1.0000 0.00430  0.90460  0.23390  Biso   1.000  C
  H21      1.0000 0.91500  0.08870  0.72770  Biso   1.000  H
  H22      1.0000 0.08500  0.91130  0.27230  Biso   1.000  H
  H23      1.0000 0.99710  0.01800  0.76280  Biso   1.000  H
  H24      1.0000 0.00290  0.98200  0.23720  Biso   1.000  H
  H25      1.0000 0.07650  0.15510  0.74590  Biso   1.000  H
  H26      1.0000 0.92350  0.84490  0.25410  Biso   1.000  H
  C31      1.0000 0.83960  0.56280  0.90630  Biso   1.000  C
  C32      1.0000 0.16040  0.43720  0.09370  Biso   1.000  C
  H27      1.0000 0.89980  0.54120  0.87660  Biso   1.000  H
  H28      1.0000 0.10020  0.45880  0.12340  Biso   1.000  H
  H29      1.0000 0.89090  0.64350  0.93740  Biso   1.000  H
  H30      1.0000 0.10910  0.35650  0.06260  Biso   1.000  H
  H31      1.0000 0.76700  0.56040  0.86150  Biso   1.000  H
  H32      1.0000 0.23300  0.43960  0.13850  Biso   1.000  H
  C33      1.0000 0.10510  0.14620  0.92500  Biso   1.000  C
  C34      1.0000 0.89490  0.85380  0.07500  Biso   1.000  C
  H33      1.0000 0.09150  0.17080  0.98360  Biso   1.000  H
  H34      1.0000 0.90850  0.82920  0.01640  Biso   1.000  H
  H35      1.0000 0.18950  0.20740  0.90990  Biso   1.000  H
  H36      1.0000 0.81050  0.79260  0.09010  Biso   1.000  H
  H37      1.0000 0.10990  0.07040  0.92700  Biso   1.000  H
  H38      1.0000 0.89010  0.92960  0.07300  Biso   1.000  H
  C35      1.0000 0.68630  0.49260  0.02180  Biso   1.000  C
  C36      1.0000 0.31370  0.50740  0.97820  Biso   1.000  C
  H39      1.0000 0.65510  0.42930  0.06140  Biso   1.000  H
  H40      1.0000 0.34490  0.57070  0.93860  Biso   1.000  H
  H41      1.0000 0.60900  0.48770  0.98050  Biso   1.000  H
  H42      1.0000 0.39100  0.51230  0.01950  Biso   1.000  H
  H43      1.0000 0.73100  0.57050  0.05760  Biso   1.000  H
  H44      1.0000 0.26900  0.42950  0.94240  Biso   1.000  H
  N11      1.0000 0.01420  0.46120  0.67950  Biso   1.000  N
  N12      1.0000 0.98580  0.53880  0.32050  Biso   1.000  N
  O19      1.0000 0.99080  0.39550  0.81540  Biso   1.000  O
  O20      1.0000 0.00920  0.60450  0.18460  Biso   1.000  O
  C37      1.0000 0.03680  0.47520  0.76680  Biso   1.000  C
  C38      1.0000 0.96320  0.52480  0.23320  Biso   1.000  C
  H45      1.0000 0.09360  0.55360  0.79510  Biso   1.000  H
  H46      1.0000 0.90640  0.44640  0.20490  Biso   1.000  H
  C39      1.0000 0.06620  0.56240  0.63030  Biso   1.000  C
  C40      1.0000 0.93380  0.43760  0.36970  Biso   1.000  C
  H47      1.0000 0.11820  0.63480  0.67200  Biso   1.000  H
  H48      1.0000 0.88180  0.36520  0.32800  Biso   1.000  H
  H49      1.0000 0.99130  0.56870  0.59420  Biso   1.000  H
  H50      1.0000 0.00870  0.43130  0.40580  Biso   1.000  H
  H51      1.0000 0.12490  0.55300  0.59100  Biso   1.000  H
  H52      1.0000 0.87510  0.44700  0.40900  Biso   1.000  H
  C41      1.0000 0.93450  0.34620  0.62820  Biso   1.000  C
  C42      1.0000 0.06550  0.65380  0.37180  Biso   1.000  C
  H53      1.0000 0.90450  0.28420  0.66900  Biso   1.000  H
  H54      1.0000 0.09550  0.71580  0.33100  Biso   1.000  H
  H55      1.0000 0.98930  0.33020  0.58900  Biso   1.000  H
  H56      1.0000 0.01070  0.66980  0.41100  Biso   1.000  H
  H57      1.0000 0.85570  0.34610  0.59190  Biso   1.000  H
  H58      1.0000 0.14430  0.65390  0.40810  Biso   1.000  H
  N13      1.0000 0.48960  0.89210  0.59250  Biso   1.000  N
  N14      1.0000 0.51040  0.10790  0.40750  Biso   1.000  N
  O21      1.0000 0.66190  0.04060  0.68590  Biso   1.000  O
  O22      1.0000 0.33810  0.95940  0.31410  Biso   1.000  O
  C43      1.0000 0.61730  0.96450  0.63080  Biso   1.000  C
  C44      1.0000 0.38270  0.03550  0.36920  Biso   1.000  C
  H59      1.0000 0.68270  0.94840  0.60680  Biso   1.000  H
  H60      1.0000 0.31730  0.05160  0.39320  Biso   1.000  H
  C45      1.0000 0.47440  0.81670  0.52290  Biso   1.000  C
  C46      1.0000 0.52560  0.18330  0.47710  Biso   1.000  C
  H61      1.0000 0.56320  0.82760  0.51160  Biso   1.000  H
  H62      1.0000 0.43680  0.17240  0.48840  Biso   1.000  H
  H63      1.0000 0.42750  0.83260  0.46990  Biso   1.000  H
  H64      1.0000 0.57250  0.16740  0.53010  Biso   1.000  H
  H65      1.0000 0.42120  0.73460  0.53580  Biso   1.000  H
  H66      1.0000 0.57880  0.26540  0.46420  Biso   1.000  H
  C47      1.0000 0.36700  0.87810  0.61090  Biso   1.000  C
  C48      1.0000 0.63300  0.12190  0.38910  Biso   1.000  C
  H67      1.0000 0.29500  0.81640  0.56740  Biso   1.000  H
  H68      1.0000 0.70500  0.18360  0.43260  Biso   1.000  H
  H69      1.0000 0.36240  0.95370  0.60710  Biso   1.000  H
  H70      1.0000 0.63760  0.04630  0.39290  Biso   1.000  H
  H71      1.0000 0.35670  0.85420  0.67130  Biso   1.000  H
  H72      1.0000 0.64330  0.14580  0.32870  Biso   1.000  H
  O23      1.0000 0.00000  0.00000  0.50000  Biso   1.000  O
