data_image0
_cell_length_a       11.1994
_cell_length_b       12.5884
_cell_length_c       15.174
_cell_angle_alpha    92.438
_cell_angle_beta     96.979
_cell_angle_gamma    116.308

_symmetry_space_group_name_H-M    "P 1"
_symmetry_int_tables_number       1

loop_
  _symmetry_equiv_pos_as_xyz
  'x, y, z'

loop_
  _atom_site_label
  _atom_site_occupancy
  _atom_site_fract_x
  _atom_site_fract_y
  _atom_site_fract_z
  _atom_site_thermal_displace_type
  _atom_site_B_iso_or_equiv
  _atom_site_type_symbol
  Gd1      1.0000 0.79324  0.38890  0.96390  Biso   1.000  Gd
  Gd2      1.0000 0.20676  0.61110  0.03610  Biso   1.000  Gd
  I1       1.0000 0.22489  0.07185  0.50866  Biso   1.000  I
  I2       1.0000 0.77511  0.92815  0.49134  Biso   1.000  I
  Cu1      1.0000 0.01313  0.99820  0.58895  Biso   1.000  Cu
  Cu2      1.0000 0.98687  0.00180  0.41105  Biso   1.000  Cu
  O1       1.0000 0.88260  0.54850  0.87430  Biso   1.000  O
  O2       1.0000 0.11740  0.45150  0.12570  Biso   1.000  O
  O3       1.0000 0.98640  0.38230  0.93010  Biso   1.000  O
  O4       1.0000 0.01360  0.61770  0.06990  Biso   1.000  O
  O5       1.0000 0.10880  0.63460  0.89690  Biso   1.000  O
  O6       1.0000 0.89120  0.36540  0.10310  Biso   1.000  O
  O7       1.0000 0.20680  0.44690  0.94840  Biso   1.000  O
  O8       1.0000 0.79320  0.55310  0.05160  Biso   1.000  O
  O9       1.0000 0.72860  0.17870  0.95630  Biso   1.000  O
  O10      1.0000 0.27140  0.82130  0.04370  Biso   1.000  O
  O11      1.0000 0.60790  0.31220  0.04430  Biso   1.000  O
  O12      1.0000 0.39210  0.68780  0.95570  Biso   1.000  O
  N1       1.0000 0.00440  0.86040  0.66270  Biso   1.000  N
  N2       1.0000 0.99560  0.13960  0.33730  Biso   1.000  N
  N3       1.0000 0.04240  0.12730  0.69110  Biso   1.000  N
  N4       1.0000 0.95760  0.87270  0.30890  Biso   1.000  N
  O13      1.0000 0.69860  0.29930  0.80520  Biso   1.000  O
  O14      1.0000 0.30140  0.70070  0.19480  Biso   1.000  O
  O15      1.0000 0.58720  0.37370  0.86750  Biso   1.000  O
  O16      1.0000 0.41280  0.62630  0.13250  Biso   1.000  O
  C1       1.0000 0.99900  0.70250  0.78760  Biso   1.000  C
  C2       1.0000 0.00100  0.29750  0.21240  Biso   1.000  C
  N5       1.0000 0.50620  0.36840  0.14300  Biso   1.000  N
  N6       1.0000 0.49380  0.63160  0.85700  Biso   1.000  N
  C3       1.0000 0.11850  0.78080  0.76220  Biso   1.000  C
  C4       1.0000 0.88150  0.21920  0.23780  Biso   1.000  C
  H1       1.0000 0.20120  0.78210  0.78720  Biso   1.000  H
  H2       1.0000 0.79880  0.21790  0.21280  Biso   1.000  H
  C5       1.0000 0.09010  0.37790  0.91030  Biso   1.000  C
  C6       1.0000 0.90990  0.62210  0.08970  Biso   1.000  C
  C7       1.0000 0.99640  0.62110  0.85880  Biso   1.000  C
  C8       1.0000 0.00360  0.37890  0.14120  Biso   1.000  C
  N7       1.0000 0.59980  0.32370  0.79930  Biso   1.000  N
  N8       1.0000 0.40020  0.67630  0.20070  Biso   1.000  N
  C9       1.0000 0.07370  0.28830  0.83510  Biso   1.000  C
  C10      1.0000 0.92630  0.71170  0.16490  Biso   1.000  C
  C11      1.0000 0.18490  0.28720  0.80470  Biso   1.000  C
  C12      1.0000 0.81510  0.71280  0.19530  Biso   1.000  C
  H3       1.0000 0.27360  0.34100  0.83260  Biso   1.000  H
  H4       1.0000 0.72640  0.65900  0.16740  Biso   1.000  H
  C13      1.0000 0.88240  0.70170  0.74640  Biso   1.000  C
  C14      1.0000 0.11760  0.29830  0.25360  Biso   1.000  C
  H5       1.0000 0.79760  0.64670  0.76030  Biso   1.000  H
  H6       1.0000 0.20240  0.35330  0.23970  Biso   1.000  H
  C15      1.0000 0.94720  0.20650  0.79310  Biso   1.000  C
  C16      1.0000 0.05280  0.79350  0.20690  Biso   1.000  C
  H7       1.0000 0.86870  0.20410  0.81270  Biso   1.000  H
  H8       1.0000 0.13130  0.79590  0.18730  Biso   1.000  H
  C17      1.0000 0.16470  0.20610  0.73260  Biso   1.000  C
  C18      1.0000 0.83530  0.79390  0.26740  Biso   1.000  C
  H9       1.0000 0.24160  0.20660  0.71170  Biso   1.000  H
  H10      1.0000 0.75840  0.79340  0.28830  Biso   1.000  H
  C19      1.0000 0.11680  0.85730  0.70010  Biso   1.000  C
  C20      1.0000 0.88320  0.14270  0.29990  Biso   1.000  C
  H11      1.0000 0.20000  0.91040  0.68310  Biso   1.000  H
  H12      1.0000 0.80000  0.08960  0.31690  Biso   1.000  H
  C21      1.0000 0.93550  0.12790  0.72230  Biso   1.000  C
  C22      1.0000 0.06450  0.87210  0.27770  Biso   1.000  C
  H13      1.0000 0.84780  0.07170  0.69440  Biso   1.000  H
  H14      1.0000 0.15220  0.92830  0.30560  Biso   1.000  H
  N9       1.0000 0.71950  0.02200  0.02780  Biso   1.000  N
  N10      1.0000 0.28050  0.97800  0.97220  Biso   1.000  N
  C23      1.0000 0.60440  0.34720  0.12130  Biso   1.000  C
  C24      1.0000 0.39560  0.65280  0.87870  Biso   1.000  C
  H15      1.0000 0.67660  0.35930  0.16700  Biso   1.000  H
  H16      1.0000 0.32340  0.64070  0.83300  Biso   1.000  H
  C25      1.0000 0.88870  0.78040  0.68540  Biso   1.000  C
  C26      1.0000 0.11130  0.21960  0.31460  Biso   1.000  C
  H17      1.0000 0.80670  0.77820  0.65770  Biso   1.000  H
  H18      1.0000 0.19330  0.22180  0.34230  Biso   1.000  H
  C27      1.0000 0.68690  0.10800  0.01240  Biso   1.000  C
  C28      1.0000 0.31310  0.89200  0.98760  Biso   1.000  C
  H19      1.0000 0.62630  0.11680  0.04720  Biso   1.000  H
  H20      1.0000 0.37370  0.88320  0.95280  Biso   1.000  H
  O17      1.0000 0.52130  0.29820  0.73000  Biso   1.000  O
  O18      1.0000 0.47870  0.70180  0.27000  Biso   1.000  O
  C29      1.0000 0.50430  0.40450  0.23460  Biso   1.000  C
  C30      1.0000 0.49570  0.59550  0.76540  Biso   1.000  C
  H21      1.0000 0.58490  0.41090  0.27270  Biso   1.000  H
  H22      1.0000 0.41510  0.58910  0.72730  Biso   1.000  H
  H23      1.0000 0.42360  0.34500  0.25490  Biso   1.000  H
  H24      1.0000 0.57640  0.65500  0.74510  Biso   1.000  H
  H25      1.0000 0.50320  0.48190  0.23820  Biso   1.000  H
  H26      1.0000 0.49680  0.51810  0.76180  Biso   1.000  H
  C31      1.0000 0.66060  0.93650  0.09220  Biso   1.000  C
  C32      1.0000 0.33940  0.06350  0.90780  Biso   1.000  C
  H27      1.0000 0.59960  0.95750  0.12160  Biso   1.000  H
  H28      1.0000 0.40040  0.04250  0.87840  Biso   1.000  H
  H29      1.0000 0.73290  0.93920  0.13710  Biso   1.000  H
  H30      1.0000 0.26710  0.06080  0.86290  Biso   1.000  H
  H31      1.0000 0.61020  0.85600  0.06080  Biso   1.000  H
  H32      1.0000 0.38980  0.14400  0.93920  Biso   1.000  H
  C33      1.0000 0.39530  0.35480  0.07570  Biso   1.000  C
  C34      1.0000 0.60470  0.64520  0.92430  Biso   1.000  C
  H33      1.0000 0.40900  0.33000  0.01720  Biso   1.000  H
  H34      1.0000 0.59100  0.67000  0.98280  Biso   1.000  H
  H35      1.0000 0.39160  0.43100  0.07380  Biso   1.000  H
  H36      1.0000 0.60840  0.56900  0.92620  Biso   1.000  H
  H37      1.0000 0.31040  0.29420  0.09060  Biso   1.000  H
  H38      1.0000 0.68960  0.70580  0.90940  Biso   1.000  H
  C35      1.0000 0.81520  0.00620  0.97780  Biso   1.000  C
  C36      1.0000 0.18480  0.99380  0.02220  Biso   1.000  C
  H39      1.0000 0.84720  0.06880  0.93780  Biso   1.000  H
  H40      1.0000 0.15280  0.93120  0.06220  Biso   1.000  H
  H41      1.0000 0.77060  0.92800  0.94250  Biso   1.000  H
  H42      1.0000 0.22940  0.07200  0.05750  Biso   1.000  H
  H43      1.0000 0.89200  0.01130  0.01960  Biso   1.000  H
  H44      1.0000 0.10800  0.98870  0.98040  Biso   1.000  H
  N11      1.0000 0.51400  0.96150  0.67930  Biso   1.000  N
  N12      1.0000 0.48600  0.03850  0.32070  Biso   1.000  N
  O19      1.0000 0.49200  0.89640  0.81480  Biso   1.000  O
  O20      1.0000 0.50800  0.10360  0.18520  Biso   1.000  O
  C37      1.0000 0.56590  0.06230  0.63040  Biso   1.000  C
  C38      1.0000 0.43410  0.93770  0.36960  Biso   1.000  C
  H45      1.0000 0.61860  0.13460  0.67210  Biso   1.000  H
  H46      1.0000 0.38140  0.86540  0.32790  Biso   1.000  H
  H47      1.0000 0.49100  0.06910  0.59490  Biso   1.000  H
  H48      1.0000 0.50900  0.93090  0.40510  Biso   1.000  H
  H49      1.0000 0.62390  0.05250  0.59060  Biso   1.000  H
  H50      1.0000 0.37610  0.94750  0.40940  Biso   1.000  H
  C39      1.0000 0.53580  0.97560  0.76670  Biso   1.000  C
  C40      1.0000 0.46420  0.02440  0.23330  Biso   1.000  C
  H51      1.0000 0.59030  0.05430  0.79500  Biso   1.000  H
  H52      1.0000 0.40970  0.94570  0.20500  Biso   1.000  H
  C41      1.0000 0.43480  0.84660  0.62860  Biso   1.000  C
  C42      1.0000 0.56520  0.15340  0.37140  Biso   1.000  C
  H53      1.0000 0.40520  0.78490  0.66940  Biso   1.000  H
  H54      1.0000 0.59480  0.21510  0.33060  Biso   1.000  H
  H55      1.0000 0.48950  0.83060  0.58920  Biso   1.000  H
  H56      1.0000 0.51050  0.16940  0.41080  Biso   1.000  H
  H57      1.0000 0.35570  0.84620  0.59250  Biso   1.000  H
  H58      1.0000 0.64430  0.15380  0.40750  Biso   1.000  H
  N13      1.0000 0.99290  0.39240  0.59140  Biso   1.000  N
  N14      1.0000 0.00710  0.60760  0.40860  Biso   1.000  N
  O21      1.0000 0.17610  0.53230  0.66910  Biso   1.000  O
  O22      1.0000 0.82390  0.46770  0.33090  Biso   1.000  O
  C43      1.0000 0.06170  0.47580  0.66340  Biso   1.000  C
  C44      1.0000 0.93830  0.52420  0.33660  Biso   1.000  C
  H59      1.0000 0.01510  0.48680  0.70840  Biso   1.000  H
  H60      1.0000 0.98490  0.51320  0.29160  Biso   1.000  H
  C45      1.0000 0.98450  0.32070  0.52390  Biso   1.000  C
  C46      1.0000 0.01550  0.67930  0.47610  Biso   1.000  C
  H61      1.0000 0.07540  0.33530  0.51460  Biso   1.000  H
  H62      1.0000 0.92460  0.66470  0.48540  Biso   1.000  H
  H63      1.0000 0.93810  0.33490  0.47010  Biso   1.000  H
  H64      1.0000 0.06190  0.66510  0.52990  Biso   1.000  H
  H65      1.0000 0.93380  0.23790  0.53620  Biso   1.000  H
  H66      1.0000 0.06620  0.76210  0.46380  Biso   1.000  H
  C47      1.0000 0.85830  0.36830  0.60210  Biso   1.000  C
  C48      1.0000 0.14170  0.63170  0.39790  Biso   1.000  C
  H67      1.0000 0.79440  0.30970  0.55330  Biso   1.000  H
  H68      1.0000 0.20560  0.69030  0.44670  Biso   1.000  H
  H69      1.0000 0.84920  0.44220  0.60080  Biso   1.000  H
  H70      1.0000 0.15080  0.55780  0.39920  Biso   1.000  H
  H71      1.0000 0.83900  0.33650  0.65930  Biso   1.000  H
  H72      1.0000 0.16100  0.66350  0.34070  Biso   1.000  H
  O23      1.0000 0.50000  0.50000  0.50000  Biso   1.000  O
