data_image0
_cell_length_a       11.1874
_cell_length_b       12.6
_cell_length_c       15.1798
_cell_angle_alpha    92.528
_cell_angle_beta     96.837
_cell_angle_gamma    116.289

_symmetry_space_group_name_H-M    "P 1"
_symmetry_int_tables_number       1

loop_
  _symmetry_equiv_pos_as_xyz
  'x, y, z'

loop_
  _atom_site_label
  _atom_site_occupancy
  _atom_site_fract_x
  _atom_site_fract_y
  _atom_site_fract_z
  _atom_site_thermal_displace_type
  _atom_site_B_iso_or_equiv
  _atom_site_type_symbol
  Eu1      1.0000 0.29357  0.88928  0.96388  Biso   1.000  Eu
  Eu2      1.0000 0.70643  0.11072  0.03612  Biso   1.000  Eu
  I1       1.0000 0.27501  0.42813  0.49164  Biso   1.000  I
  I2       1.0000 0.72499  0.57187  0.50836  Biso   1.000  I
  Cu1      1.0000 0.51306  0.49833  0.58882  Biso   1.000  Cu
  Cu2      1.0000 0.48694  0.50167  0.41118  Biso   1.000  Cu
  O1       1.0000 0.38280  0.04930  0.87390  Biso   1.000  O
  O2       1.0000 0.61720  0.95070  0.12610  Biso   1.000  O
  O3       1.0000 0.60890  0.13550  0.89630  Biso   1.000  O
  O4       1.0000 0.39110  0.86450  0.10370  Biso   1.000  O
  O5       1.0000 0.48920  0.88420  0.93040  Biso   1.000  O
  O6       1.0000 0.51080  0.11580  0.06960  Biso   1.000  O
  O7       1.0000 0.70880  0.94650  0.94830  Biso   1.000  O
  O8       1.0000 0.29120  0.05350  0.05170  Biso   1.000  O
  O9       1.0000 0.22890  0.67830  0.95580  Biso   1.000  O
  O10      1.0000 0.77110  0.32170  0.04420  Biso   1.000  O
  O11      1.0000 0.10760  0.81160  0.04490  Biso   1.000  O
  O12      1.0000 0.89240  0.18840  0.95510  Biso   1.000  O
  N1       1.0000 0.50430  0.36050  0.66220  Biso   1.000  N
  N2       1.0000 0.49570  0.63950  0.33780  Biso   1.000  N
  O13      1.0000 0.08610  0.87190  0.86690  Biso   1.000  O
  O14      1.0000 0.91390  0.12810  0.13310  Biso   1.000  O
  N3       1.0000 0.54300  0.62780  0.69080  Biso   1.000  N
  N4       1.0000 0.45700  0.37220  0.30920  Biso   1.000  N
  O15      1.0000 0.19870  0.79960  0.80490  Biso   1.000  O
  O16      1.0000 0.80130  0.20040  0.19510  Biso   1.000  O
  C1       1.0000 0.49890  0.20290  0.78750  Biso   1.000  C
  C2       1.0000 0.50110  0.79710  0.21250  Biso   1.000  C
  N5       1.0000 0.00640  0.86800  0.14380  Biso   1.000  N
  N6       1.0000 0.99360  0.13200  0.85620  Biso   1.000  N
  C3       1.0000 0.61870  0.28170  0.76230  Biso   1.000  C
  C4       1.0000 0.38130  0.71830  0.23770  Biso   1.000  C
  H1       1.0000 0.70150  0.28330  0.78730  Biso   1.000  H
  H2       1.0000 0.29850  0.71670  0.21270  Biso   1.000  H
  C5       1.0000 0.59200  0.87910  0.91000  Biso   1.000  C
  C6       1.0000 0.40800  0.12090  0.09000  Biso   1.000  C
  C7       1.0000 0.49650  0.12140  0.85800  Biso   1.000  C
  C8       1.0000 0.50350  0.87860  0.14200  Biso   1.000  C
  N7       1.0000 0.09970  0.82320  0.79880  Biso   1.000  N
  N8       1.0000 0.90030  0.17680  0.20120  Biso   1.000  N
  C9       1.0000 0.57470  0.78870  0.83480  Biso   1.000  C
  C10      1.0000 0.42530  0.21130  0.16520  Biso   1.000  C
  C11      1.0000 0.38170  0.20130  0.74590  Biso   1.000  C
  C12      1.0000 0.61830  0.79870  0.25410  Biso   1.000  C
  H3       1.0000 0.29670  0.14580  0.75910  Biso   1.000  H
  H4       1.0000 0.70330  0.85420  0.24090  Biso   1.000  H
  C13      1.0000 0.68570  0.78660  0.80440  Biso   1.000  C
  C14      1.0000 0.31430  0.21340  0.19560  Biso   1.000  C
  H5       1.0000 0.77460  0.83960  0.83250  Biso   1.000  H
  H6       1.0000 0.22540  0.16040  0.16750  Biso   1.000  H
  C15      1.0000 0.44780  0.70720  0.79250  Biso   1.000  C
  C16      1.0000 0.55220  0.29280  0.20750  Biso   1.000  C
  H7       1.0000 0.36930  0.70540  0.81180  Biso   1.000  H
  H8       1.0000 0.63070  0.29460  0.18820  Biso   1.000  H
  C17      1.0000 0.66440  0.70560  0.73190  Biso   1.000  C
  C18      1.0000 0.33560  0.29440  0.26810  Biso   1.000  C
  H9       1.0000 0.74110  0.70600  0.71070  Biso   1.000  H
  H10      1.0000 0.25890  0.29400  0.28930  Biso   1.000  H
  C19      1.0000 0.61680  0.35830  0.70020  Biso   1.000  C
  C20      1.0000 0.38320  0.64170  0.29980  Biso   1.000  C
  H11      1.0000 0.70020  0.41230  0.68380  Biso   1.000  H
  H12      1.0000 0.29980  0.58770  0.31620  Biso   1.000  H
  C21      1.0000 0.43650  0.62930  0.72260  Biso   1.000  C
  C22      1.0000 0.56350  0.37070  0.27740  Biso   1.000  C
  H13      1.0000 0.34860  0.57310  0.69500  Biso   1.000  H
  H14      1.0000 0.65140  0.42690  0.30500  Biso   1.000  H
  N9       1.0000 0.21940  0.52080  0.02690  Biso   1.000  N
  N10      1.0000 0.78060  0.47920  0.97310  Biso   1.000  N
  C23      1.0000 0.10350  0.84580  0.12160  Biso   1.000  C
  C24      1.0000 0.89650  0.15420  0.87840  Biso   1.000  C
  H15      1.0000 0.17500  0.85670  0.16730  Biso   1.000  H
  H16      1.0000 0.82500  0.14330  0.83270  Biso   1.000  H
  C25      1.0000 0.38890  0.28090  0.68490  Biso   1.000  C
  C26      1.0000 0.61110  0.71910  0.31510  Biso   1.000  C
  H17      1.0000 0.30700  0.27900  0.65750  Biso   1.000  H
  H18      1.0000 0.69300  0.72100  0.34250  Biso   1.000  H
  C27      1.0000 0.18740  0.60760  0.01220  Biso   1.000  C
  C28      1.0000 0.81260  0.39240  0.98780  Biso   1.000  C
  H19      1.0000 0.12770  0.61710  0.04780  Biso   1.000  H
  H20      1.0000 0.87230  0.38290  0.95220  Biso   1.000  H
  O17      1.0000 0.02060  0.79700  0.73010  Biso   1.000  O
  O18      1.0000 0.97940  0.20300  0.26990  Biso   1.000  O
  C29      1.0000 0.00460  0.90460  0.23560  Biso   1.000  C
  C30      1.0000 0.99540  0.09540  0.76440  Biso   1.000  C
  H21      1.0000 0.08510  0.91090  0.27370  Biso   1.000  H
  H22      1.0000 0.91490  0.08910  0.72630  Biso   1.000  H
  H23      1.0000 0.92360  0.84550  0.25600  Biso   1.000  H
  H24      1.0000 0.07640  0.15450  0.74400  Biso   1.000  H
  H25      1.0000 0.00380  0.98220  0.23900  Biso   1.000  H
  H26      1.0000 0.99620  0.01780  0.76100  Biso   1.000  H
  C31      1.0000 0.16100  0.43590  0.09170  Biso   1.000  C
  C32      1.0000 0.83900  0.56410  0.90830  Biso   1.000  C
  H27      1.0000 0.10090  0.45760  0.12180  Biso   1.000  H
  H28      1.0000 0.89910  0.54240  0.87820  Biso   1.000  H
  H29      1.0000 0.23360  0.43810  0.13590  Biso   1.000  H
  H30      1.0000 0.76640  0.56190  0.86410  Biso   1.000  H
  H31      1.0000 0.10950  0.35540  0.06040  Biso   1.000  H
  H32      1.0000 0.89050  0.64460  0.93960  Biso   1.000  H
  C33      1.0000 0.89600  0.85570  0.07740  Biso   1.000  C
  C34      1.0000 0.10400  0.14430  0.92260  Biso   1.000  C
  H33      1.0000 0.90900  0.83090  0.01870  Biso   1.000  H
  H34      1.0000 0.09100  0.16910  0.98130  Biso   1.000  H
  H35      1.0000 0.89320  0.93230  0.07610  Biso   1.000  H
  H36      1.0000 0.10680  0.06770  0.92390  Biso   1.000  H
  H37      1.0000 0.81090  0.79570  0.09240  Biso   1.000  H
  H38      1.0000 0.18910  0.20430  0.90760  Biso   1.000  H
  C35      1.0000 0.31520  0.50530  0.97600  Biso   1.000  C
  C36      1.0000 0.68480  0.49470  0.02400  Biso   1.000  C
  H39      1.0000 0.34710  0.56810  0.93640  Biso   1.000  H
  H40      1.0000 0.65290  0.43190  0.06360  Biso   1.000  H
  H41      1.0000 0.27040  0.42740  0.94040  Biso   1.000  H
  H42      1.0000 0.72960  0.57260  0.05960  Biso   1.000  H
  H43      1.0000 0.39210  0.51000  0.01740  Biso   1.000  H
  H44      1.0000 0.60790  0.49000  0.98260  Biso   1.000  H
  N11      1.0000 0.98700  0.53850  0.32100  Biso   1.000  N
  N12      1.0000 0.01300  0.46150  0.67900  Biso   1.000  N
  C37      1.0000 0.93480  0.43860  0.36930  Biso   1.000  C
  C38      1.0000 0.06520  0.56140  0.63070  Biso   1.000  C
  H45      1.0000 0.88350  0.36630  0.32760  Biso   1.000  H
  H46      1.0000 0.11650  0.63370  0.67240  Biso   1.000  H
  H47      1.0000 0.87540  0.44790  0.40820  Biso   1.000  H
  H48      1.0000 0.12460  0.55210  0.59180  Biso   1.000  H
  H49      1.0000 0.00940  0.43230  0.40570  Biso   1.000  H
  H50      1.0000 0.99060  0.56770  0.59430  Biso   1.000  H
  O19      1.0000 0.01070  0.60290  0.18540  Biso   1.000  O
  O20      1.0000 0.98930  0.39710  0.81460  Biso   1.000  O
  C39      1.0000 0.96540  0.52460  0.23430  Biso   1.000  C
  C40      1.0000 0.03460  0.47540  0.76570  Biso   1.000  C
  H51      1.0000 0.90920  0.44610  0.20630  Biso   1.000  H
  H52      1.0000 0.09080  0.55390  0.79370  Biso   1.000  H
  C41      1.0000 0.06450  0.65310  0.37130  Biso   1.000  C
  C42      1.0000 0.93550  0.34690  0.62870  Biso   1.000  C
  H53      1.0000 0.09500  0.71440  0.33040  Biso   1.000  H
  H54      1.0000 0.90500  0.28560  0.66960  Biso   1.000  H
  H55      1.0000 0.14300  0.65400  0.40840  Biso   1.000  H
  H56      1.0000 0.85700  0.34600  0.59160  Biso   1.000  H
  H57      1.0000 0.00850  0.66910  0.40970  Biso   1.000  H
  H58      1.0000 0.99150  0.33090  0.59030  Biso   1.000  H
  N13      1.0000 0.51000  0.10650  0.40710  Biso   1.000  N
  N14      1.0000 0.49000  0.89350  0.59290  Biso   1.000  N
  O21      1.0000 0.34600  0.96420  0.31630  Biso   1.000  O
  O22      1.0000 0.65400  0.03580  0.68370  Biso   1.000  O
  C43      1.0000 0.37600  0.03790  0.37480  Biso   1.000  C
  C44      1.0000 0.62400  0.96210  0.62520  Biso   1.000  C
  H59      1.0000 0.30880  0.05050  0.39980  Biso   1.000  H
  H60      1.0000 0.69120  0.94950  0.60020  Biso   1.000  H
  C45      1.0000 0.52150  0.18340  0.47750  Biso   1.000  C
  C46      1.0000 0.47850  0.81660  0.52250  Biso   1.000  C
  H61      1.0000 0.61660  0.22810  0.50450  Biso   1.000  H
  H62      1.0000 0.38340  0.77190  0.49550  Biso   1.000  H
  H63      1.0000 0.46860  0.13850  0.52200  Biso   1.000  H
  H64      1.0000 0.53140  0.86150  0.47800  Biso   1.000  H
  H65      1.0000 0.48780  0.23900  0.45650  Biso   1.000  H
  H66      1.0000 0.51220  0.76100  0.54350  Biso   1.000  H
  C47      1.0000 0.63400  0.12800  0.39720  Biso   1.000  C
  C48      1.0000 0.36600  0.87200  0.60280  Biso   1.000  C
  H67      1.0000 0.63110  0.07270  0.34840  Biso   1.000  H
  H68      1.0000 0.36890  0.92730  0.65160  Biso   1.000  H
  H69      1.0000 0.68030  0.11720  0.45260  Biso   1.000  H
  H70      1.0000 0.31970  0.88280  0.54740  Biso   1.000  H
  H71      1.0000 0.68370  0.21000  0.38310  Biso   1.000  H
  H72      1.0000 0.31630  0.79000  0.61690  Biso   1.000  H
  O23      1.0000 0.00000  0.00000  0.50000  Biso   1.000  O
