data_image0
_cell_length_a       11.1943
_cell_length_b       12.4986
_cell_length_c       15.077
_cell_angle_alpha    91.996
_cell_angle_beta     97.522
_cell_angle_gamma    116.512

_symmetry_space_group_name_H-M    "P 1"
_symmetry_int_tables_number       1

loop_
  _symmetry_equiv_pos_as_xyz
  'x, y, z'

loop_
  _atom_site_label
  _atom_site_occupancy
  _atom_site_fract_x
  _atom_site_fract_y
  _atom_site_fract_z
  _atom_site_thermal_displace_type
  _atom_site_B_iso_or_equiv
  _atom_site_type_symbol
  Yb1      1.0000 0.29175  0.38703  0.46392  Biso   1.000  Yb
  Yb2      1.0000 0.70825  0.61297  0.53608  Biso   1.000  Yb
  I1       1.0000 0.72505  0.07297  0.00956  Biso   1.000  I
  I2       1.0000 0.27495  0.92703  0.99044  Biso   1.000  I
  Cu1      1.0000 0.51411  0.99806  0.08977  Biso   1.000  Cu
  Cu2      1.0000 0.48589  0.00194  0.91023  Biso   1.000  Cu
  O1       1.0000 0.38110  0.54310  0.37730  Biso   1.000  O
  O2       1.0000 0.61890  0.45690  0.62270  Biso   1.000  O
  O3       1.0000 0.47170  0.37310  0.42780  Biso   1.000  O
  O4       1.0000 0.52830  0.62690  0.57220  Biso   1.000  O
  O5       1.0000 0.69490  0.44870  0.45040  Biso   1.000  O
  O6       1.0000 0.30510  0.55130  0.54960  Biso   1.000  O
  O7       1.0000 0.60830  0.62970  0.39970  Biso   1.000  O
  O8       1.0000 0.39170  0.37030  0.60030  Biso   1.000  O
  O9       1.0000 0.22530  0.18120  0.45870  Biso   1.000  O
  O10      1.0000 0.77470  0.81880  0.54130  Biso   1.000  O
  O11      1.0000 0.11190  0.31600  0.54150  Biso   1.000  O
  O12      1.0000 0.88810  0.68400  0.45850  Biso   1.000  O
  N1       1.0000 0.50360  0.85780  0.16410  Biso   1.000  N
  N2       1.0000 0.49640  0.14220  0.83590  Biso   1.000  N
  O13      1.0000 0.09440  0.38120  0.37030  Biso   1.000  O
  O14      1.0000 0.90560  0.61880  0.62970  Biso   1.000  O
  O15      1.0000 0.19850  0.29870  0.30940  Biso   1.000  O
  O16      1.0000 0.80150  0.70130  0.69060  Biso   1.000  O
  N3       1.0000 0.54270  0.12680  0.19270  Biso   1.000  N
  N4       1.0000 0.45730  0.87320  0.80730  Biso   1.000  N
  C1       1.0000 0.49740  0.69840  0.28980  Biso   1.000  C
  C2       1.0000 0.50260  0.30160  0.71020  Biso   1.000  C
  C3       1.0000 0.57920  0.37580  0.41080  Biso   1.000  C
  C4       1.0000 0.42080  0.62420  0.58920  Biso   1.000  C
  N5       1.0000 0.00750  0.36950  0.63900  Biso   1.000  N
  N6       1.0000 0.99250  0.63050  0.36100  Biso   1.000  N
  C5       1.0000 0.61720  0.77580  0.26290  Biso   1.000  C
  C6       1.0000 0.38280  0.22420  0.73710  Biso   1.000  C
  H1       1.0000 0.69980  0.77590  0.28740  Biso   1.000  H
  H2       1.0000 0.30020  0.22410  0.71260  Biso   1.000  H
  C7       1.0000 0.56810  0.28620  0.33610  Biso   1.000  C
  C8       1.0000 0.43190  0.71380  0.66390  Biso   1.000  C
  C9       1.0000 0.49550  0.61600  0.36160  Biso   1.000  C
  C10      1.0000 0.50450  0.38400  0.63840  Biso   1.000  C
  N7       1.0000 0.10140  0.32660  0.30240  Biso   1.000  N
  N8       1.0000 0.89860  0.67340  0.69760  Biso   1.000  N
  C11      1.0000 0.38200  0.69990  0.25010  Biso   1.000  C
  C12      1.0000 0.61800  0.30010  0.74990  Biso   1.000  C
  H3       1.0000 0.29730  0.64600  0.26520  Biso   1.000  H
  H4       1.0000 0.70270  0.35400  0.73480  Biso   1.000  H
  C13      1.0000 0.44220  0.20200  0.29320  Biso   1.000  C
  C14      1.0000 0.55780  0.79800  0.70680  Biso   1.000  C
  H5       1.0000 0.36230  0.19770  0.31160  Biso   1.000  H
  H6       1.0000 0.63770  0.80230  0.68840  Biso   1.000  H
  C15      1.0000 0.68070  0.28910  0.30660  Biso   1.000  C
  C16      1.0000 0.31930  0.71090  0.69340  Biso   1.000  C
  H7       1.0000 0.76900  0.34540  0.33510  Biso   1.000  H
  H8       1.0000 0.23100  0.65460  0.66490  Biso   1.000  H
  C17      1.0000 0.66280  0.20840  0.23460  Biso   1.000  C
  C18      1.0000 0.33720  0.79160  0.76540  Biso   1.000  C
  H9       1.0000 0.74100  0.21180  0.21420  Biso   1.000  H
  H10      1.0000 0.25900  0.78820  0.78580  Biso   1.000  H
  N9       1.0000 0.21730  0.02330  0.53180  Biso   1.000  N
  N10      1.0000 0.78270  0.97670  0.46820  Biso   1.000  N
  C19      1.0000 0.61560  0.85280  0.20050  Biso   1.000  C
  C20      1.0000 0.38440  0.14720  0.79950  Biso   1.000  C
  H11      1.0000 0.69860  0.90510  0.18240  Biso   1.000  H
  H12      1.0000 0.30140  0.09490  0.81760  Biso   1.000  H
  C21      1.0000 0.43430  0.12410  0.22310  Biso   1.000  C
  C22      1.0000 0.56570  0.87590  0.77690  Biso   1.000  C
  H13      1.0000 0.34720  0.06540  0.19470  Biso   1.000  H
  H14      1.0000 0.65280  0.93460  0.80530  Biso   1.000  H
  C23      1.0000 0.18380  0.11050  0.51540  Biso   1.000  C
  C24      1.0000 0.81620  0.88950  0.48460  Biso   1.000  C
  H15      1.0000 0.12310  0.11930  0.55010  Biso   1.000  H
  H16      1.0000 0.87690  0.88070  0.44990  Biso   1.000  H
  C25      1.0000 0.10730  0.35170  0.61820  Biso   1.000  C
  C26      1.0000 0.89270  0.64830  0.38180  Biso   1.000  C
  H17      1.0000 0.18080  0.36700  0.66460  Biso   1.000  H
  H18      1.0000 0.81920  0.63300  0.33540  Biso   1.000  H
  C27      1.0000 0.38760  0.77930  0.18820  Biso   1.000  C
  C28      1.0000 0.61240  0.22070  0.81180  Biso   1.000  C
  H19      1.0000 0.30560  0.77850  0.16120  Biso   1.000  H
  H20      1.0000 0.69440  0.22150  0.83880  Biso   1.000  H
  O17      1.0000 0.02340  0.30190  0.23230  Biso   1.000  O
  O18      1.0000 0.97660  0.69810  0.76770  Biso   1.000  O
  C29      1.0000 0.00480  0.40460  0.73170  Biso   1.000  C
  C30      1.0000 0.99520  0.59540  0.26830  Biso   1.000  C
  H21      1.0000 0.08770  0.41500  0.77010  Biso   1.000  H
  H22      1.0000 0.91230  0.58500  0.22990  Biso   1.000  H
  H23      1.0000 0.92610  0.34190  0.75230  Biso   1.000  H
  H24      1.0000 0.07390  0.65810  0.24770  Biso   1.000  H
  H25      1.0000 0.99880  0.48040  0.73490  Biso   1.000  H
  H26      1.0000 0.00120  0.51960  0.26510  Biso   1.000  H
  C31      1.0000 0.15820  0.93790  0.59640  Biso   1.000  C
  C32      1.0000 0.84180  0.06210  0.40360  Biso   1.000  C
  H27      1.0000 0.09660  0.95880  0.62500  Biso   1.000  H
  H28      1.0000 0.90340  0.04120  0.37500  Biso   1.000  H
  H29      1.0000 0.23050  0.94110  0.64250  Biso   1.000  H
  H30      1.0000 0.76950  0.05890  0.35750  Biso   1.000  H
  H31      1.0000 0.10790  0.85650  0.56510  Biso   1.000  H
  H32      1.0000 0.89210  0.14350  0.43490  Biso   1.000  H
  C33      1.0000 0.89220  0.34940  0.57140  Biso   1.000  C
  C34      1.0000 0.10780  0.65060  0.42860  Biso   1.000  C
  H33      1.0000 0.90650  0.32590  0.51250  Biso   1.000  H
  H34      1.0000 0.09350  0.67410  0.48750  Biso   1.000  H
  H35      1.0000 0.88270  0.42350  0.56900  Biso   1.000  H
  H36      1.0000 0.11730  0.57650  0.43100  Biso   1.000  H
  H37      1.0000 0.80980  0.28520  0.58710  Biso   1.000  H
  H38      1.0000 0.19020  0.71480  0.41290  Biso   1.000  H
  C35      1.0000 0.31210  0.00830  0.48210  Biso   1.000  C
  C36      1.0000 0.68790  0.99170  0.51790  Biso   1.000  C
  H39      1.0000 0.34380  0.07170  0.44180  Biso   1.000  H
  H40      1.0000 0.65620  0.92830  0.55820  Biso   1.000  H
  H41      1.0000 0.26720  0.92950  0.44650  Biso   1.000  H
  H42      1.0000 0.73280  0.07050  0.55350  Biso   1.000  H
  H43      1.0000 0.38940  0.01360  0.52430  Biso   1.000  H
  H44      1.0000 0.61060  0.98640  0.47570  Biso   1.000  H
  N11      1.0000 0.98590  0.03980  0.82060  Biso   1.000  N
  N12      1.0000 0.01410  0.96020  0.17940  Biso   1.000  N
  O19      1.0000 0.00220  0.10810  0.68450  Biso   1.000  O
  O20      1.0000 0.99780  0.89190  0.31550  Biso   1.000  O
  C37      1.0000 0.96200  0.02760  0.73270  Biso   1.000  C
  C38      1.0000 0.03800  0.97240  0.26730  Biso   1.000  C
  H45      1.0000 0.90820  0.94840  0.70380  Biso   1.000  H
  H46      1.0000 0.09180  0.05160  0.29620  Biso   1.000  H
  C39      1.0000 0.93330  0.93630  0.86910  Biso   1.000  C
  C40      1.0000 0.06670  0.06370  0.13090  Biso   1.000  C
  H47      1.0000 0.88020  0.86410  0.82650  Biso   1.000  H
  H48      1.0000 0.11980  0.13590  0.17350  Biso   1.000  H
  H49      1.0000 0.87540  0.94520  0.90920  Biso   1.000  H
  H50      1.0000 0.12460  0.05480  0.09080  Biso   1.000  H
  H51      1.0000 0.00840  0.92880  0.90480  Biso   1.000  H
  H52      1.0000 0.99160  0.07120  0.09520  Biso   1.000  H
  C41      1.0000 0.06700  0.15470  0.87270  Biso   1.000  C
  C42      1.0000 0.93300  0.84530  0.12730  Biso   1.000  C
  H53      1.0000 0.09730  0.21790  0.83220  Biso   1.000  H
  H54      1.0000 0.90270  0.78210  0.16780  Biso   1.000  H
  H55      1.0000 0.14600  0.15390  0.90880  Biso   1.000  H
  H56      1.0000 0.85400  0.84610  0.09120  Biso   1.000  H
  H57      1.0000 0.01300  0.17050  0.91260  Biso   1.000  H
  H58      1.0000 0.98700  0.82950  0.08740  Biso   1.000  H
  N13      1.0000 0.49350  0.39170  0.09180  Biso   1.000  N
  N14      1.0000 0.50650  0.60830  0.90820  Biso   1.000  N
  O21      1.0000 0.67740  0.53370  0.17050  Biso   1.000  O
  O22      1.0000 0.32260  0.46630  0.82950  Biso   1.000  O
  C43      1.0000 0.56260  0.47590  0.16500  Biso   1.000  C
  C44      1.0000 0.43740  0.52410  0.83500  Biso   1.000  C
  H59      1.0000 0.51600  0.48610  0.21030  Biso   1.000  H
  H60      1.0000 0.48400  0.51390  0.78970  Biso   1.000  H
  C45      1.0000 0.47980  0.31760  0.02450  Biso   1.000  C
  C46      1.0000 0.52020  0.68240  0.97550  Biso   1.000  C
  H61      1.0000 0.56930  0.32930  0.01420  Biso   1.000  H
  H62      1.0000 0.43070  0.67070  0.98580  Biso   1.000  H
  H63      1.0000 0.43290  0.33260  0.97050  Biso   1.000  H
  H64      1.0000 0.56710  0.66740  0.02950  Biso   1.000  H
  H65      1.0000 0.42690  0.23480  0.03790  Biso   1.000  H
  H66      1.0000 0.57310  0.76520  0.96210  Biso   1.000  H
  C47      1.0000 0.35600  0.36700  0.10440  Biso   1.000  C
  C48      1.0000 0.64400  0.63300  0.89560  Biso   1.000  C
  H67      1.0000 0.29010  0.30710  0.05620  Biso   1.000  H
  H68      1.0000 0.70990  0.69290  0.94380  Biso   1.000  H
  H69      1.0000 0.34690  0.44140  0.10260  Biso   1.000  H
  H70      1.0000 0.65310  0.55860  0.89740  Biso   1.000  H
  H71      1.0000 0.33900  0.33620  0.16270  Biso   1.000  H
  H72      1.0000 0.66100  0.66380  0.83730  Biso   1.000  H
  O23      1.0000 0.00000  0.50000  0.00000  Biso   1.000  O
