data_image0
_cell_length_a       8.578
_cell_length_b       15.596
_cell_length_c       15.657
_cell_angle_alpha    90
_cell_angle_beta     101.29
_cell_angle_gamma    90

_symmetry_space_group_name_H-M    "P 1"
_symmetry_int_tables_number       1

loop_
  _symmetry_equiv_pos_as_xyz
  'x, y, z'

loop_
  _atom_site_label
  _atom_site_occupancy
  _atom_site_fract_x
  _atom_site_fract_y
  _atom_site_fract_z
  _atom_site_thermal_displace_type
  _atom_site_B_iso_or_equiv
  _atom_site_type_symbol
  Cu1      1.0000 0.43300  0.33870  0.52550  Biso   1.000  Cu
  Cu2      1.0000 0.56700  0.83870  0.97450  Biso   1.000  Cu
  Cu3      1.0000 0.56700  0.66130  0.47450  Biso   1.000  Cu
  Cu4      1.0000 0.43300  0.16130  0.02550  Biso   1.000  Cu
  Cu5      1.0000 0.34670  0.85400  0.48620  Biso   1.000  Cu
  Cu6      1.0000 0.65330  0.35400  0.01380  Biso   1.000  Cu
  Cu7      1.0000 0.65330  0.14600  0.51380  Biso   1.000  Cu
  Cu8      1.0000 0.34670  0.64600  0.98620  Biso   1.000  Cu
  O1       1.0000 0.60070  0.42280  0.57240  Biso   1.000  O
  O2       1.0000 0.39930  0.92280  0.92760  Biso   1.000  O
  O3       1.0000 0.39930  0.57720  0.42760  Biso   1.000  O
  O4       1.0000 0.60070  0.07720  0.07240  Biso   1.000  O
  O5       1.0000 0.48470  0.75120  0.88640  Biso   1.000  O
  O6       1.0000 0.51530  0.25120  0.61360  Biso   1.000  O
  O7       1.0000 0.51530  0.24880  0.11360  Biso   1.000  O
  O8       1.0000 0.48470  0.74880  0.38640  Biso   1.000  O
  O9       1.0000 0.60160  0.80050  0.78170  Biso   1.000  O
  O10      1.0000 0.39840  0.30050  0.71830  Biso   1.000  O
  O11      1.0000 0.39840  0.19950  0.21830  Biso   1.000  O
  O12      1.0000 0.60160  0.69950  0.28170  Biso   1.000  O
  O13      1.0000 0.27570  0.80880  0.64400  Biso   1.000  O
  O14      1.0000 0.72430  0.30880  0.85600  Biso   1.000  O
  O15      1.0000 0.72430  0.19120  0.35600  Biso   1.000  O
  O16      1.0000 0.27570  0.69120  0.14400  Biso   1.000  O
  O17      1.0000 0.39490  0.74520  0.54870  Biso   1.000  O
  O18      1.0000 0.60510  0.24520  0.95130  Biso   1.000  O
  O19      1.0000 0.60510  0.25480  0.45130  Biso   1.000  O
  O20      1.0000 0.39490  0.75480  0.04870  Biso   1.000  O
  O21      1.0000 0.56180  0.89700  0.53840  Biso   1.000  O
  O22      1.0000 0.43820  0.39700  0.96160  Biso   1.000  O
  O23      1.0000 0.43820  0.10300  0.46160  Biso   1.000  O
  O24      1.0000 0.56180  0.60300  0.03840  Biso   1.000  O
  N1       1.0000 0.65730  0.56530  0.54830  Biso   1.000  N
  N2       1.0000 0.34270  0.06530  0.95170  Biso   1.000  N
  N3       1.0000 0.34270  0.43470  0.45170  Biso   1.000  N
  N4       1.0000 0.65730  0.93470  0.04830  Biso   1.000  N
  N5       1.0000 0.74790  0.74010  0.51790  Biso   1.000  N
  N6       1.0000 0.25210  0.24010  0.98210  Biso   1.000  N
  N7       1.0000 0.25210  0.25990  0.48210  Biso   1.000  N
  N8       1.0000 0.74790  0.75990  0.01790  Biso   1.000  N
  N9       1.0000 0.69450  0.02660  0.54850  Biso   1.000  N
  N10      1.0000 0.30550  0.52660  0.95150  Biso   1.000  N
  N11      1.0000 0.30550  0.97340  0.45150  Biso   1.000  N
  N12      1.0000 0.69450  0.47340  0.04850  Biso   1.000  N
  N13      1.0000 0.15090  0.80870  0.41330  Biso   1.000  N
  N14      1.0000 0.84910  0.30870  0.08670  Biso   1.000  N
  N15      1.0000 0.84910  0.19130  0.58670  Biso   1.000  N
  N16      1.0000 0.15090  0.69130  0.91330  Biso   1.000  N
  C1       1.0000 0.57360  0.49600  0.53510  Biso   1.000  C
  C2       1.0000 0.42640  0.99600  0.96490  Biso   1.000  C
  C3       1.0000 0.42640  0.50400  0.46490  Biso   1.000  C
  C4       1.0000 0.57360  0.00400  0.03510  Biso   1.000  C
  C5       1.0000 0.80020  0.56460  0.61730  Biso   1.000  C
  C6       1.0000 0.19980  0.06460  0.88270  Biso   1.000  C
  C7       1.0000 0.19980  0.43540  0.38270  Biso   1.000  C
  C8       1.0000 0.80020  0.93540  0.11730  Biso   1.000  C
  C9       1.0000 0.91340  0.63500  0.60850  Biso   1.000  C
  C10      1.0000 0.08660  0.13500  0.89150  Biso   1.000  C
  C11      1.0000 0.08660  0.36500  0.39150  Biso   1.000  C
  C12      1.0000 0.91340  0.86500  0.10850  Biso   1.000  C
  C13      1.0000 0.85120  0.72190  0.60320  Biso   1.000  C
  C14      1.0000 0.14880  0.22190  0.89680  Biso   1.000  C
  C15      1.0000 0.14880  0.27810  0.39680  Biso   1.000  C
  C16      1.0000 0.85120  0.77810  0.10320  Biso   1.000  C
  C17      1.0000 0.52290  0.74710  0.81200  Biso   1.000  C
  C18      1.0000 0.47710  0.24710  0.68800  Biso   1.000  C
  C19      1.0000 0.47710  0.25290  0.18800  Biso   1.000  C
  C20      1.0000 0.52290  0.75290  0.31200  Biso   1.000  C
  C21      1.0000 0.46650  0.66730  0.76140  Biso   1.000  C
  C22      1.0000 0.53350  0.16730  0.73860  Biso   1.000  C
  C23      1.0000 0.53350  0.33270  0.23860  Biso   1.000  C
  C24      1.0000 0.46650  0.83270  0.26140  Biso   1.000  C
  C25      1.0000 0.50590  0.58870  0.80210  Biso   1.000  C
  C26      1.0000 0.49410  0.08870  0.69790  Biso   1.000  C
  C27      1.0000 0.49410  0.41130  0.19790  Biso   1.000  C
  C28      1.0000 0.50590  0.91130  0.30210  Biso   1.000  C
  C29      1.0000 0.45500  0.51220  0.76160  Biso   1.000  C
  C30      1.0000 0.54500  0.01220  0.73840  Biso   1.000  C
  C31      1.0000 0.54500  0.48780  0.23840  Biso   1.000  C
  C32      1.0000 0.45500  0.98780  0.26160  Biso   1.000  C
  C33      1.0000 0.36180  0.51370  0.67980  Biso   1.000  C
  C34      1.0000 0.63820  0.01370  0.82020  Biso   1.000  C
  C35      1.0000 0.63820  0.48630  0.32020  Biso   1.000  C
  C36      1.0000 0.36180  0.98630  0.17980  Biso   1.000  C
  C37      1.0000 0.33080  0.59000  0.63720  Biso   1.000  C
  C38      1.0000 0.66920  0.09000  0.86280  Biso   1.000  C
  C39      1.0000 0.66920  0.41000  0.36280  Biso   1.000  C
  C40      1.0000 0.33080  0.91000  0.13720  Biso   1.000  C
  C41      1.0000 0.38360  0.66770  0.67560  Biso   1.000  C
  C42      1.0000 0.61640  0.16770  0.82440  Biso   1.000  C
  C43      1.0000 0.61640  0.33230  0.32440  Biso   1.000  C
  C44      1.0000 0.38360  0.83230  0.17560  Biso   1.000  C
  C45      1.0000 0.34900  0.74770  0.62210  Biso   1.000  C
  C46      1.0000 0.65100  0.24770  0.87790  Biso   1.000  C
  C47      1.0000 0.65100  0.25230  0.37790  Biso   1.000  C
  C48      1.0000 0.34900  0.75230  0.12210  Biso   1.000  C
  C49      1.0000 0.57300  0.97780  0.52490  Biso   1.000  C
  C50      1.0000 0.42700  0.47780  0.97510  Biso   1.000  C
  C51      1.0000 0.42700  0.02220  0.47510  Biso   1.000  C
  C52      1.0000 0.57300  0.52220  0.02490  Biso   1.000  C
  C53      1.0000 0.15970  0.01090  0.39930  Biso   1.000  C
  C54      1.0000 0.84030  0.51090  0.10070  Biso   1.000  C
  C55      1.0000 0.84030  0.98910  0.60070  Biso   1.000  C
  C56      1.0000 0.15970  0.48910  0.89930  Biso   1.000  C
  C57      1.0000 0.02550  0.94750  0.38070  Biso   1.000  C
  C58      1.0000 0.97450  0.44750  0.11930  Biso   1.000  C
  C59      1.0000 0.97450  0.05250  0.61930  Biso   1.000  C
  C60      1.0000 0.02550  0.55250  0.88070  Biso   1.000  C
  C61      1.0000 0.05850  0.86460  0.34510  Biso   1.000  C
  C62      1.0000 0.94150  0.36460  0.15490  Biso   1.000  C
  C63      1.0000 0.94150  0.13540  0.65490  Biso   1.000  C
  C64      1.0000 0.05850  0.63540  0.84510  Biso   1.000  C
  H1       1.0000 0.08580  0.79260  0.44900  Biso   1.000  H
  H2       1.0000 0.91420  0.29260  0.05100  Biso   1.000  H
  H3       1.0000 0.91420  0.20740  0.55100  Biso   1.000  H
  H4       1.0000 0.08580  0.70740  0.94900  Biso   1.000  H
  H5       1.0000 0.17690  0.76100  0.38700  Biso   1.000  H
  H6       1.0000 0.82310  0.26100  0.11300  Biso   1.000  H
  H7       1.0000 0.82310  0.23900  0.61300  Biso   1.000  H
  H8       1.0000 0.17690  0.73900  0.88700  Biso   1.000  H
  H9       1.0000 0.93910  0.76210  0.61290  Biso   1.000  H
  H10      1.0000 0.06090  0.26210  0.88710  Biso   1.000  H
  H11      1.0000 0.06090  0.23790  0.38710  Biso   1.000  H
  H12      1.0000 0.93910  0.73790  0.11290  Biso   1.000  H
  H13      1.0000 0.79080  0.73040  0.64880  Biso   1.000  H
  H14      1.0000 0.20920  0.23040  0.85120  Biso   1.000  H
  H15      1.0000 0.20920  0.26960  0.35120  Biso   1.000  H
  H16      1.0000 0.79080  0.76960  0.14880  Biso   1.000  H
  H17      1.0000 0.12730  0.05940  0.43040  Biso   1.000  H
  H18      1.0000 0.87270  0.55940  0.06960  Biso   1.000  H
  H19      1.0000 0.87270  0.94060  0.56960  Biso   1.000  H
  H20      1.0000 0.12730  0.44060  0.93040  Biso   1.000  H
  H21      1.0000 0.18220  0.03180  0.34470  Biso   1.000  H
  H22      1.0000 0.81780  0.53180  0.15530  Biso   1.000  H
  H23      1.0000 0.81780  0.96820  0.65530  Biso   1.000  H
  H24      1.0000 0.18220  0.46820  0.84470  Biso   1.000  H
  H25      1.0000 0.93870  0.97390  0.34020  Biso   1.000  H
  H26      1.0000 0.06130  0.47390  0.15980  Biso   1.000  H
  H27      1.0000 0.06130  0.02610  0.65980  Biso   1.000  H
  H28      1.0000 0.93870  0.52610  0.84020  Biso   1.000  H
  H29      1.0000 0.98830  0.93730  0.43450  Biso   1.000  H
  H30      1.0000 0.01170  0.43730  0.06550  Biso   1.000  H
  H31      1.0000 0.01170  0.06270  0.56550  Biso   1.000  H
  H32      1.0000 0.98830  0.56270  0.93450  Biso   1.000  H
  H33      1.0000 0.95900  0.83660  0.32010  Biso   1.000  H
  H34      1.0000 0.04100  0.33660  0.17990  Biso   1.000  H
  H35      1.0000 0.04100  0.16340  0.67990  Biso   1.000  H
  H36      1.0000 0.95900  0.66340  0.82010  Biso   1.000  H
  H37      1.0000 0.11780  0.87310  0.29910  Biso   1.000  H
  H38      1.0000 0.88220  0.37310  0.20090  Biso   1.000  H
  H39      1.0000 0.88220  0.12690  0.70090  Biso   1.000  H
  H40      1.0000 0.11780  0.62690  0.79910  Biso   1.000  H
  H41      1.0000 0.77010  0.56540  0.66820  Biso   1.000  H
  H42      1.0000 0.22990  0.06540  0.83180  Biso   1.000  H
  H43      1.0000 0.22990  0.43460  0.33180  Biso   1.000  H
  H44      1.0000 0.77010  0.93460  0.16820  Biso   1.000  H
  H45      1.0000 0.85480  0.50400  0.61870  Biso   1.000  H
  H46      1.0000 0.14520  0.00400  0.88130  Biso   1.000  H
  H47      1.0000 0.14520  0.49600  0.38130  Biso   1.000  H
  H48      1.0000 0.85480  0.99600  0.11870  Biso   1.000  H
  H49      1.0000 0.95620  0.63280  0.54730  Biso   1.000  H
  H50      1.0000 0.04380  0.13280  0.95270  Biso   1.000  H
  H51      1.0000 0.04380  0.36720  0.45270  Biso   1.000  H
  H52      1.0000 0.95620  0.86720  0.04730  Biso   1.000  H
  H53      1.0000 0.00740  0.62970  0.66130  Biso   1.000  H
  H54      1.0000 0.99260  0.12970  0.83870  Biso   1.000  H
  H55      1.0000 0.99260  0.37030  0.33870  Biso   1.000  H
  H56      1.0000 0.00740  0.87030  0.16130  Biso   1.000  H
  H57      1.0000 0.56750  0.91060  0.35990  Biso   1.000  H
  H58      1.0000 0.43250  0.41060  0.14010  Biso   1.000  H
  H59      1.0000 0.43250  0.08940  0.64010  Biso   1.000  H
  H60      1.0000 0.56750  0.58940  0.85990  Biso   1.000  H
  H61      1.0000 0.48650  0.03690  0.28520  Biso   1.000  H
  H62      1.0000 0.51350  0.53690  0.21480  Biso   1.000  H
  H63      1.0000 0.51350  0.96310  0.71480  Biso   1.000  H
  H64      1.0000 0.48650  0.46310  0.78520  Biso   1.000  H
  H65      1.0000 0.32080  0.03410  0.15190  Biso   1.000  H
  H66      1.0000 0.67920  0.53410  0.34810  Biso   1.000  H
  H67      1.0000 0.67920  0.96590  0.84810  Biso   1.000  H
  H68      1.0000 0.32080  0.46590  0.65190  Biso   1.000  H
  H69      1.0000 0.27510  0.90370  0.08290  Biso   1.000  H
  H70      1.0000 0.72490  0.40370  0.41710  Biso   1.000  H
  H71      1.0000 0.72490  0.09630  0.91710  Biso   1.000  H
  H72      1.0000 0.27510  0.59630  0.58290  Biso   1.000  H
  H73      1.0000 0.70640  0.78510  0.51820  Biso   1.000  H
  H74      1.0000 0.29360  0.28510  0.98180  Biso   1.000  H
  H75      1.0000 0.29360  0.21490  0.48180  Biso   1.000  H
  H76      1.0000 0.70640  0.71490  0.01820  Biso   1.000  H
  H77      1.0000 0.79680  0.74660  0.47310  Biso   1.000  H
  H78      1.0000 0.20320  0.24660  0.02690  Biso   1.000  H
  H79      1.0000 0.20320  0.25340  0.52690  Biso   1.000  H
  H80      1.0000 0.79680  0.75340  0.97310  Biso   1.000  H
  O25      1.0000 0.09320  0.16440  0.12640  Biso   1.000  O
  O26      1.0000 0.90680  0.66440  0.37360  Biso   1.000  O
  O27      1.0000 0.90680  0.83560  0.87360  Biso   1.000  O
  O28      1.0000 0.09320  0.33560  0.62640  Biso   1.000  O
  H81      1.0000 0.02550  0.15390  0.15850  Biso   1.000  H
  H82      1.0000 0.97450  0.65390  0.34150  Biso   1.000  H
  H83      1.0000 0.97450  0.84610  0.84150  Biso   1.000  H
  H84      1.0000 0.02550  0.34610  0.65850  Biso   1.000  H
  H85      1.0000 0.18250  0.17320  0.16220  Biso   1.000  H
  H86      1.0000 0.81750  0.67320  0.33780  Biso   1.000  H
  H87      1.0000 0.81750  0.82680  0.83780  Biso   1.000  H
  H88      1.0000 0.18250  0.32680  0.66220  Biso   1.000  H
  O29      1.0000 0.83690  0.14630  0.20930  Biso   1.000  O
  O30      1.0000 0.16310  0.64630  0.29070  Biso   1.000  O
  O31      1.0000 0.16310  0.85370  0.79070  Biso   1.000  O
  O32      1.0000 0.83690  0.35370  0.70930  Biso   1.000  O
  H89      1.0000 0.79580  0.15950  0.25040  Biso   1.000  H
  H90      1.0000 0.20420  0.65950  0.24960  Biso   1.000  H
  H91      1.0000 0.20420  0.84050  0.74960  Biso   1.000  H
  H92      1.0000 0.79580  0.34050  0.75040  Biso   1.000  H
  H93      1.0000 0.76890  0.12540  0.17430  Biso   1.000  H
  H94      1.0000 0.23110  0.62540  0.32570  Biso   1.000  H
  H95      1.0000 0.23110  0.87460  0.82570  Biso   1.000  H
  H96      1.0000 0.76890  0.37460  0.67430  Biso   1.000  H
  C65      1.0000 0.93180  0.05370  0.66300  Biso   1.000  C
  C66      1.0000 0.06820  0.55370  0.83700  Biso   1.000  C
  C67      1.0000 0.06820  0.94630  0.33700  Biso   1.000  C
  C68      1.0000 0.93180  0.44630  0.16300  Biso   1.000  C
  C69      1.0000 0.98630  0.12950  0.61520  Biso   1.000  C
  C70      1.0000 0.01370  0.62950  0.88480  Biso   1.000  C
  C71      1.0000 0.01370  0.87050  0.38480  Biso   1.000  C
  C72      1.0000 0.98630  0.37050  0.11520  Biso   1.000  C
  H97      1.0000 0.02390  0.02600  0.69800  Biso   1.000  H
  H98      1.0000 0.97610  0.52600  0.80200  Biso   1.000  H
  H99      1.0000 0.97610  0.97400  0.30200  Biso   1.000  H
  H100     1.0000 0.02390  0.47400  0.19800  Biso   1.000  H
  H101     1.0000 0.86490  0.07420  0.70200  Biso   1.000  H
  H102     1.0000 0.13510  0.57420  0.79800  Biso   1.000  H
  H103     1.0000 0.13510  0.92580  0.29800  Biso   1.000  H
  H104     1.0000 0.86490  0.42580  0.20200  Biso   1.000  H
  H105     1.0000 0.07280  0.15890  0.65320  Biso   1.000  H
  H106     1.0000 0.92720  0.65890  0.84680  Biso   1.000  H
  H107     1.0000 0.92720  0.84110  0.34680  Biso   1.000  H
  H108     1.0000 0.07280  0.34110  0.15320  Biso   1.000  H
  H109     1.0000 0.02500  0.10930  0.56460  Biso   1.000  H
  H110     1.0000 0.97500  0.60930  0.93540  Biso   1.000  H
  H111     1.0000 0.97500  0.89070  0.43540  Biso   1.000  H
  H112     1.0000 0.02500  0.39070  0.06460  Biso   1.000  H
