data_image0
_cell_length_a       11.1272
_cell_length_b       12.4509
_cell_length_c       15.132
_cell_angle_alpha    81.365
_cell_angle_beta     82.847
_cell_angle_gamma    63.926

_symmetry_space_group_name_H-M    "P 1"
_symmetry_int_tables_number       1

loop_
  _symmetry_equiv_pos_as_xyz
  'x, y, z'

loop_
  _atom_site_label
  _atom_site_occupancy
  _atom_site_fract_x
  _atom_site_fract_y
  _atom_site_fract_z
  _atom_site_thermal_displace_type
  _atom_site_B_iso_or_equiv
  _atom_site_type_symbol
  Dy1      1.0000 0.90343  0.88697  0.03699  Biso   1.000  Dy
  Dy2      1.0000 0.09657  0.11303  0.96301  Biso   1.000  Dy
  Cu1      1.0000 0.51511  0.49889  0.41119  Biso   1.000  Cu
  Cu2      1.0000 0.48489  0.50111  0.58881  Biso   1.000  Cu
  I1       1.0000 0.65238  0.57534  0.49139  Biso   1.000  I
  I2       1.0000 0.34762  0.42466  0.50861  Biso   1.000  I
  O1       1.0000 0.25600  0.94890  0.05080  Biso   1.000  O
  O2       1.0000 0.74400  0.05110  0.94920  Biso   1.000  O
  O3       1.0000 0.10160  0.87890  0.07106  Biso   1.000  O
  O4       1.0000 0.89840  0.12110  0.92894  Biso   1.000  O
  O5       1.0000 0.97630  0.13510  0.10137  Biso   1.000  O
  O6       1.0000 0.02370  0.86490  0.89863  Biso   1.000  O
  O7       1.0000 0.83540  0.04720  0.12410  Biso   1.000  O
  O8       1.0000 0.16460  0.95280  0.87590  Biso   1.000  O
  O9       1.0000 0.04490  0.67720  0.04540  Biso   1.000  O
  O10      1.0000 0.95510  0.32280  0.95460  Biso   1.000  O
  O11      1.0000 0.79380  0.81130  0.95800  Biso   1.000  O
  O12      1.0000 0.20620  0.18870  0.04200  Biso   1.000  O
  O13      1.0000 0.89900  0.79990  0.19540  Biso   1.000  O
  O14      1.0000 0.10100  0.20010  0.80460  Biso   1.000  O
  O15      1.0000 0.71220  0.87400  0.13300  Biso   1.000  O
  O16      1.0000 0.28780  0.12600  0.86700  Biso   1.000  O
  O17      1.0000 0.72100  0.80070  0.27230  Biso   1.000  O
  O18      1.0000 0.27900  0.19930  0.72770  Biso   1.000  O
  N1       1.0000 0.41430  0.62860  0.30980  Biso   1.000  N
  N2       1.0000 0.58570  0.37140  0.69020  Biso   1.000  N
  N3       1.0000 0.64550  0.36030  0.33800  Biso   1.000  N
  N4       1.0000 0.35450  0.63970  0.66200  Biso   1.000  N
  N5       1.0000 0.19540  0.52040  0.97330  Biso   1.000  N
  N6       1.0000 0.80460  0.47960  0.02670  Biso   1.000  N
  N7       1.0000 0.63730  0.86670  0.85770  Biso   1.000  N
  N8       1.0000 0.36270  0.13330  0.14230  Biso   1.000  N
  N9       1.0000 0.77550  0.82390  0.20250  Biso   1.000  N
  N10      1.0000 0.22450  0.17610  0.79750  Biso   1.000  N
  C1       1.0000 0.45720  0.70890  0.26750  Biso   1.000  C
  C2       1.0000 0.54280  0.29110  0.73250  Biso   1.000  C
  H1       1.0000 0.53360  0.71080  0.28780  Biso   1.000  H
  H2       1.0000 0.46640  0.28920  0.71220  Biso   1.000  H
  C3       1.0000 0.39570  0.78940  0.19540  Biso   1.000  C
  C4       1.0000 0.60430  0.21060  0.80460  Biso   1.000  C
  H3       1.0000 0.43030  0.84420  0.16670  Biso   1.000  H
  H4       1.0000 0.56970  0.15580  0.83330  Biso   1.000  H
  C5       1.0000 0.28310  0.78900  0.16560  Biso   1.000  C
  C6       1.0000 0.71690  0.21100  0.83440  Biso   1.000  C
  C7       1.0000 0.23810  0.70620  0.20880  Biso   1.000  C
  C8       1.0000 0.76190  0.29380  0.79120  Biso   1.000  C
  H5       1.0000 0.16150  0.70290  0.19020  Biso   1.000  H
  H6       1.0000 0.83850  0.29710  0.80980  Biso   1.000  H
  C9       1.0000 0.30650  0.62850  0.27950  Biso   1.000  C
  C10      1.0000 0.69350  0.37150  0.72050  Biso   1.000  C
  H7       1.0000 0.27510  0.57160  0.30830  Biso   1.000  H
  H8       1.0000 0.72490  0.42840  0.69170  Biso   1.000  H
  C11      1.0000 0.20870  0.87830  0.09000  Biso   1.000  C
  C12      1.0000 0.79130  0.12170  0.91000  Biso   1.000  C
  C13      1.0000 0.76080  0.35890  0.29950  Biso   1.000  C
  C14      1.0000 0.23920  0.64110  0.70050  Biso   1.000  C
  H9       1.0000 0.79020  0.41370  0.31620  Biso   1.000  H
  H10      1.0000 0.20980  0.58630  0.68380  Biso   1.000  H
  C15      1.0000 0.84000  0.28220  0.23670  Biso   1.000  C
  C16      1.0000 0.16000  0.71780  0.76330  Biso   1.000  C
  H11      1.0000 0.92150  0.28450  0.21140  Biso   1.000  H
  H12      1.0000 0.07850  0.71550  0.78860  Biso   1.000  H
  C17      1.0000 0.79870  0.20210  0.21140  Biso   1.000  C
  C18      1.0000 0.20130  0.79790  0.78860  Biso   1.000  C
  C19      1.0000 0.68220  0.19950  0.25330  Biso   1.000  C
  C20      1.0000 0.31780  0.80050  0.74670  Biso   1.000  C
  H13      1.0000 0.65260  0.14350  0.23940  Biso   1.000  H
  H14      1.0000 0.34740  0.85650  0.76060  Biso   1.000  H
  C21      1.0000 0.60910  0.27900  0.31550  Biso   1.000  C
  C22      1.0000 0.39090  0.72100  0.68450  Biso   1.000  C
  H15      1.0000 0.52930  0.27600  0.34370  Biso   1.000  H
  H16      1.0000 0.47070  0.72400  0.65630  Biso   1.000  H
  C23      1.0000 0.87700  0.12070  0.13970  Biso   1.000  C
  C24      1.0000 0.12300  0.87930  0.86030  Biso   1.000  C
  C25      1.0000 0.30310  0.50240  0.02840  Biso   1.000  C
  C26      1.0000 0.69690  0.49760  0.97160  Biso   1.000  C
  H17      1.0000 0.27020  0.56510  0.06910  Biso   1.000  H
  H18      1.0000 0.72980  0.43490  0.93090  Biso   1.000  H
  H19      1.0000 0.37870  0.50660  0.98970  Biso   1.000  H
  H20      1.0000 0.62130  0.49340  0.01030  Biso   1.000  H
  H21      1.0000 0.33270  0.42330  0.06350  Biso   1.000  H
  H22      1.0000 0.66730  0.57670  0.93650  Biso   1.000  H
  C27      1.0000 0.22370  0.43620  0.90720  Biso   1.000  C
  C28      1.0000 0.77630  0.56380  0.09280  Biso   1.000  C
  H23      1.0000 0.14320  0.45950  0.87500  Biso   1.000  H
  H24      1.0000 0.85680  0.54050  0.12500  Biso   1.000  H
  H25      1.0000 0.25000  0.35470  0.93770  Biso   1.000  H
  H26      1.0000 0.75000  0.64530  0.06230  Biso   1.000  H
  H27      1.0000 0.29680  0.43800  0.86450  Biso   1.000  H
  H28      1.0000 0.70320  0.56200  0.13550  Biso   1.000  H
  C29      1.0000 0.07560  0.60700  0.98700  Biso   1.000  C
  C30      1.0000 0.92440  0.39300  0.01300  Biso   1.000  C
  H29      1.0000 0.00760  0.61690  0.95000  Biso   1.000  H
  H30      1.0000 0.99240  0.38310  0.05000  Biso   1.000  H
  C31      1.0000 0.53810  0.85300  0.92430  Biso   1.000  C
  C32      1.0000 0.46190  0.14700  0.07570  Biso   1.000  C
  H31      1.0000 0.57490  0.82960  0.98340  Biso   1.000  H
  H32      1.0000 0.42510  0.17040  0.01660  Biso   1.000  H
  H33      1.0000 0.51490  0.79070  0.90960  Biso   1.000  H
  H34      1.0000 0.48510  0.20930  0.09040  Biso   1.000  H
  H35      1.0000 0.45760  0.92940  0.92500  Biso   1.000  H
  H36      1.0000 0.54240  0.07060  0.07500  Biso   1.000  H
  C33      1.0000 0.60210  0.90110  0.76480  Biso   1.000  C
  C34      1.0000 0.39790  0.09890  0.23520  Biso   1.000  C
  H37      1.0000 0.67770  0.90710  0.72730  Biso   1.000  H
  H38      1.0000 0.32230  0.09290  0.27270  Biso   1.000  H
  H39      1.0000 0.52360  0.97910  0.76000  Biso   1.000  H
  H40      1.0000 0.47640  0.02090  0.24000  Biso   1.000  H
  H41      1.0000 0.58130  0.84030  0.74470  Biso   1.000  H
  H42      1.0000 0.41870  0.15970  0.25530  Biso   1.000  H
  C35      1.0000 0.75670  0.84570  0.88030  Biso   1.000  C
  C36      1.0000 0.24330  0.15430  0.11970  Biso   1.000  C
  H43      1.0000 0.81800  0.85740  0.83470  Biso   1.000  H
  H44      1.0000 0.18200  0.14260  0.16530  Biso   1.000  H
  O19      1.0000 0.90400  0.60620  0.81440  Biso   1.000  O
  O20      1.0000 0.09600  0.39380  0.18560  Biso   1.000  O
  N11      1.0000 0.94850  0.53840  0.67770  Biso   1.000  N
  N12      1.0000 0.05150  0.46160  0.32230  Biso   1.000  N
  C37      1.0000 0.91530  0.65480  0.62640  Biso   1.000  C
  C38      1.0000 0.08470  0.34520  0.37360  Biso   1.000  C
  H45      1.0000 0.88430  0.71710  0.66740  Biso   1.000  H
  H46      1.0000 0.11570  0.28290  0.33260  Biso   1.000  H
  H47      1.0000 0.84420  0.67180  0.58690  Biso   1.000  H
  H48      1.0000 0.15580  0.32820  0.41310  Biso   1.000  H
  H49      1.0000 0.99500  0.65420  0.59030  Biso   1.000  H
  H50      1.0000 0.00500  0.34580  0.40970  Biso   1.000  H
  C39      1.0000 0.99650  0.43490  0.62800  Biso   1.000  C
  C40      1.0000 0.00350  0.56510  0.37200  Biso   1.000  C
  H51      1.0000 0.01510  0.36220  0.66990  Biso   1.000  H
  H52      1.0000 0.98490  0.63780  0.33010  Biso   1.000  H
  H53      1.0000 0.07880  0.42730  0.59200  Biso   1.000  H
  H54      1.0000 0.92120  0.57270  0.40800  Biso   1.000  H
  H55      1.0000 0.92800  0.44520  0.58840  Biso   1.000  H
  H56      1.0000 0.07200  0.55480  0.41160  Biso   1.000  H
  C41      1.0000 0.93890  0.52530  0.76600  Biso   1.000  C
  C42      1.0000 0.06110  0.47470  0.23400  Biso   1.000  C
  H57      1.0000 0.96110  0.44630  0.79470  Biso   1.000  H
  H58      1.0000 0.03890  0.55370  0.20530  Biso   1.000  H
  O21      1.0000 0.87990  0.95540  0.68840  Biso   1.000  O
  O22      1.0000 0.12010  0.04460  0.31160  Biso   1.000  O
  N13      1.0000 0.90290  0.10710  0.59150  Biso   1.000  N
  N14      1.0000 0.09710  0.89290  0.40850  Biso   1.000  N
  C43      1.0000 0.01900  0.11290  0.61000  Biso   1.000  C
  C44      1.0000 0.98100  0.88710  0.39000  Biso   1.000  C
  H59      1.0000 0.05900  0.05390  0.66100  Biso   1.000  H
  H60      1.0000 0.94100  0.94610  0.33900  Biso   1.000  H
  H61      1.0000 0.99690  0.19380  0.62470  Biso   1.000  H
  H62      1.0000 0.00310  0.80620  0.37530  Biso   1.000  H
  H63      1.0000 0.08280  0.09500  0.55750  Biso   1.000  H
  H64      1.0000 0.91720  0.90500  0.44250  Biso   1.000  H
  C45      1.0000 0.84140  0.18530  0.52110  Biso   1.000  C
  C46      1.0000 0.15860  0.81470  0.47890  Biso   1.000  C
  H65      1.0000 0.75970  0.17800  0.51220  Biso   1.000  H
  H66      1.0000 0.24030  0.82200  0.48780  Biso   1.000  H
  H67      1.0000 0.90200  0.16700  0.46700  Biso   1.000  H
  H68      1.0000 0.09800  0.83300  0.53300  Biso   1.000  H
  H69      1.0000 0.81800  0.26760  0.53330  Biso   1.000  H
  H70      1.0000 0.18200  0.73240  0.46670  Biso   1.000  H
  C47      1.0000 0.85510  0.03200  0.63670  Biso   1.000  C
  C48      1.0000 0.14490  0.96800  0.36330  Biso   1.000  C
  H71      1.0000 0.76910  0.05230  0.61720  Biso   1.000  H
  H72      1.0000 0.23090  0.94770  0.38280  Biso   1.000  H
  O23      1.0000 0.50000  0.00000  0.50000  Biso   1.000  O
