data_image0
_cell_length_a       11.2006
_cell_length_b       12.5227
_cell_length_c       15.113
_cell_angle_alpha    92.084
_cell_angle_beta     97.414
_cell_angle_gamma    116.45

_symmetry_space_group_name_H-M    "P 1"
_symmetry_int_tables_number       1

loop_
  _symmetry_equiv_pos_as_xyz
  'x, y, z'

loop_
  _atom_site_label
  _atom_site_occupancy
  _atom_site_fract_x
  _atom_site_fract_y
  _atom_site_fract_z
  _atom_site_thermal_displace_type
  _atom_site_B_iso_or_equiv
  _atom_site_type_symbol
  Er1      1.0000 0.20815  0.11270  0.53619  Biso   1.000  Er
  Er2      1.0000 0.79185  0.88730  0.46381  Biso   1.000  Er
  Cu1      1.0000 0.01376  0.49799  0.08948  Biso   1.000  Cu
  Cu2      1.0000 0.98624  0.50201  0.91052  Biso   1.000  Cu
  I1       1.0000 0.22515  0.57300  0.00946  Biso   1.000  I
  I2       1.0000 0.77485  0.42700  0.99054  Biso   1.000  I
  O1       1.0000 0.19820  0.94820  0.44980  Biso   1.000  O
  O2       1.0000 0.80180  0.05180  0.55020  Biso   1.000  O
  O3       1.0000 0.97550  0.87510  0.42860  Biso   1.000  O
  O4       1.0000 0.02450  0.12490  0.57140  Biso   1.000  O
  O5       1.0000 0.10850  0.13100  0.39880  Biso   1.000  O
  O6       1.0000 0.89150  0.86900  0.60120  Biso   1.000  O
  O7       1.0000 0.88200  0.04530  0.37670  Biso   1.000  O
  O8       1.0000 0.11800  0.95470  0.62330  Biso   1.000  O
  O9       1.0000 0.38940  0.18480  0.45780  Biso   1.000  O
  O10      1.0000 0.61060  0.81520  0.54220  Biso   1.000  O
  O11      1.0000 0.27440  0.32000  0.54200  Biso   1.000  O
  O12      1.0000 0.72560  0.68000  0.45800  Biso   1.000  O
  O13      1.0000 0.30210  0.20140  0.69190  Biso   1.000  O
  O14      1.0000 0.69790  0.79860  0.30810  Biso   1.000  O
  O15      1.0000 0.40800  0.12150  0.63090  Biso   1.000  O
  O16      1.0000 0.59200  0.87850  0.36910  Biso   1.000  O
  O17      1.0000 0.47800  0.19950  0.76830  Biso   1.000  O
  O18      1.0000 0.52200  0.80050  0.23170  Biso   1.000  O
  N1       1.0000 0.04240  0.62690  0.19210  Biso   1.000  N
  N2       1.0000 0.95760  0.37310  0.80790  Biso   1.000  N
  N3       1.0000 0.00400  0.35870  0.16340  Biso   1.000  N
  N4       1.0000 0.99600  0.64130  0.83660  Biso   1.000  N
  N5       1.0000 0.39800  0.17450  0.69910  Biso   1.000  N
  N6       1.0000 0.60200  0.82550  0.30090  Biso   1.000  N
  N7       1.0000 0.49320  0.13100  0.35960  Biso   1.000  N
  N8       1.0000 0.50680  0.86900  0.64040  Biso   1.000  N
  N9       1.0000 0.28230  0.47680  0.46890  Biso   1.000  N
  N10      1.0000 0.71770  0.52320  0.53110  Biso   1.000  N
  C1       1.0000 0.16330  0.70780  0.23380  Biso   1.000  C
  C2       1.0000 0.83670  0.29220  0.76620  Biso   1.000  C
  H1       1.0000 0.24110  0.71060  0.21310  Biso   1.000  H
  H2       1.0000 0.75890  0.28940  0.78690  Biso   1.000  H
  C3       1.0000 0.18180  0.78840  0.30600  Biso   1.000  C
  C4       1.0000 0.81820  0.21160  0.69400  Biso   1.000  C
  H3       1.0000 0.27010  0.84380  0.33450  Biso   1.000  H
  H4       1.0000 0.72990  0.15620  0.66550  Biso   1.000  H
  C5       1.0000 0.06890  0.78650  0.33560  Biso   1.000  C
  C6       1.0000 0.93110  0.21350  0.66440  Biso   1.000  C
  C7       1.0000 0.94350  0.70290  0.29320  Biso   1.000  C
  C8       1.0000 0.05650  0.29710  0.70680  Biso   1.000  C
  H5       1.0000 0.86400  0.69840  0.31240  Biso   1.000  H
  H6       1.0000 0.13600  0.30160  0.68760  Biso   1.000  H
  C9       1.0000 0.93470  0.62550  0.22240  Biso   1.000  C
  C10      1.0000 0.06530  0.37450  0.77760  Biso   1.000  C
  H7       1.0000 0.84740  0.56830  0.19350  Biso   1.000  H
  H8       1.0000 0.15260  0.43170  0.80650  Biso   1.000  H
  C11      1.0000 0.08180  0.87610  0.41060  Biso   1.000  C
  C12      1.0000 0.91820  0.12390  0.58940  Biso   1.000  C
  C13      1.0000 0.11610  0.35410  0.20050  Biso   1.000  C
  C14      1.0000 0.88390  0.64590  0.79950  Biso   1.000  C
  H9       1.0000 0.19930  0.40690  0.18310  Biso   1.000  H
  H10      1.0000 0.80070  0.59310  0.81690  Biso   1.000  H
  C15      1.0000 0.11760  0.27720  0.26270  Biso   1.000  C
  C16      1.0000 0.88240  0.72280  0.73730  Biso   1.000  C
  H11      1.0000 0.20020  0.27740  0.28720  Biso   1.000  H
  H12      1.0000 0.79980  0.72260  0.71280  Biso   1.000  H
  C17      1.0000 0.99850  0.19970  0.28930  Biso   1.000  C
  C18      1.0000 0.00150  0.80030  0.71070  Biso   1.000  C
  C19      1.0000 0.88130  0.20050  0.24880  Biso   1.000  C
  C20      1.0000 0.11870  0.79950  0.75120  Biso   1.000  C
  H13      1.0000 0.79660  0.14640  0.26350  Biso   1.000  H
  H14      1.0000 0.20340  0.85360  0.73650  Biso   1.000  H
  C21      1.0000 0.88810  0.28010  0.18710  Biso   1.000  C
  C22      1.0000 0.11190  0.71990  0.81290  Biso   1.000  C
  H15      1.0000 0.80630  0.27930  0.15990  Biso   1.000  H
  H16      1.0000 0.19370  0.72070  0.84010  Biso   1.000  H
  C23      1.0000 0.99510  0.11720  0.36070  Biso   1.000  C
  C24      1.0000 0.00490  0.88280  0.63930  Biso   1.000  C
  C25      1.0000 0.60670  0.14860  0.42740  Biso   1.000  C
  C26      1.0000 0.39330  0.85140  0.57260  Biso   1.000  C
  H17      1.0000 0.59260  0.17270  0.48600  Biso   1.000  H
  H18      1.0000 0.40740  0.82730  0.51400  Biso   1.000  H
  H19      1.0000 0.69020  0.21150  0.41210  Biso   1.000  H
  H20      1.0000 0.30980  0.78850  0.58790  Biso   1.000  H
  H21      1.0000 0.61390  0.07360  0.42980  Biso   1.000  H
  H22      1.0000 0.38610  0.92640  0.57020  Biso   1.000  H
  C27      1.0000 0.49600  0.09550  0.26750  Biso   1.000  C
  C28      1.0000 0.50400  0.90450  0.73250  Biso   1.000  C
  H23      1.0000 0.41440  0.08710  0.22880  Biso   1.000  H
  H24      1.0000 0.58560  0.91290  0.77120  Biso   1.000  H
  H25      1.0000 0.49950  0.01860  0.26440  Biso   1.000  H
  H26      1.0000 0.50050  0.98140  0.73560  Biso   1.000  H
  H27      1.0000 0.57600  0.15670  0.24730  Biso   1.000  H
  H28      1.0000 0.42400  0.84330  0.75270  Biso   1.000  H
  C29      1.0000 0.39410  0.14930  0.38110  Biso   1.000  C
  C30      1.0000 0.60590  0.85070  0.61890  Biso   1.000  C
  H29      1.0000 0.32070  0.13450  0.33500  Biso   1.000  H
  H30      1.0000 0.67930  0.86550  0.66500  Biso   1.000  H
  C31      1.0000 0.18620  0.49060  0.51860  Biso   1.000  C
  C32      1.0000 0.81380  0.50940  0.48140  Biso   1.000  C
  H31      1.0000 0.15440  0.42670  0.55820  Biso   1.000  H
  H32      1.0000 0.84560  0.57330  0.44180  Biso   1.000  H
  H33      1.0000 0.10920  0.48550  0.47650  Biso   1.000  H
  H34      1.0000 0.89080  0.51450  0.52350  Biso   1.000  H
  H35      1.0000 0.23040  0.56880  0.55470  Biso   1.000  H
  H36      1.0000 0.76960  0.43120  0.44530  Biso   1.000  H
  C33      1.0000 0.34190  0.56260  0.40500  Biso   1.000  C
  C34      1.0000 0.65810  0.43740  0.59500  Biso   1.000  C
  H37      1.0000 0.40310  0.54150  0.37600  Biso   1.000  H
  H38      1.0000 0.59690  0.45850  0.62400  Biso   1.000  H
  H39      1.0000 0.39250  0.64350  0.43670  Biso   1.000  H
  H40      1.0000 0.60750  0.35650  0.56330  Biso   1.000  H
  H41      1.0000 0.27000  0.56030  0.35930  Biso   1.000  H
  H42      1.0000 0.73000  0.43970  0.64070  Biso   1.000  H
  C35      1.0000 0.31630  0.39130  0.48540  Biso   1.000  C
  C36      1.0000 0.68370  0.60870  0.51460  Biso   1.000  C
  H43      1.0000 0.37800  0.38330  0.45130  Biso   1.000  H
  H44      1.0000 0.62200  0.61670  0.54870  Biso   1.000  H
  O19      1.0000 0.50630  0.60630  0.68430  Biso   1.000  O
  O20      1.0000 0.49370  0.39370  0.31570  Biso   1.000  O
  N11      1.0000 0.48520  0.53960  0.82050  Biso   1.000  N
  N12      1.0000 0.51480  0.46040  0.17950  Biso   1.000  N
  C37      1.0000 0.56530  0.65410  0.87220  Biso   1.000  C
  C38      1.0000 0.43470  0.34590  0.12780  Biso   1.000  C
  H45      1.0000 0.59510  0.71700  0.83170  Biso   1.000  H
  H46      1.0000 0.40490  0.28300  0.16830  Biso   1.000  H
  H47      1.0000 0.64440  0.65380  0.90820  Biso   1.000  H
  H48      1.0000 0.35560  0.34620  0.09180  Biso   1.000  H
  H49      1.0000 0.51100  0.66970  0.91200  Biso   1.000  H
  H50      1.0000 0.48900  0.33030  0.08800  Biso   1.000  H
  C39      1.0000 0.43310  0.43680  0.86940  Biso   1.000  C
  C40      1.0000 0.56690  0.56320  0.13060  Biso   1.000  C
  H51      1.0000 0.38040  0.36450  0.82720  Biso   1.000  H
  H52      1.0000 0.61960  0.63550  0.17280  Biso   1.000  H
  H53      1.0000 0.37510  0.44590  0.90920  Biso   1.000  H
  H54      1.0000 0.62490  0.55410  0.09080  Biso   1.000  H
  H55      1.0000 0.50830  0.42990  0.90510  Biso   1.000  H
  H56      1.0000 0.49170  0.57010  0.09490  Biso   1.000  H
  C41      1.0000 0.46230  0.52610  0.73290  Biso   1.000  C
  C42      1.0000 0.53770  0.47390  0.26710  Biso   1.000  C
  H57      1.0000 0.40650  0.44720  0.70450  Biso   1.000  H
  H58      1.0000 0.59350  0.55280  0.29550  Biso   1.000  H
  N13      1.0000 0.98950  0.89120  0.09230  Biso   1.000  N
  N14      1.0000 0.01050  0.10880  0.90770  Biso   1.000  N
  O21      1.0000 0.16480  0.04160  0.18570  Biso   1.000  O
  O22      1.0000 0.83520  0.95840  0.81430  Biso   1.000  O
  C43      1.0000 0.97210  0.81370  0.02290  Biso   1.000  C
  C44      1.0000 0.02790  0.18630  0.97710  Biso   1.000  C
  H59      1.0000 0.06050  0.82450  0.01080  Biso   1.000  H
  H60      1.0000 0.93950  0.17550  0.98920  Biso   1.000  H
  H61      1.0000 0.92360  0.82830  0.96980  Biso   1.000  H
  H62      1.0000 0.07640  0.17170  0.03020  Biso   1.000  H
  H63      1.0000 0.91970  0.73160  0.03720  Biso   1.000  H
  H64      1.0000 0.08030  0.26840  0.96280  Biso   1.000  H
  C45      1.0000 0.86600  0.87760  0.11090  Biso   1.000  C
  C46      1.0000 0.13400  0.12240  0.88910  Biso   1.000  C
  H65      1.0000 0.79310  0.81380  0.06860  Biso   1.000  H
  H66      1.0000 0.20690  0.18620  0.93140  Biso   1.000  H
  H67      1.0000 0.86050  0.95300  0.10480  Biso   1.000  H
  H68      1.0000 0.13950  0.04700  0.89520  Biso   1.000  H
  H69      1.0000 0.85690  0.85630  0.17230  Biso   1.000  H
  H70      1.0000 0.14310  0.14370  0.82770  Biso   1.000  H
  C47      1.0000 0.11620  0.96210  0.13000  Biso   1.000  C
  C48      1.0000 0.88380  0.03790  0.87000  Biso   1.000  C
  H71      1.0000 0.18130  0.94450  0.10570  Biso   1.000  H
  H72      1.0000 0.81870  0.05550  0.89430  Biso   1.000  H
  O23      1.0000 0.50000  0.00000  0.00000  Biso   1.000  O
