data_image0
_cell_length_a       10.2128
_cell_length_b       13.145
_cell_length_c       18.35
_cell_angle_alpha    90
_cell_angle_beta     102.151
_cell_angle_gamma    90

_symmetry_space_group_name_H-M    "P 1"
_symmetry_int_tables_number       1

loop_
  _symmetry_equiv_pos_as_xyz
  'x, y, z'

loop_
  _atom_site_label
  _atom_site_occupancy
  _atom_site_fract_x
  _atom_site_fract_y
  _atom_site_fract_z
  _atom_site_thermal_displace_type
  _atom_site_B_iso_or_equiv
  _atom_site_type_symbol
  Cu1      1.0000 0.50000  0.99295  0.75000  Biso   1.000  Cu
  Cu2      1.0000 0.00000  0.49295  0.75000  Biso   1.000  Cu
  Cu3      1.0000 0.50000  0.00705  0.25000  Biso   1.000  Cu
  Cu4      1.0000 0.00000  0.50705  0.25000  Biso   1.000  Cu
  Ni1      1.0000 0.00000  0.00000  0.00000  Biso   1.000  Ni
  Ni2      1.0000 0.50000  0.50000  0.00000  Biso   1.000  Ni
  Ni3      1.0000 0.00000  0.00000  0.50000  Biso   1.000  Ni
  Ni4      1.0000 0.50000  0.50000  0.50000  Biso   1.000  Ni
  N1       1.0000 0.56013  0.99080  0.88220  Biso   1.000  N
  N2       1.0000 0.06013  0.49080  0.88220  Biso   1.000  N
  N3       1.0000 0.43987  0.99080  0.61780  Biso   1.000  N
  N4       1.0000 0.93987  0.49080  0.61780  Biso   1.000  N
  N5       1.0000 0.43987  0.00920  0.11780  Biso   1.000  N
  N6       1.0000 0.93987  0.50920  0.11780  Biso   1.000  N
  N7       1.0000 0.56013  0.00920  0.38220  Biso   1.000  N
  N8       1.0000 0.06013  0.50920  0.38220  Biso   1.000  N
  N9       1.0000 0.80758  0.22317  0.80906  Biso   1.000  N
  N10      1.0000 0.30758  0.72317  0.80906  Biso   1.000  N
  N11      1.0000 0.19242  0.22317  0.69094  Biso   1.000  N
  N12      1.0000 0.69242  0.72317  0.69094  Biso   1.000  N
  N13      1.0000 0.19242  0.77683  0.19094  Biso   1.000  N
  N14      1.0000 0.69242  0.27683  0.19094  Biso   1.000  N
  N15      1.0000 0.80758  0.77683  0.30906  Biso   1.000  N
  N16      1.0000 0.30758  0.27683  0.30906  Biso   1.000  N
  N17      1.0000 0.63890  0.09851  0.75211  Biso   1.000  N
  N18      1.0000 0.13890  0.59851  0.75211  Biso   1.000  N
  N19      1.0000 0.36110  0.09851  0.74789  Biso   1.000  N
  N20      1.0000 0.86110  0.59851  0.74789  Biso   1.000  N
  N21      1.0000 0.36110  0.90149  0.24789  Biso   1.000  N
  N22      1.0000 0.86110  0.40149  0.24789  Biso   1.000  N
  N23      1.0000 0.63890  0.90149  0.25211  Biso   1.000  N
  N24      1.0000 0.13890  0.40149  0.25211  Biso   1.000  N
  N25      1.0000 0.80140  0.99548  0.93663  Biso   1.000  N
  N26      1.0000 0.30140  0.49548  0.93663  Biso   1.000  N
  N27      1.0000 0.19860  0.99548  0.56337  Biso   1.000  N
  N28      1.0000 0.69860  0.49548  0.56337  Biso   1.000  N
  N29      1.0000 0.19860  0.00452  0.06337  Biso   1.000  N
  N30      1.0000 0.69860  0.50452  0.06337  Biso   1.000  N
  N31      1.0000 0.80140  0.00452  0.43663  Biso   1.000  N
  N32      1.0000 0.30140  0.50452  0.43663  Biso   1.000  N
  N33      1.0000 0.37497  0.93308  0.93919  Biso   1.000  N
  N34      1.0000 0.87497  0.43308  0.93919  Biso   1.000  N
  N35      1.0000 0.62503  0.93308  0.56081  Biso   1.000  N
  N36      1.0000 0.12503  0.43308  0.56081  Biso   1.000  N
  N37      1.0000 0.62503  0.06692  0.06081  Biso   1.000  N
  N38      1.0000 0.12503  0.56692  0.06081  Biso   1.000  N
  N39      1.0000 0.37497  0.06692  0.43919  Biso   1.000  N
  N40      1.0000 0.87497  0.56692  0.43919  Biso   1.000  N
  N41      1.0000 0.97770  0.85590  0.04256  Biso   1.000  N
  N42      1.0000 0.47770  0.35590  0.04256  Biso   1.000  N
  N43      1.0000 0.02230  0.85590  0.45744  Biso   1.000  N
  N44      1.0000 0.52230  0.35590  0.45744  Biso   1.000  N
  N45      1.0000 0.02230  0.14410  0.95744  Biso   1.000  N
  N46      1.0000 0.52230  0.64410  0.95744  Biso   1.000  N
  N47      1.0000 0.97770  0.14410  0.54256  Biso   1.000  N
  N48      1.0000 0.47770  0.64410  0.54256  Biso   1.000  N
  N49      1.0000 0.86754  0.38372  0.75677  Biso   1.000  N
  N50      1.0000 0.36754  0.88372  0.75677  Biso   1.000  N
  N51      1.0000 0.13246  0.38372  0.74323  Biso   1.000  N
  N52      1.0000 0.63246  0.88372  0.74323  Biso   1.000  N
  N53      1.0000 0.13246  0.61628  0.24323  Biso   1.000  N
  N54      1.0000 0.63246  0.11628  0.24323  Biso   1.000  N
  N55      1.0000 0.86754  0.61628  0.25677  Biso   1.000  N
  N56      1.0000 0.36754  0.11628  0.25677  Biso   1.000  N
  N57      1.0000 0.92586  0.05285  0.08979  Biso   1.000  N
  N58      1.0000 0.42586  0.55285  0.08979  Biso   1.000  N
  N59      1.0000 0.07414  0.05285  0.41021  Biso   1.000  N
  N60      1.0000 0.57414  0.55285  0.41021  Biso   1.000  N
  N61      1.0000 0.07414  0.94715  0.91021  Biso   1.000  N
  N62      1.0000 0.57414  0.44715  0.91021  Biso   1.000  N
  N63      1.0000 0.92586  0.94715  0.58979  Biso   1.000  N
  N64      1.0000 0.42586  0.44715  0.58979  Biso   1.000  N
  C1       1.0000 0.89150  0.87038  0.09729  Biso   1.000  C
  C2       1.0000 0.39150  0.37038  0.09729  Biso   1.000  C
  C3       1.0000 0.10850  0.87038  0.40271  Biso   1.000  C
  C4       1.0000 0.60850  0.37038  0.40271  Biso   1.000  C
  C5       1.0000 0.10850  0.12962  0.90271  Biso   1.000  C
  C6       1.0000 0.60850  0.62962  0.90271  Biso   1.000  C
  C7       1.0000 0.89150  0.12962  0.59729  Biso   1.000  C
  C8       1.0000 0.39150  0.62962  0.59729  Biso   1.000  C
  C9       1.0000 0.46576  0.96023  0.91650  Biso   1.000  C
  C10      1.0000 0.96576  0.46023  0.91650  Biso   1.000  C
  C11      1.0000 0.53424  0.96023  0.58350  Biso   1.000  C
  C12      1.0000 0.03424  0.46023  0.58350  Biso   1.000  C
  C13      1.0000 0.53424  0.03977  0.08350  Biso   1.000  C
  C14      1.0000 0.03424  0.53977  0.08350  Biso   1.000  C
  C15      1.0000 0.46576  0.03977  0.41650  Biso   1.000  C
  C16      1.0000 0.96576  0.53977  0.41650  Biso   1.000  C
  C17      1.0000 0.92946  0.77704  0.98589  Biso   1.000  C
  C18      1.0000 0.42946  0.27704  0.98589  Biso   1.000  C
  C19      1.0000 0.07054  0.77704  0.51411  Biso   1.000  C
  C20      1.0000 0.57054  0.27704  0.51411  Biso   1.000  C
  C21      1.0000 0.07054  0.22296  0.01411  Biso   1.000  C
  C22      1.0000 0.57054  0.72296  0.01411  Biso   1.000  C
  C23      1.0000 0.92946  0.22296  0.48589  Biso   1.000  C
  C24      1.0000 0.42946  0.72296  0.48589  Biso   1.000  C
  C25      1.0000 0.83479  0.30745  0.77818  Biso   1.000  C
  C26      1.0000 0.33479  0.80745  0.77818  Biso   1.000  C
  C27      1.0000 0.16521  0.30745  0.72182  Biso   1.000  C
  C28      1.0000 0.66521  0.80745  0.72182  Biso   1.000  C
  C29      1.0000 0.16521  0.69255  0.22182  Biso   1.000  C
  C30      1.0000 0.66521  0.19255  0.22182  Biso   1.000  C
  C31      1.0000 0.83479  0.69255  0.27818  Biso   1.000  C
  C32      1.0000 0.33479  0.19255  0.27818  Biso   1.000  C
  C33      1.0000 0.68656  0.99202  0.91528  Biso   1.000  C
  C34      1.0000 0.18656  0.49202  0.91528  Biso   1.000  C
  C35      1.0000 0.31344  0.99202  0.58472  Biso   1.000  C
  C36      1.0000 0.81344  0.49202  0.58472  Biso   1.000  C
  C37      1.0000 0.31344  0.00798  0.08472  Biso   1.000  C
  C38      1.0000 0.81344  0.50798  0.08472  Biso   1.000  C
  C39      1.0000 0.68656  0.00798  0.41528  Biso   1.000  C
  C40      1.0000 0.18656  0.50798  0.41528  Biso   1.000  C
  C41      1.0000 0.71582  0.16027  0.77571  Biso   1.000  C
  C42      1.0000 0.21582  0.66027  0.77571  Biso   1.000  C
  C43      1.0000 0.28418  0.16027  0.72429  Biso   1.000  C
  C44      1.0000 0.78418  0.66027  0.72429  Biso   1.000  C
  C45      1.0000 0.28418  0.83973  0.22429  Biso   1.000  C
  C46      1.0000 0.78418  0.33973  0.22429  Biso   1.000  C
  C47      1.0000 0.71582  0.83973  0.27571  Biso   1.000  C
  C48      1.0000 0.21582  0.33973  0.27571  Biso   1.000  C
  C49      1.0000 0.93358  0.96630  0.14177  Biso   1.000  C
  C50      1.0000 0.43358  0.46630  0.14177  Biso   1.000  C
  C51      1.0000 0.06642  0.96630  0.35823  Biso   1.000  C
  C52      1.0000 0.56642  0.46630  0.35823  Biso   1.000  C
  C53      1.0000 0.06642  0.03370  0.85823  Biso   1.000  C
  C54      1.0000 0.56642  0.53370  0.85823  Biso   1.000  C
  C55      1.0000 0.93358  0.03370  0.64177  Biso   1.000  C
  C56      1.0000 0.43358  0.53370  0.64177  Biso   1.000  C
  C57      1.0000 0.98717  0.14670  0.12554  Biso   1.000  C
  C58      1.0000 0.48717  0.64670  0.12554  Biso   1.000  C
  C59      1.0000 0.01283  0.14670  0.37446  Biso   1.000  C
  C60      1.0000 0.51283  0.64670  0.37446  Biso   1.000  C
  C61      1.0000 0.01283  0.85330  0.87446  Biso   1.000  C
  C62      1.0000 0.51283  0.35330  0.87446  Biso   1.000  C
  C63      1.0000 0.98717  0.85330  0.62554  Biso   1.000  C
  C64      1.0000 0.48717  0.35330  0.62554  Biso   1.000  C
  C65      1.0000 0.01930  0.76616  0.93004  Biso   1.000  C
  C66      1.0000 0.51930  0.26616  0.93004  Biso   1.000  C
  C67      1.0000 0.98070  0.76616  0.56996  Biso   1.000  C
  C68      1.0000 0.48070  0.26616  0.56996  Biso   1.000  C
  C69      1.0000 0.98070  0.23384  0.06996  Biso   1.000  C
  C70      1.0000 0.48070  0.73384  0.06996  Biso   1.000  C
  C71      1.0000 0.01930  0.23384  0.43004  Biso   1.000  C
  C72      1.0000 0.51930  0.73384  0.43004  Biso   1.000  C
  H1       1.0000 0.83900  0.79610  0.95930  Biso   1.000  H
  H2       1.0000 0.33900  0.29610  0.95930  Biso   1.000  H
  H3       1.0000 0.16100  0.79610  0.54070  Biso   1.000  H
  H4       1.0000 0.66100  0.29610  0.54070  Biso   1.000  H
  H5       1.0000 0.16100  0.20390  0.04070  Biso   1.000  H
  H6       1.0000 0.66100  0.70390  0.04070  Biso   1.000  H
  H7       1.0000 0.83900  0.20390  0.45930  Biso   1.000  H
  H8       1.0000 0.33900  0.70390  0.45930  Biso   1.000  H
  H9       1.0000 0.87700  0.97570  0.17760  Biso   1.000  H
  H10      1.0000 0.37700  0.47570  0.17760  Biso   1.000  H
  H11      1.0000 0.12300  0.97570  0.32240  Biso   1.000  H
  H12      1.0000 0.62300  0.47570  0.32240  Biso   1.000  H
  H13      1.0000 0.12300  0.02430  0.82240  Biso   1.000  H
  H14      1.0000 0.62300  0.52430  0.82240  Biso   1.000  H
  H15      1.0000 0.87700  0.02430  0.67760  Biso   1.000  H
  H16      1.0000 0.37700  0.52430  0.67760  Biso   1.000  H
  H17      1.0000 0.79860  0.87750  0.06880  Biso   1.000  H
  H18      1.0000 0.29860  0.37750  0.06880  Biso   1.000  H
  H19      1.0000 0.20140  0.87750  0.43120  Biso   1.000  H
  H20      1.0000 0.70140  0.37750  0.43120  Biso   1.000  H
  H21      1.0000 0.20140  0.12250  0.93120  Biso   1.000  H
  H22      1.0000 0.70140  0.62250  0.93120  Biso   1.000  H
  H23      1.0000 0.79860  0.12250  0.56880  Biso   1.000  H
  H24      1.0000 0.29860  0.62250  0.56880  Biso   1.000  H
  H25      1.0000 0.84100  0.06590  0.07220  Biso   1.000  H
  H26      1.0000 0.34100  0.56590  0.07220  Biso   1.000  H
  H27      1.0000 0.15900  0.06590  0.42780  Biso   1.000  H
  H28      1.0000 0.65900  0.56590  0.42780  Biso   1.000  H
  H29      1.0000 0.15900  0.93410  0.92780  Biso   1.000  H
  H30      1.0000 0.65900  0.43410  0.92780  Biso   1.000  H
  H31      1.0000 0.84100  0.93410  0.57220  Biso   1.000  H
  H32      1.0000 0.34100  0.43410  0.57220  Biso   1.000  H
  H33      1.0000 0.02600  0.96180  0.17000  Biso   1.000  H
  H34      1.0000 0.52600  0.46180  0.17000  Biso   1.000  H
  H35      1.0000 0.97400  0.96180  0.33000  Biso   1.000  H
  H36      1.0000 0.47400  0.46180  0.33000  Biso   1.000  H
  H37      1.0000 0.97400  0.03820  0.83000  Biso   1.000  H
  H38      1.0000 0.47400  0.53820  0.83000  Biso   1.000  H
  H39      1.0000 0.02600  0.03820  0.67000  Biso   1.000  H
  H40      1.0000 0.52600  0.53820  0.67000  Biso   1.000  H
  H41      1.0000 0.89300  0.81090  0.13020  Biso   1.000  H
  H42      1.0000 0.39300  0.31090  0.13020  Biso   1.000  H
  H43      1.0000 0.10700  0.81090  0.36980  Biso   1.000  H
  H44      1.0000 0.60700  0.31090  0.36980  Biso   1.000  H
  H45      1.0000 0.10700  0.18910  0.86980  Biso   1.000  H
  H46      1.0000 0.60700  0.68910  0.86980  Biso   1.000  H
  H47      1.0000 0.89300  0.18910  0.63020  Biso   1.000  H
  H48      1.0000 0.39300  0.68910  0.63020  Biso   1.000  H
  H49      1.0000 0.11300  0.75760  0.95810  Biso   1.000  H
  H50      1.0000 0.61300  0.25760  0.95810  Biso   1.000  H
  H51      1.0000 0.88700  0.75760  0.54190  Biso   1.000  H
  H52      1.0000 0.38700  0.25760  0.54190  Biso   1.000  H
  H53      1.0000 0.88700  0.24240  0.04190  Biso   1.000  H
  H54      1.0000 0.38700  0.74240  0.04190  Biso   1.000  H
  H55      1.0000 0.11300  0.24240  0.45810  Biso   1.000  H
  H56      1.0000 0.61300  0.74240  0.45810  Biso   1.000  H
  H57      1.0000 0.92100  0.71150  0.01160  Biso   1.000  H
  H58      1.0000 0.42100  0.21150  0.01160  Biso   1.000  H
  H59      1.0000 0.07900  0.71150  0.48840  Biso   1.000  H
  H60      1.0000 0.57900  0.21150  0.48840  Biso   1.000  H
  H61      1.0000 0.07900  0.28850  0.98840  Biso   1.000  H
  H62      1.0000 0.57900  0.78850  0.98840  Biso   1.000  H
  H63      1.0000 0.92100  0.28850  0.51160  Biso   1.000  H
  H64      1.0000 0.42100  0.78850  0.51160  Biso   1.000  H
  H65      1.0000 0.99500  0.70100  0.90170  Biso   1.000  H
  H66      1.0000 0.49500  0.20100  0.90170  Biso   1.000  H
  H67      1.0000 0.00500  0.70100  0.59830  Biso   1.000  H
  H68      1.0000 0.50500  0.20100  0.59830  Biso   1.000  H
  H69      1.0000 0.00500  0.29900  0.09830  Biso   1.000  H
  H70      1.0000 0.50500  0.79900  0.09830  Biso   1.000  H
  H71      1.0000 0.99500  0.29900  0.40170  Biso   1.000  H
  H72      1.0000 0.49500  0.79900  0.40170  Biso   1.000  H
  H73      1.0000 0.07600  0.13170  0.14550  Biso   1.000  H
  H74      1.0000 0.57600  0.63170  0.14550  Biso   1.000  H
  H75      1.0000 0.92400  0.13170  0.35450  Biso   1.000  H
  H76      1.0000 0.42400  0.63170  0.35450  Biso   1.000  H
  H77      1.0000 0.92400  0.86830  0.85450  Biso   1.000  H
  H78      1.0000 0.42400  0.36830  0.85450  Biso   1.000  H
  H79      1.0000 0.07600  0.86830  0.64550  Biso   1.000  H
  H80      1.0000 0.57600  0.36830  0.64550  Biso   1.000  H
  H81      1.0000 0.05600  0.83620  0.06830  Biso   1.000  H
  H82      1.0000 0.55600  0.33620  0.06830  Biso   1.000  H
  H83      1.0000 0.94400  0.83620  0.43170  Biso   1.000  H
  H84      1.0000 0.44400  0.33620  0.43170  Biso   1.000  H
  H85      1.0000 0.94400  0.16380  0.93170  Biso   1.000  H
  H86      1.0000 0.44400  0.66380  0.93170  Biso   1.000  H
  H87      1.0000 0.05600  0.16380  0.56830  Biso   1.000  H
  H88      1.0000 0.55600  0.66380  0.56830  Biso   1.000  H
  H89      1.0000 0.94300  0.16760  0.16660  Biso   1.000  H
  H90      1.0000 0.44300  0.66760  0.16660  Biso   1.000  H
  H91      1.0000 0.05700  0.16760  0.33340  Biso   1.000  H
  H92      1.0000 0.55700  0.66760  0.33340  Biso   1.000  H
  H93      1.0000 0.05700  0.83240  0.83340  Biso   1.000  H
  H94      1.0000 0.55700  0.33240  0.83340  Biso   1.000  H
  H95      1.0000 0.94300  0.83240  0.66660  Biso   1.000  H
  H96      1.0000 0.44300  0.33240  0.66660  Biso   1.000  H
