data_image0
_cell_length_a       11.3592
_cell_length_b       13.2634
_cell_length_c       6.9315
_cell_angle_alpha    90
_cell_angle_beta     90
_cell_angle_gamma    90

_symmetry_space_group_name_H-M    "P 1"
_symmetry_int_tables_number       1

loop_
  _symmetry_equiv_pos_as_xyz
  'x, y, z'

loop_
  _atom_site_label
  _atom_site_occupancy
  _atom_site_fract_x
  _atom_site_fract_y
  _atom_site_fract_z
  _atom_site_thermal_displace_type
  _atom_site_B_iso_or_equiv
  _atom_site_type_symbol
  Cu1      1.0000 0.50000  0.29782  0.77180  Biso   1.000  Cu
  Cu2      1.0000 0.00000  0.70218  0.27180  Biso   1.000  Cu
  N1       1.0000 0.61400  0.18544  0.77010  Biso   1.000  N
  N2       1.0000 0.88600  0.81456  0.27010  Biso   1.000  N
  N3       1.0000 0.11400  0.81456  0.27010  Biso   1.000  N
  N4       1.0000 0.38600  0.18544  0.77010  Biso   1.000  N
  N5       1.0000 0.61930  0.40760  0.76800  Biso   1.000  N
  N6       1.0000 0.88070  0.59240  0.26800  Biso   1.000  N
  N7       1.0000 0.11930  0.59240  0.26800  Biso   1.000  N
  N8       1.0000 0.38070  0.40760  0.76800  Biso   1.000  N
  C1       1.0000 0.73610  0.19100  0.77850  Biso   1.000  C
  C2       1.0000 0.76390  0.80900  0.27850  Biso   1.000  C
  C3       1.0000 0.23610  0.80900  0.27850  Biso   1.000  C
  C4       1.0000 0.26390  0.19100  0.77850  Biso   1.000  C
  H1       1.0000 0.77310  0.25350  0.78250  Biso   1.000  H
  H2       1.0000 0.72690  0.74650  0.28250  Biso   1.000  H
  H3       1.0000 0.27310  0.74650  0.28250  Biso   1.000  H
  H4       1.0000 0.22690  0.25350  0.78250  Biso   1.000  H
  C5       1.0000 0.80280  0.10310  0.78090  Biso   1.000  C
  C6       1.0000 0.69720  0.89690  0.28090  Biso   1.000  C
  C7       1.0000 0.30280  0.89690  0.28090  Biso   1.000  C
  C8       1.0000 0.19720  0.10310  0.78090  Biso   1.000  C
  H5       1.0000 0.88450  0.10680  0.78650  Biso   1.000  H
  H6       1.0000 0.61550  0.89320  0.28650  Biso   1.000  H
  H7       1.0000 0.38450  0.89320  0.28650  Biso   1.000  H
  H8       1.0000 0.11550  0.10680  0.78650  Biso   1.000  H
  C9       1.0000 0.74740  0.00970  0.77490  Biso   1.000  C
  C10      1.0000 0.75260  0.99030  0.27490  Biso   1.000  C
  C11      1.0000 0.24740  0.99030  0.27490  Biso   1.000  C
  C12      1.0000 0.25260  0.00970  0.77490  Biso   1.000  C
  H9       1.0000 0.79200  0.95090  0.77650  Biso   1.000  H
  H10      1.0000 0.70800  0.04910  0.27650  Biso   1.000  H
  H11      1.0000 0.29200  0.04910  0.27650  Biso   1.000  H
  H12      1.0000 0.20800  0.95090  0.77650  Biso   1.000  H
  C13      1.0000 0.62530  0.00419  0.76650  Biso   1.000  C
  C14      1.0000 0.87470  0.99581  0.26650  Biso   1.000  C
  C15      1.0000 0.12530  0.99581  0.26650  Biso   1.000  C
  C16      1.0000 0.37470  0.00419  0.76650  Biso   1.000  C
  C17      1.0000 0.55860  0.09200  0.76410  Biso   1.000  C
  C18      1.0000 0.94140  0.90800  0.26410  Biso   1.000  C
  C19      1.0000 0.05860  0.90800  0.26410  Biso   1.000  C
  C20      1.0000 0.44140  0.09200  0.76410  Biso   1.000  C
  C21      1.0000 0.56230  0.91150  0.77900  Biso   1.000  C
  C22      1.0000 0.93770  0.08850  0.27900  Biso   1.000  C
  C23      1.0000 0.06230  0.08850  0.27900  Biso   1.000  C
  C24      1.0000 0.43770  0.91150  0.77900  Biso   1.000  C
  Cl1      1.0000 0.61560  0.79740  0.78400  Biso   1.000  Cl
  Cl2      1.0000 0.88440  0.20260  0.28400  Biso   1.000  Cl
  Cl3      1.0000 0.11560  0.20260  0.28400  Biso   1.000  Cl
  Cl4      1.0000 0.38440  0.79740  0.78400  Biso   1.000  Cl
  C25      1.0000 0.66910  0.47960  0.78100  Biso   1.000  C
  C26      1.0000 0.83090  0.52040  0.28100  Biso   1.000  C
  C27      1.0000 0.16910  0.52040  0.28100  Biso   1.000  C
  C28      1.0000 0.33090  0.47960  0.78100  Biso   1.000  C
  C29      1.0000 0.73040  0.57580  0.77700  Biso   1.000  C
  C30      1.0000 0.76960  0.42420  0.27700  Biso   1.000  C
  C31      1.0000 0.23040  0.42420  0.27700  Biso   1.000  C
  C32      1.0000 0.26960  0.57580  0.77700  Biso   1.000  C
  H13      1.0000 0.74040  0.60010  0.90640  Biso   1.000  H
  H14      1.0000 0.75960  0.39990  0.40640  Biso   1.000  H
  H15      1.0000 0.24040  0.39990  0.40640  Biso   1.000  H
  H16      1.0000 0.25960  0.60010  0.90640  Biso   1.000  H
  H17      1.0000 0.68520  0.62360  0.70400  Biso   1.000  H
  H18      1.0000 0.81480  0.37640  0.20400  Biso   1.000  H
  H19      1.0000 0.18520  0.37640  0.20400  Biso   1.000  H
  H20      1.0000 0.31480  0.62360  0.70400  Biso   1.000  H
  H21      1.0000 0.80620  0.56720  0.71780  Biso   1.000  H
  H22      1.0000 0.69380  0.43280  0.21780  Biso   1.000  H
  H23      1.0000 0.30620  0.43280  0.21780  Biso   1.000  H
  H24      1.0000 0.19380  0.56720  0.71780  Biso   1.000  H
  B1       1.0000 0.50000  0.23640  0.27400  Biso   1.000  B
  B2       1.0000 0.00000  0.76360  0.77400  Biso   1.000  B
  F1       1.0000 0.50000  0.28120  0.42860  Biso   1.000  F
  F2       1.0000 0.00000  0.71880  0.92860  Biso   1.000  F
  F3       1.0000 0.50000  0.13960  0.27600  Biso   1.000  F
  F4       1.0000 0.00000  0.86040  0.77600  Biso   1.000  F
  F5       1.0000 0.50000  0.29800  0.11270  Biso   1.000  F
  F6       1.0000 0.00000  0.70200  0.61270  Biso   1.000  F
  F7       1.0000 0.63420  0.22390  0.26300  Biso   1.000  F
  F8       1.0000 0.86580  0.77610  0.76300  Biso   1.000  F
  F9       1.0000 0.13420  0.77610  0.76300  Biso   1.000  F
  F10      1.0000 0.36580  0.22390  0.26300  Biso   1.000  F
  B3       1.0000 0.00000  0.37130  0.78700  Biso   1.000  B
  B4       1.0000 0.50000  0.62870  0.28700  Biso   1.000  B
  F11      1.0000 0.00000  0.27240  0.74100  Biso   1.000  F
  F12      1.0000 0.50000  0.72760  0.24100  Biso   1.000  F
  F13      1.0000 0.89560  0.39630  0.73200  Biso   1.000  F
  F14      1.0000 0.60440  0.60370  0.23200  Biso   1.000  F
  F15      1.0000 0.39560  0.60370  0.23200  Biso   1.000  F
  F16      1.0000 0.10440  0.39630  0.73200  Biso   1.000  F
  F17      1.0000 0.94000  0.39290  0.91400  Biso   1.000  F
  F18      1.0000 0.56000  0.60710  0.41400  Biso   1.000  F
  F19      1.0000 0.44000  0.60710  0.41400  Biso   1.000  F
  F20      1.0000 0.06000  0.39290  0.91400  Biso   1.000  F
  F21      1.0000 0.94200  0.41600  0.61100  Biso   1.000  F
  F22      1.0000 0.55800  0.58400  0.11100  Biso   1.000  F
  F23      1.0000 0.44200  0.58400  0.11100  Biso   1.000  F
  F24      1.0000 0.05800  0.41600  0.61100  Biso   1.000  F
