data_image0
_cell_length_a       7.814
_cell_length_b       10.3375
_cell_length_c       19.981
_cell_angle_alpha    90
_cell_angle_beta     98.43
_cell_angle_gamma    90

_symmetry_space_group_name_H-M    "P 1"
_symmetry_int_tables_number       1

loop_
  _symmetry_equiv_pos_as_xyz
  'x, y, z'

loop_
  _atom_site_label
  _atom_site_occupancy
  _atom_site_fract_x
  _atom_site_fract_y
  _atom_site_fract_z
  _atom_site_thermal_displace_type
  _atom_site_B_iso_or_equiv
  _atom_site_type_symbol
  Cu1      1.0000 0.35493  0.59829  0.55867  Biso   1.000  Cu
  Cu2      1.0000 0.14507  0.09829  0.94133  Biso   1.000  Cu
  Cu3      1.0000 0.64507  0.40171  0.44133  Biso   1.000  Cu
  Cu4      1.0000 0.85493  0.90171  0.05867  Biso   1.000  Cu
  Mn1      1.0000 0.16542  0.82672  0.31372  Biso   1.000  Mn
  Mn2      1.0000 0.33458  0.32672  0.18628  Biso   1.000  Mn
  Mn3      1.0000 0.83458  0.17328  0.68628  Biso   1.000  Mn
  Mn4      1.0000 0.66542  0.67328  0.81372  Biso   1.000  Mn
  O1       1.0000 0.27470  0.86500  0.41639  Biso   1.000  O
  O2       1.0000 0.22530  0.36500  0.08361  Biso   1.000  O
  O3       1.0000 0.72530  0.13500  0.58361  Biso   1.000  O
  O4       1.0000 0.77470  0.63500  0.91639  Biso   1.000  O
  O5       1.0000 0.13770  0.64300  0.36741  Biso   1.000  O
  O6       1.0000 0.36230  0.14300  0.13259  Biso   1.000  O
  O7       1.0000 0.86230  0.35700  0.63259  Biso   1.000  O
  O8       1.0000 0.63770  0.85700  0.86741  Biso   1.000  O
  O9       1.0000 0.48720  0.65590  0.64560  Biso   1.000  O
  O10      1.0000 0.01280  0.15590  0.85440  Biso   1.000  O
  O11      1.0000 0.51280  0.34410  0.35440  Biso   1.000  O
  O12      1.0000 0.98720  0.84410  0.14560  Biso   1.000  O
  O13      1.0000 0.35380  0.43280  0.59848  Biso   1.000  O
  O14      1.0000 0.14620  0.93280  0.90152  Biso   1.000  O
  O15      1.0000 0.64620  0.56720  0.40152  Biso   1.000  O
  O16      1.0000 0.85380  0.06720  0.09848  Biso   1.000  O
  O17      1.0000 0.57610  0.79560  0.72688  Biso   1.000  O
  O18      1.0000 0.92390  0.29560  0.77312  Biso   1.000  O
  O19      1.0000 0.42390  0.20440  0.27312  Biso   1.000  O
  O20      1.0000 0.07610  0.70440  0.22688  Biso   1.000  O
  O21      1.0000 0.31390  0.22600  0.60777  Biso   1.000  O
  O22      1.0000 0.18610  0.72600  0.89223  Biso   1.000  O
  O23      1.0000 0.68610  0.77400  0.39223  Biso   1.000  O
  O24      1.0000 0.81390  0.27400  0.10777  Biso   1.000  O
  O25      1.0000 0.42430  0.78410  0.29131  Biso   1.000  O
  O26      1.0000 0.07570  0.28410  0.20869  Biso   1.000  O
  O27      1.0000 0.57570  0.21590  0.70869  Biso   1.000  O
  O28      1.0000 0.92430  0.71590  0.79131  Biso   1.000  O
  O29      1.0000 0.91050  0.89360  0.32154  Biso   1.000  O
  O30      1.0000 0.58950  0.39360  0.17846  Biso   1.000  O
  O31      1.0000 0.08950  0.10640  0.67846  Biso   1.000  O
  O32      1.0000 0.41050  0.60640  0.82154  Biso   1.000  O
  O33      1.0000 0.25130  0.93310  0.76767  Biso   1.000  O
  O34      1.0000 0.24870  0.43310  0.73233  Biso   1.000  O
  O35      1.0000 0.74870  0.06690  0.23233  Biso   1.000  O
  O36      1.0000 0.75130  0.56690  0.26767  Biso   1.000  O
  O37      1.0000 0.17100  0.99990  0.24879  Biso   1.000  O
  O38      1.0000 0.32900  0.49990  0.25121  Biso   1.000  O
  O39      1.0000 0.82900  0.00010  0.75121  Biso   1.000  O
  O40      1.0000 0.67100  0.50010  0.74879  Biso   1.000  O
  N1       1.0000 0.36090  0.76400  0.51850  Biso   1.000  N
  N2       1.0000 0.13910  0.26400  0.98150  Biso   1.000  N
  N3       1.0000 0.63910  0.23600  0.48150  Biso   1.000  N
  N4       1.0000 0.86090  0.73600  0.01850  Biso   1.000  N
  N5       1.0000 0.22970  0.54260  0.47112  Biso   1.000  N
  N6       1.0000 0.27030  0.04260  0.02888  Biso   1.000  N
  N7       1.0000 0.77030  0.45740  0.52888  Biso   1.000  N
  N8       1.0000 0.72970  0.95740  0.97112  Biso   1.000  N
  C1       1.0000 0.28890  0.76930  0.45566  Biso   1.000  C
  C2       1.0000 0.21110  0.26930  0.04434  Biso   1.000  C
  C3       1.0000 0.71110  0.23070  0.54434  Biso   1.000  C
  C4       1.0000 0.78890  0.73070  0.95566  Biso   1.000  C
  C5       1.0000 0.20990  0.64040  0.42766  Biso   1.000  C
  C6       1.0000 0.29010  0.14040  0.07234  Biso   1.000  C
  C7       1.0000 0.79010  0.35960  0.57234  Biso   1.000  C
  C8       1.0000 0.70990  0.85960  0.92766  Biso   1.000  C
  C9       1.0000 0.44090  0.88000  0.55180  Biso   1.000  C
  C10      1.0000 0.05910  0.38000  0.94820  Biso   1.000  C
  C11      1.0000 0.55910  0.12000  0.44820  Biso   1.000  C
  C12      1.0000 0.94090  0.62000  0.05180  Biso   1.000  C
  C13      1.0000 0.42740  0.88360  0.62600  Biso   1.000  C
  C14      1.0000 0.07260  0.38360  0.87400  Biso   1.000  C
  C15      1.0000 0.57260  0.11640  0.37400  Biso   1.000  C
  C16      1.0000 0.92740  0.61640  0.12600  Biso   1.000  C
  C17      1.0000 0.50420  0.77060  0.66790  Biso   1.000  C
  C18      1.0000 0.99580  0.27060  0.83210  Biso   1.000  C
  C19      1.0000 0.49580  0.22940  0.33210  Biso   1.000  C
  C20      1.0000 0.00420  0.72940  0.16790  Biso   1.000  C
  C21      1.0000 0.16310  0.41710  0.45560  Biso   1.000  C
  C22      1.0000 0.33690  0.91710  0.04440  Biso   1.000  C
  C23      1.0000 0.83690  0.58290  0.54440  Biso   1.000  C
  C24      1.0000 0.66310  0.08290  0.95560  Biso   1.000  C
  C25      1.0000 0.19350  0.31660  0.50360  Biso   1.000  C
  C26      1.0000 0.30650  0.81660  0.99640  Biso   1.000  C
  C27      1.0000 0.80650  0.68340  0.49640  Biso   1.000  C
  C28      1.0000 0.69350  0.18340  0.00360  Biso   1.000  C
  C29      1.0000 0.29260  0.32640  0.57350  Biso   1.000  C
  C30      1.0000 0.20740  0.82640  0.92650  Biso   1.000  C
  C31      1.0000 0.70740  0.67360  0.42650  Biso   1.000  C
  C32      1.0000 0.79260  0.17360  0.07350  Biso   1.000  C
  C33      1.0000 0.12880  0.19260  0.48590  Biso   1.000  C
  C34      1.0000 0.37120  0.69260  0.01410  Biso   1.000  C
  C35      1.0000 0.87120  0.80740  0.51410  Biso   1.000  C
  C36      1.0000 0.62880  0.30740  0.98590  Biso   1.000  C
  C37      1.0000 0.03850  0.16520  0.42370  Biso   1.000  C
  C38      1.0000 0.46150  0.66520  0.07630  Biso   1.000  C
  C39      1.0000 0.96150  0.83480  0.57630  Biso   1.000  C
  C40      1.0000 0.53850  0.33480  0.92370  Biso   1.000  C
  C41      1.0000 0.00500  0.26330  0.37730  Biso   1.000  C
  C42      1.0000 0.49500  0.76330  0.12270  Biso   1.000  C
  C43      1.0000 0.99500  0.73670  0.62270  Biso   1.000  C
  C44      1.0000 0.50500  0.23670  0.87730  Biso   1.000  C
  C45      1.0000 0.06580  0.38700  0.39280  Biso   1.000  C
  C46      1.0000 0.43420  0.88700  0.10720  Biso   1.000  C
  C47      1.0000 0.93420  0.61300  0.60720  Biso   1.000  C
  C48      1.0000 0.56580  0.11300  0.89280  Biso   1.000  C
  H1       1.0000 0.14600  0.12900  0.52000  Biso   1.000  H
  H2       1.0000 0.35400  0.62900  0.98000  Biso   1.000  H
  H3       1.0000 0.85400  0.87100  0.48000  Biso   1.000  H
  H4       1.0000 0.64600  0.37100  0.02000  Biso   1.000  H
  H5       1.0000 0.00200  0.08900  0.41500  Biso   1.000  H
  H6       1.0000 0.49800  0.58900  0.08500  Biso   1.000  H
  H7       1.0000 0.99800  0.91100  0.58500  Biso   1.000  H
  H8       1.0000 0.50200  0.41100  0.91500  Biso   1.000  H
  H9       1.0000 0.93800  0.24700  0.33300  Biso   1.000  H
  H10      1.0000 0.56200  0.74700  0.16700  Biso   1.000  H
  H11      1.0000 0.06200  0.75300  0.66700  Biso   1.000  H
  H12      1.0000 0.43800  0.25300  0.83300  Biso   1.000  H
  H13      1.0000 0.04800  0.44900  0.36300  Biso   1.000  H
  H14      1.0000 0.45200  0.94900  0.13700  Biso   1.000  H
  H15      1.0000 0.95200  0.55100  0.63700  Biso   1.000  H
  H16      1.0000 0.54800  0.05100  0.86300  Biso   1.000  H
  H17      1.0000 0.39000  0.95200  0.53400  Biso   1.000  H
  H18      1.0000 0.11000  0.45200  0.96600  Biso   1.000  H
  H19      1.0000 0.61000  0.04800  0.46600  Biso   1.000  H
  H20      1.0000 0.89000  0.54800  0.03400  Biso   1.000  H
  H21      1.0000 0.57900  0.88600  0.55000  Biso   1.000  H
  H22      1.0000 0.92100  0.38600  0.95000  Biso   1.000  H
  H23      1.0000 0.42100  0.11400  0.45000  Biso   1.000  H
  H24      1.0000 0.07900  0.61400  0.05000  Biso   1.000  H
  H25      1.0000 0.48000  0.96600  0.64700  Biso   1.000  H
  H26      1.0000 0.02000  0.46600  0.85300  Biso   1.000  H
  H27      1.0000 0.52000  0.03400  0.35300  Biso   1.000  H
  H28      1.0000 0.98000  0.53400  0.14700  Biso   1.000  H
  H29      1.0000 0.29800  0.89000  0.62900  Biso   1.000  H
  H30      1.0000 0.20200  0.39000  0.87100  Biso   1.000  H
  H31      1.0000 0.70200  0.11000  0.37100  Biso   1.000  H
  H32      1.0000 0.79800  0.61000  0.12900  Biso   1.000  H
  H33      1.0000 0.49700  0.77900  0.32400  Biso   1.000  H
  H34      1.0000 0.00300  0.27900  0.17600  Biso   1.000  H
  H35      1.0000 0.50300  0.22100  0.67600  Biso   1.000  H
  H36      1.0000 0.99700  0.72100  0.82400  Biso   1.000  H
  H37      1.0000 0.42000  0.72800  0.27000  Biso   1.000  H
  H38      1.0000 0.08000  0.22800  0.23000  Biso   1.000  H
  H39      1.0000 0.58000  0.27200  0.73000  Biso   1.000  H
  H40      1.0000 0.92000  0.77200  0.77000  Biso   1.000  H
  H41      1.0000 0.86700  0.93400  0.29700  Biso   1.000  H
  H42      1.0000 0.63300  0.43400  0.20300  Biso   1.000  H
  H43      1.0000 0.13300  0.06600  0.70300  Biso   1.000  H
  H44      1.0000 0.36700  0.56600  0.79700  Biso   1.000  H
  H45      1.0000 0.83900  0.85400  0.33800  Biso   1.000  H
  H46      1.0000 0.66100  0.35400  0.16200  Biso   1.000  H
  H47      1.0000 0.16100  0.14600  0.66200  Biso   1.000  H
  H48      1.0000 0.33900  0.64600  0.83800  Biso   1.000  H
  H49      1.0000 0.22500  0.94100  0.80000  Biso   1.000  H
  H50      1.0000 0.27500  0.44100  0.70000  Biso   1.000  H
  H51      1.0000 0.77500  0.05900  0.20000  Biso   1.000  H
  H52      1.0000 0.72500  0.55900  0.30000  Biso   1.000  H
  H53      1.0000 0.33800  0.89300  0.77300  Biso   1.000  H
  H54      1.0000 0.16200  0.39300  0.72700  Biso   1.000  H
  H55      1.0000 0.66200  0.10700  0.22700  Biso   1.000  H
  H56      1.0000 0.83800  0.60700  0.27300  Biso   1.000  H
  H57      1.0000 0.25000  0.03800  0.25000  Biso   1.000  H
  H58      1.0000 0.25000  0.53800  0.25000  Biso   1.000  H
  H59      1.0000 0.75000  0.96200  0.75000  Biso   1.000  H
  H60      1.0000 0.75000  0.46200  0.75000  Biso   1.000  H
  H61      1.0000 0.13700  0.97400  0.20900  Biso   1.000  H
  H62      1.0000 0.36300  0.47400  0.29100  Biso   1.000  H
  H63      1.0000 0.86300  0.02600  0.79100  Biso   1.000  H
  H64      1.0000 0.63700  0.52600  0.70900  Biso   1.000  H
