data_image0
_cell_length_a       7.7544
_cell_length_b       16.983
_cell_length_c       9.0732
_cell_angle_alpha    90
_cell_angle_beta     97.998
_cell_angle_gamma    90

_symmetry_space_group_name_H-M    "P 1"
_symmetry_int_tables_number       1

loop_
  _symmetry_equiv_pos_as_xyz
  'x, y, z'

loop_
  _atom_site_label
  _atom_site_occupancy
  _atom_site_fract_x
  _atom_site_fract_y
  _atom_site_fract_z
  _atom_site_thermal_displace_type
  _atom_site_B_iso_or_equiv
  _atom_site_type_symbol
  Cu1      1.0000 0.00558  0.36865  0.37737  Biso   1.000  Cu
  Cu2      1.0000 0.99442  0.86865  0.62263  Biso   1.000  Cu
  Cu3      1.0000 0.25592  0.31087  0.12546  Biso   1.000  Cu
  Cu4      1.0000 0.74408  0.81087  0.87454  Biso   1.000  Cu
  Cu5      1.0000 0.23006  0.19660  0.40799  Biso   1.000  Cu
  Cu6      1.0000 0.76994  0.69660  0.59201  Biso   1.000  Cu
  O1       1.0000 0.10260  0.27766  0.27430  Biso   1.000  O
  O2       1.0000 0.89740  0.77766  0.72570  Biso   1.000  O
  C1       1.0000 0.97980  0.24980  0.77130  Biso   1.000  C
  C2       1.0000 0.02020  0.74980  0.22870  Biso   1.000  C
  H1       1.0000 0.94110  0.24040  0.86210  Biso   1.000  H
  H2       1.0000 0.05890  0.74040  0.13790  Biso   1.000  H
  N1       1.0000 0.10780  0.23495  0.56750  Biso   1.000  N
  N2       1.0000 0.89220  0.73495  0.43250  Biso   1.000  N
  C3       1.0000 0.99530  0.52270  0.02360  Biso   1.000  C
  C4       1.0000 0.00470  0.02270  0.97640  Biso   1.000  C
  H3       1.0000 0.95940  0.56690  0.96710  Biso   1.000  H
  H4       1.0000 0.04060  0.06690  0.03290  Biso   1.000  H
  N3       1.0000 0.33230  0.20183  0.11530  Biso   1.000  N
  N4       1.0000 0.66770  0.70183  0.88470  Biso   1.000  N
  N5       1.0000 0.02880  0.30669  0.55880  Biso   1.000  N
  N6       1.0000 0.97120  0.80669  0.44120  Biso   1.000  N
  O3       1.0000 0.71090  0.35034  0.30840  Biso   1.000  O
  O4       1.0000 0.28910  0.85034  0.69160  Biso   1.000  O
  N7       1.0000 0.01940  0.43071  0.20000  Biso   1.000  N
  N8       1.0000 0.98060  0.93071  0.80000  Biso   1.000  N
  N9       1.0000 0.37180  0.05127  0.57610  Biso   1.000  N
  N10      1.0000 0.62820  0.55127  0.42390  Biso   1.000  N
  H5       1.0000 0.28100  0.02390  0.54400  Biso   1.000  H
  H6       1.0000 0.71900  0.52390  0.45600  Biso   1.000  H
  C5       1.0000 0.60960  0.31910  0.38320  Biso   1.000  C
  C6       1.0000 0.39040  0.81910  0.61680  Biso   1.000  C
  C7       1.0000 0.41050  0.16110  0.01770  Biso   1.000  C
  C8       1.0000 0.58950  0.66110  0.98230  Biso   1.000  C
  H7       1.0000 0.43130  0.18000  0.92560  Biso   1.000  H
  H8       1.0000 0.56870  0.68000  0.07440  Biso   1.000  H
  C9       1.0000 0.45570  0.08770  0.07200  Biso   1.000  C
  C10      1.0000 0.54430  0.58770  0.92800  Biso   1.000  C
  H9       1.0000 0.51140  0.04780  0.02640  Biso   1.000  H
  H10      1.0000 0.48860  0.54780  0.97360  Biso   1.000  H
  C11      1.0000 0.39990  0.08610  0.21050  Biso   1.000  C
  C12      1.0000 0.60010  0.58610  0.78950  Biso   1.000  C
  H11      1.0000 0.41180  0.04360  0.27570  Biso   1.000  H
  H12      1.0000 0.58820  0.54360  0.72430  Biso   1.000  H
  N11      1.0000 0.13220  0.41185  0.10380  Biso   1.000  N
  N12      1.0000 0.86780  0.91185  0.89620  Biso   1.000  N
  N13      1.0000 0.41460  0.34391  0.97880  Biso   1.000  N
  N14      1.0000 0.58540  0.84391  0.02120  Biso   1.000  N
  O5       1.0000 0.94320  0.46620  0.48790  Biso   1.000  O
  O6       1.0000 0.05680  0.96620  0.51210  Biso   1.000  O
  N15      1.0000 0.32620  0.15511  0.23610  Biso   1.000  N
  N16      1.0000 0.67380  0.65511  0.76390  Biso   1.000  N
  C13      1.0000 0.04640  0.51090  0.56870  Biso   1.000  C
  C14      1.0000 0.95360  0.01090  0.43130  Biso   1.000  C
  O7       1.0000 0.44920  0.31837  0.36090  Biso   1.000  O
  O8       1.0000 0.55080  0.81837  0.63910  Biso   1.000  O
  C15      1.0000 0.95070  0.31570  0.68180  Biso   1.000  C
  C16      1.0000 0.04930  0.81570  0.31820  Biso   1.000  C
  H13      1.0000 0.88680  0.35960  0.70300  Biso   1.000  H
  H14      1.0000 0.11320  0.85960  0.29700  Biso   1.000  H
  O9       1.0000 0.00340  0.57203  0.62540  Biso   1.000  O
  O10      1.0000 0.99660  0.07203  0.37460  Biso   1.000  O
  C17      1.0000 0.11960  0.46760  0.99830  Biso   1.000  C
  C18      1.0000 0.88040  0.96760  0.00170  Biso   1.000  C
  H15      1.0000 0.18470  0.46900  0.91970  Biso   1.000  H
  H16      1.0000 0.81530  0.96900  0.08030  Biso   1.000  H
  C19      1.0000 0.07830  0.20170  0.69620  Biso   1.000  C
  C20      1.0000 0.92170  0.70170  0.30380  Biso   1.000  C
  H17      1.0000 0.11970  0.15260  0.72950  Biso   1.000  H
  H18      1.0000 0.88030  0.65260  0.27050  Biso   1.000  H
  N17      1.0000 0.39010  0.12862  0.55040  Biso   1.000  N
  N18      1.0000 0.60990  0.62862  0.44960  Biso   1.000  N
  C21      1.0000 0.62840  0.08380  0.69100  Biso   1.000  C
  C22      1.0000 0.37160  0.58380  0.30900  Biso   1.000  C
  H19      1.0000 0.73840  0.08220  0.74680  Biso   1.000  H
  H20      1.0000 0.26160  0.58220  0.25320  Biso   1.000  H
  C23      1.0000 0.93760  0.49690  0.15120  Biso   1.000  C
  C24      1.0000 0.06240  0.99690  0.84880  Biso   1.000  C
  H21      1.0000 0.85310  0.52210  0.19760  Biso   1.000  H
  H22      1.0000 0.14690  0.02210  0.80240  Biso   1.000  H
  C25      1.0000 0.51500  0.02280  0.65880  Biso   1.000  C
  C26      1.0000 0.48500  0.52280  0.34120  Biso   1.000  C
  H23      1.0000 0.53360  0.97080  0.68890  Biso   1.000  H
  H24      1.0000 0.46640  0.47080  0.31110  Biso   1.000  H
  C27      1.0000 0.54430  0.14830  0.62250  Biso   1.000  C
  C28      1.0000 0.45570  0.64830  0.37750  Biso   1.000  C
  H25      1.0000 0.58980  0.19910  0.62650  Biso   1.000  H
  H26      1.0000 0.41020  0.69910  0.37350  Biso   1.000  H
  N19      1.0000 0.57890  0.36460  0.02110  Biso   1.000  N
  N20      1.0000 0.42110  0.86460  0.97890  Biso   1.000  N
  H27      1.0000 0.62800  0.36680  0.11200  Biso   1.000  H
  H28      1.0000 0.37200  0.86680  0.88800  Biso   1.000  H
  C29      1.0000 0.53840  0.37300  0.77820  Biso   1.000  C
  C30      1.0000 0.46160  0.87300  0.22180  Biso   1.000  C
  H29      1.0000 0.55480  0.38190  0.67990  Biso   1.000  H
  H30      1.0000 0.44520  0.88190  0.32010  Biso   1.000  H
  C31      1.0000 0.39040  0.34860  0.82960  Biso   1.000  C
  C32      1.0000 0.60960  0.84860  0.17040  Biso   1.000  C
  H31      1.0000 0.28660  0.33670  0.76940  Biso   1.000  H
  H32      1.0000 0.71340  0.83670  0.23060  Biso   1.000  H
  C33      1.0000 0.65740  0.38160  0.90320  Biso   1.000  C
  C34      1.0000 0.34260  0.88160  0.09680  Biso   1.000  C
  H33      1.0000 0.77310  0.39670  0.90560  Biso   1.000  H
  H34      1.0000 0.22690  0.89670  0.09440  Biso   1.000  H
  O11      1.0000 0.84200  0.17870  0.16420  Biso   1.000  O
  O12      1.0000 0.15800  0.67870  0.83580  Biso   1.000  O
  H35      1.0000 0.84500  0.16000  0.26400  Biso   1.000  H
  H36      1.0000 0.15500  0.66000  0.73600  Biso   1.000  H
  H37      1.0000 0.77600  0.17900  0.24200  Biso   1.000  H
  H38      1.0000 0.22400  0.67900  0.75800  Biso   1.000  H
  H39      1.0000 0.02200  0.25100  0.22400  Biso   1.000  H
  H40      1.0000 0.97800  0.75100  0.77600  Biso   1.000  H
  H41      1.0000 0.65900  0.30200  0.47500  Biso   1.000  H
  H42      1.0000 0.34100  0.80200  0.52500  Biso   1.000  H
  H43      1.0000 0.17300  0.49500  0.57000  Biso   1.000  H
  H44      1.0000 0.82700  0.99500  0.43000  Biso   1.000  H
