data_image0
_cell_length_a       10.3056
_cell_length_b       10.7908
_cell_length_c       11.2778
_cell_angle_alpha    99.1881
_cell_angle_beta     114.487
_cell_angle_gamma    90.8244

_symmetry_space_group_name_H-M    "P 1"
_symmetry_int_tables_number       1

loop_
  _symmetry_equiv_pos_as_xyz
  'x, y, z'

loop_
  _atom_site_label
  _atom_site_occupancy
  _atom_site_fract_x
  _atom_site_fract_y
  _atom_site_fract_z
  _atom_site_thermal_displace_type
  _atom_site_B_iso_or_equiv
  _atom_site_type_symbol
  Cu1      1.0000 0.82523  0.34358  0.34899  Biso   1.000  Cu
  Cu2      1.0000 0.17477  0.65642  0.65101  Biso   1.000  Cu
  Cu3      1.0000 0.66519  0.53513  0.13035  Biso   1.000  Cu
  Cu4      1.0000 0.33481  0.46487  0.86965  Biso   1.000  Cu
  Cu5      1.0000 0.78395  0.64238  0.45988  Biso   1.000  Cu
  Cu6      1.0000 0.21605  0.35762  0.54012  Biso   1.000  Cu
  O1       1.0000 0.71849  0.49425  0.31130  Biso   1.000  O
  O2       1.0000 0.28151  0.50575  0.68870  Biso   1.000  O
  C1       1.0000 0.62067  0.61388  0.87261  Biso   1.000  C
  C2       1.0000 0.37933  0.38612  0.12739  Biso   1.000  C
  C3       1.0000 0.96410  0.43190  0.75456  Biso   1.000  C
  C4       1.0000 0.03590  0.56810  0.24544  Biso   1.000  C
  H1       1.0000 0.99960  0.41610  0.84060  Biso   1.000  H
  H2       1.0000 0.00040  0.58390  0.15940  Biso   1.000  H
  O3       1.0000 0.57589  0.55792  0.94204  Biso   1.000  O
  O4       1.0000 0.42411  0.44208  0.05796  Biso   1.000  O
  N1       1.0000 0.87558  0.52837  0.58110  Biso   1.000  N
  N2       1.0000 0.12442  0.47163  0.41890  Biso   1.000  N
  C5       1.0000 0.60520  0.90980  0.22870  Biso   1.000  C
  C6       1.0000 0.39480  0.09020  0.77130  Biso   1.000  C
  H3       1.0000 0.57380  0.98840  0.21270  Biso   1.000  H
  H4       1.0000 0.42620  0.01160  0.78730  Biso   1.000  H
  O5       1.0000 0.89965  0.17990  0.38433  Biso   1.000  O
  O6       1.0000 0.10035  0.82010  0.61567  Biso   1.000  O
  N3       1.0000 0.88761  0.40628  0.53588  Biso   1.000  N
  N4       1.0000 0.11239  0.59372  0.46412  Biso   1.000  N
  O7       1.0000 0.12169  0.20556  0.39873  Biso   1.000  O
  O8       1.0000 0.87831  0.79444  0.60127  Biso   1.000  O
  N5       1.0000 0.70194  0.75230  0.33127  Biso   1.000  N
  N6       1.0000 0.29806  0.24770  0.66873  Biso   1.000  N
  N7       1.0000 0.76697  0.28883  0.16031  Biso   1.000  N
  N8       1.0000 0.23303  0.71117  0.83969  Biso   1.000  N
  C7       1.0000 0.77580  0.80540  0.88670  Biso   1.000  C
  C8       1.0000 0.22420  0.19460  0.11330  Biso   1.000  C
  H5       1.0000 0.87080  0.84690  0.93400  Biso   1.000  H
  H6       1.0000 0.12920  0.15310  0.06600  Biso   1.000  H
  H7       1.0000 0.70830  0.86090  0.89830  Biso   1.000  H
  H8       1.0000 0.29170  0.13910  0.10170  Biso   1.000  H
  H9       1.0000 0.75420  0.78370  0.79420  Biso   1.000  H
  H10      1.0000 0.24580  0.21630  0.20580  Biso   1.000  H
  N9       1.0000 0.73002  0.37550  0.07867  Biso   1.000  N
  N10      1.0000 0.26998  0.62450  0.92133  Biso   1.000  N
  N11      1.0000 0.65052  0.70874  0.19826  Biso   1.000  N
  N12      1.0000 0.34948  0.29126  0.80174  Biso   1.000  N
  O9       1.0000 0.54836  0.60755  0.75159  Biso   1.000  O
  O10      1.0000 0.45164  0.39245  0.24841  Biso   1.000  O
  O11      1.0000 0.58730  0.64062  0.51553  Biso   1.000  O
  O12      1.0000 0.41270  0.35938  0.48447  Biso   1.000  O
  H11      1.0000 0.59000  0.62500  0.57600  Biso   1.000  H
  H12      1.0000 0.41000  0.37500  0.42400  Biso   1.000  H
  C9       1.0000 0.43210  0.80700  0.51880  Biso   1.000  C
  C10      1.0000 0.56790  0.19300  0.48120  Biso   1.000  C
  H13      1.0000 0.33990  0.83350  0.46800  Biso   1.000  H
  H14      1.0000 0.66010  0.16650  0.53200  Biso   1.000  H
  H15      1.0000 0.50540  0.87010  0.53120  Biso   1.000  H
  H16      1.0000 0.49460  0.12990  0.46880  Biso   1.000  H
  H17      1.0000 0.43800  0.79550  0.60350  Biso   1.000  H
  H18      1.0000 0.56200  0.20450  0.39650  Biso   1.000  H
  C11      1.0000 0.00880  0.99785  0.33830  Biso   1.000  C
  C12      1.0000 0.99120  0.00215  0.66170  Biso   1.000  C
  H19      1.0000 0.05290  0.96270  0.41840  Biso   1.000  H
  H20      1.0000 0.94710  0.03730  0.58160  Biso   1.000  H
  H21      1.0000 0.91010  0.96190  0.29210  Biso   1.000  H
  H22      1.0000 0.08990  0.03810  0.70790  Biso   1.000  H
  C13      1.0000 0.92190  0.54403  0.71263  Biso   1.000  C
  C14      1.0000 0.07810  0.45597  0.28737  Biso   1.000  C
  H23      1.0000 0.92520  0.61920  0.76760  Biso   1.000  H
  H24      1.0000 0.07480  0.38080  0.23240  Biso   1.000  H
  C15      1.0000 0.94200  0.34886  0.64087  Biso   1.000  C
  C16      1.0000 0.05800  0.65114  0.35913  Biso   1.000  C
  H25      1.0000 0.96190  0.26490  0.63730  Biso   1.000  H
  H26      1.0000 0.03810  0.73510  0.36270  Biso   1.000  H
  C17      1.0000 0.59290  0.80410  0.13710  Biso   1.000  C
  C18      1.0000 0.40710  0.19590  0.86290  Biso   1.000  C
  H27      1.0000 0.55060  0.79960  0.04580  Biso   1.000  H
  H28      1.0000 0.44940  0.20040  0.95420  Biso   1.000  H
  C19      1.0000 0.67410  0.87317  0.34920  Biso   1.000  C
  C20      1.0000 0.32590  0.12683  0.65080  Biso   1.000  C
  H29      1.0000 0.69790  0.92450  0.43110  Biso   1.000  H
  H30      1.0000 0.30210  0.07550  0.56890  Biso   1.000  H
  C21      1.0000 0.76630  0.68700  0.93960  Biso   1.000  C
  C22      1.0000 0.23370  0.31300  0.06040  Biso   1.000  C
  H31      1.0000 0.83640  0.63260  0.92920  Biso   1.000  H
  H32      1.0000 0.16360  0.36740  0.07080  Biso   1.000  H
  H33      1.0000 0.79130  0.70980  0.03370  Biso   1.000  H
  H34      1.0000 0.20870  0.29020  0.96630  Biso   1.000  H
  C23      1.0000 0.01060  0.13936  0.37641  Biso   1.000  C
  C24      1.0000 0.98940  0.86064  0.62359  Biso   1.000  C
  C25      1.0000 0.76840  0.20020  0.96920  Biso   1.000  C
  C26      1.0000 0.23160  0.79980  0.03080  Biso   1.000  C
  H35      1.0000 0.77780  0.14240  0.90320  Biso   1.000  H
  H36      1.0000 0.22220  0.85760  0.09680  Biso   1.000  H
  C27      1.0000 0.08570  0.95940  0.25120  Biso   1.000  C
  C28      1.0000 0.91430  0.04060  0.74880  Biso   1.000  C
  H37      1.0000 0.08050  0.86910  0.23080  Biso   1.000  H
  H38      1.0000 0.91950  0.13090  0.76920  Biso   1.000  H
  H39      1.0000 0.18420  0.99270  0.29700  Biso   1.000  H
  H40      1.0000 0.81580  0.00730  0.70300  Biso   1.000  H
  H41      1.0000 0.04120  0.99190  0.17050  Biso   1.000  H
  H42      1.0000 0.95880  0.00810  0.82950  Biso   1.000  H
  C29      1.0000 0.78830  0.18260  0.09270  Biso   1.000  C
  C30      1.0000 0.21170  0.81740  0.90730  Biso   1.000  C
  H43      1.0000 0.81290  0.10830  0.12520  Biso   1.000  H
  H44      1.0000 0.18710  0.89170  0.87480  Biso   1.000  H
  C31      1.0000 0.73150  0.32220  0.96370  Biso   1.000  C
  C32      1.0000 0.26850  0.67780  0.03630  Biso   1.000  C
  H45      1.0000 0.71080  0.36150  0.89100  Biso   1.000  H
  H46      1.0000 0.28920  0.63850  0.10900  Biso   1.000  H
  C33      1.0000 0.45210  0.68620  0.44710  Biso   1.000  C
  C34      1.0000 0.54790  0.31380  0.55290  Biso   1.000  C
  H47      1.0000 0.37680  0.62330  0.43370  Biso   1.000  H
  H48      1.0000 0.62320  0.37670  0.56630  Biso   1.000  H
  H49      1.0000 0.44290  0.69790  0.36050  Biso   1.000  H
  H50      1.0000 0.55710  0.30210  0.63950  Biso   1.000  H
  H51      1.0000 0.64700  0.47500  0.30400  Biso   1.000  H
  H52      1.0000 0.35300  0.52500  0.69600  Biso   1.000  H
