data_image0
_cell_length_a       5.7487
_cell_length_b       17.7911
_cell_length_c       13.5036
_cell_angle_alpha    90
_cell_angle_beta     94.708
_cell_angle_gamma    90

_symmetry_space_group_name_H-M    "P 1"
_symmetry_int_tables_number       1

loop_
  _symmetry_equiv_pos_as_xyz
  'x, y, z'

loop_
  _atom_site_label
  _atom_site_occupancy
  _atom_site_fract_x
  _atom_site_fract_y
  _atom_site_fract_z
  _atom_site_thermal_displace_type
  _atom_site_B_iso_or_equiv
  _atom_site_type_symbol
  Cu1      1.0000 0.37444  0.05536  0.30712  Biso   1.000  Cu
  Cu2      1.0000 0.12556  0.55536  0.19288  Biso   1.000  Cu
  Cu3      1.0000 0.62556  0.94464  0.69288  Biso   1.000  Cu
  Cu4      1.0000 0.87444  0.44464  0.80712  Biso   1.000  Cu
  S1       1.0000 0.37310  0.15840  0.40957  Biso   1.000  S
  S2       1.0000 0.12690  0.65840  0.09043  Biso   1.000  S
  S3       1.0000 0.62690  0.84160  0.59043  Biso   1.000  S
  S4       1.0000 0.87310  0.34160  0.90957  Biso   1.000  S
  S5       1.0000 0.77790  0.19790  0.55740  Biso   1.000  S
  S6       1.0000 0.72210  0.69790  0.94260  Biso   1.000  S
  S7       1.0000 0.22210  0.80210  0.44260  Biso   1.000  S
  S8       1.0000 0.27790  0.30210  0.05740  Biso   1.000  S
  S9       1.0000 0.62670  0.12178  0.16696  Biso   1.000  S
  S10      1.0000 0.87330  0.62178  0.33304  Biso   1.000  S
  S11      1.0000 0.37330  0.87822  0.83304  Biso   1.000  S
  S12      1.0000 0.12670  0.37822  0.66696  Biso   1.000  S
  N1       1.0000 0.44850  0.95010  0.24540  Biso   1.000  N
  N2       1.0000 0.05150  0.45010  0.25460  Biso   1.000  N
  N3       1.0000 0.55150  0.04990  0.75460  Biso   1.000  N
  N4       1.0000 0.94850  0.54990  0.74540  Biso   1.000  N
  N5       1.0000 0.64140  0.02580  0.39640  Biso   1.000  N
  N6       1.0000 0.85860  0.52580  0.10360  Biso   1.000  N
  N7       1.0000 0.35860  0.97420  0.60360  Biso   1.000  N
  N8       1.0000 0.14140  0.47420  0.89640  Biso   1.000  N
  N9       1.0000 0.74590  0.07210  0.46910  Biso   1.000  N
  N10      1.0000 0.75410  0.57210  0.03090  Biso   1.000  N
  N11      1.0000 0.25410  0.92790  0.53090  Biso   1.000  N
  N12      1.0000 0.24590  0.42790  0.96910  Biso   1.000  N
  N13      1.0000 0.06530  0.07610  0.24730  Biso   1.000  N
  N14      1.0000 0.43470  0.57610  0.25270  Biso   1.000  N
  N15      1.0000 0.93470  0.92390  0.75270  Biso   1.000  N
  N16      1.0000 0.56530  0.42390  0.74730  Biso   1.000  N
  C1       1.0000 0.17260  0.95220  0.09840  Biso   1.000  C
  C2       1.0000 0.32740  0.45220  0.40160  Biso   1.000  C
  C3       1.0000 0.82740  0.04780  0.90160  Biso   1.000  C
  C4       1.0000 0.67260  0.54780  0.59840  Biso   1.000  C
  H1       1.0000 0.13740  0.00000  0.12650  Biso   1.000  H
  H2       1.0000 0.36260  0.50000  0.37350  Biso   1.000  H
  H3       1.0000 0.86260  0.00000  0.87350  Biso   1.000  H
  H4       1.0000 0.63740  0.50000  0.62650  Biso   1.000  H
  H5       1.0000 0.03470  0.92160  0.09300  Biso   1.000  H
  H6       1.0000 0.46530  0.42160  0.40700  Biso   1.000  H
  H7       1.0000 0.96530  0.07840  0.90700  Biso   1.000  H
  H8       1.0000 0.53470  0.57840  0.59300  Biso   1.000  H
  H9       1.0000 0.22630  0.95950  0.03360  Biso   1.000  H
  H10      1.0000 0.27370  0.45950  0.46640  Biso   1.000  H
  H11      1.0000 0.77370  0.04050  0.96640  Biso   1.000  H
  H12      1.0000 0.72630  0.54050  0.53360  Biso   1.000  H
  C5       1.0000 0.35780  0.91420  0.16360  Biso   1.000  C
  C6       1.0000 0.14220  0.41420  0.33640  Biso   1.000  C
  C7       1.0000 0.64220  0.08580  0.83640  Biso   1.000  C
  C8       1.0000 0.85780  0.58580  0.66360  Biso   1.000  C
  C9       1.0000 0.43990  0.84340  0.13830  Biso   1.000  C
  C10      1.0000 0.06010  0.34340  0.36170  Biso   1.000  C
  C11      1.0000 0.56010  0.15660  0.86170  Biso   1.000  C
  C12      1.0000 0.93990  0.65660  0.63830  Biso   1.000  C
  H13      1.0000 0.37420  0.81900  0.08180  Biso   1.000  H
  H14      1.0000 0.12580  0.31900  0.41820  Biso   1.000  H
  H15      1.0000 0.62580  0.18100  0.91820  Biso   1.000  H
  H16      1.0000 0.87420  0.68100  0.58180  Biso   1.000  H
  C13      1.0000 0.61590  0.81000  0.19610  Biso   1.000  C
  C14      1.0000 0.88410  0.31000  0.30390  Biso   1.000  C
  C15      1.0000 0.38410  0.19000  0.80390  Biso   1.000  C
  C16      1.0000 0.11590  0.69000  0.69610  Biso   1.000  C
  H17      1.0000 0.66960  0.76260  0.17990  Biso   1.000  H
  H18      1.0000 0.83040  0.26260  0.32010  Biso   1.000  H
  H19      1.0000 0.33040  0.23740  0.82010  Biso   1.000  H
  H20      1.0000 0.16960  0.73740  0.67990  Biso   1.000  H
  C17      1.0000 0.71260  0.84680  0.27800  Biso   1.000  C
  C18      1.0000 0.78740  0.34680  0.22200  Biso   1.000  C
  C19      1.0000 0.28740  0.15320  0.72200  Biso   1.000  C
  C20      1.0000 0.21260  0.65320  0.77800  Biso   1.000  C
  H21      1.0000 0.83440  0.82510  0.31770  Biso   1.000  H
  H22      1.0000 0.66560  0.32510  0.18230  Biso   1.000  H
  H23      1.0000 0.16560  0.17490  0.68230  Biso   1.000  H
  H24      1.0000 0.33440  0.67490  0.81770  Biso   1.000  H
  C21      1.0000 0.62800  0.91690  0.30170  Biso   1.000  C
  C22      1.0000 0.87200  0.41690  0.19830  Biso   1.000  C
  C23      1.0000 0.37200  0.08310  0.69830  Biso   1.000  C
  C24      1.0000 0.12800  0.58310  0.80170  Biso   1.000  C
  C25      1.0000 0.73250  0.96130  0.38310  Biso   1.000  C
  C26      1.0000 0.76750  0.46130  0.11690  Biso   1.000  C
  C27      1.0000 0.26750  0.03870  0.61690  Biso   1.000  C
  C28      1.0000 0.23250  0.53870  0.88310  Biso   1.000  C
  H25      1.0000 0.85960  0.94390  0.42370  Biso   1.000  H
  H26      1.0000 0.64040  0.44390  0.07630  Biso   1.000  H
  H27      1.0000 0.14040  0.05610  0.57630  Biso   1.000  H
  H28      1.0000 0.35960  0.55610  0.92370  Biso   1.000  H
  C29      1.0000 0.63260  0.13520  0.47370  Biso   1.000  C
  C30      1.0000 0.86740  0.63520  0.02630  Biso   1.000  C
  C31      1.0000 0.36740  0.86480  0.52630  Biso   1.000  C
  C32      1.0000 0.13260  0.36480  0.97370  Biso   1.000  C
  C33      1.0000 0.59650  0.27890  0.55480  Biso   1.000  C
  C34      1.0000 0.90350  0.77890  0.94520  Biso   1.000  C
  C35      1.0000 0.40350  0.72110  0.44520  Biso   1.000  C
  C36      1.0000 0.09650  0.22110  0.05480  Biso   1.000  C
  H29      1.0000 0.66580  0.31610  0.59960  Biso   1.000  H
  H30      1.0000 0.83420  0.81610  0.90040  Biso   1.000  H
  H31      1.0000 0.33420  0.68390  0.40040  Biso   1.000  H
  H32      1.0000 0.16580  0.18390  0.09960  Biso   1.000  H
  H33      1.0000 0.44560  0.26540  0.57490  Biso   1.000  H
  H34      1.0000 0.05440  0.76540  0.92510  Biso   1.000  H
  H35      1.0000 0.55440  0.73460  0.42510  Biso   1.000  H
  H36      1.0000 0.94560  0.23460  0.07490  Biso   1.000  H
  H37      1.0000 0.58000  0.29900  0.48870  Biso   1.000  H
  H38      1.0000 0.92000  0.79900  0.01130  Biso   1.000  H
  H39      1.0000 0.42000  0.70100  0.51130  Biso   1.000  H
  H40      1.0000 0.08000  0.20100  0.98870  Biso   1.000  H
  C37      1.0000 0.88240  0.09520  0.21440  Biso   1.000  C
  C38      1.0000 0.61760  0.59520  0.28560  Biso   1.000  C
  C39      1.0000 0.11760  0.90480  0.78560  Biso   1.000  C
  C40      1.0000 0.38240  0.40480  0.71440  Biso   1.000  C
