data_image0
_cell_length_a       14.11
_cell_length_b       19.0281
_cell_length_c       19.2925
_cell_angle_alpha    73.495
_cell_angle_beta     80.584
_cell_angle_gamma    75.378

_symmetry_space_group_name_H-M    "P 1"
_symmetry_int_tables_number       1

loop_
  _symmetry_equiv_pos_as_xyz
  'x, y, z'

loop_
  _atom_site_label
  _atom_site_occupancy
  _atom_site_fract_x
  _atom_site_fract_y
  _atom_site_fract_z
  _atom_site_thermal_displace_type
  _atom_site_B_iso_or_equiv
  _atom_site_type_symbol
  Cu1      1.0000 0.49392  0.27930  0.77227  Biso   1.000  Cu
  Cu2      1.0000 0.50608  0.72070  0.22773  Biso   1.000  Cu
  N1       1.0000 0.52150  0.36980  0.80850  Biso   1.000  N
  N2       1.0000 0.47850  0.63020  0.19150  Biso   1.000  N
  C1       1.0000 0.53780  0.43650  0.76930  Biso   1.000  C
  C2       1.0000 0.46220  0.56350  0.23070  Biso   1.000  C
  H1       1.0000 0.52160  0.45390  0.72160  Biso   1.000  H
  H2       1.0000 0.47840  0.54610  0.27840  Biso   1.000  H
  C3       1.0000 0.57840  0.48060  0.79750  Biso   1.000  C
  C4       1.0000 0.42160  0.51940  0.20250  Biso   1.000  C
  H3       1.0000 0.58650  0.52790  0.76980  Biso   1.000  H
  H4       1.0000 0.41350  0.47210  0.23020  Biso   1.000  H
  C5       1.0000 0.60620  0.45380  0.86660  Biso   1.000  C
  C6       1.0000 0.39380  0.54620  0.13340  Biso   1.000  C
  H5       1.0000 0.63640  0.48160  0.88530  Biso   1.000  H
  H6       1.0000 0.36360  0.51840  0.11470  Biso   1.000  H
  C7       1.0000 0.58930  0.38540  0.90810  Biso   1.000  C
  C8       1.0000 0.41070  0.61460  0.09190  Biso   1.000  C
  H7       1.0000 0.60730  0.36660  0.95520  Biso   1.000  H
  H8       1.0000 0.39270  0.63340  0.04480  Biso   1.000  H
  C9       1.0000 0.54520  0.34530  0.87840  Biso   1.000  C
  C10      1.0000 0.45480  0.65470  0.12160  Biso   1.000  C
  N3       1.0000 0.48080  0.24020  0.87660  Biso   1.000  N
  N4       1.0000 0.51920  0.75980  0.12340  Biso   1.000  N
  C11      1.0000 0.51860  0.27400  0.91670  Biso   1.000  C
  C12      1.0000 0.48140  0.72600  0.08330  Biso   1.000  C
  C13      1.0000 0.52480  0.23380  0.98770  Biso   1.000  C
  C14      1.0000 0.47520  0.76620  0.01230  Biso   1.000  C
  H9       1.0000 0.54800  0.24840  0.02270  Biso   1.000  H
  H10      1.0000 0.45200  0.75160  0.97730  Biso   1.000  H
  S1       1.0000 0.48384  0.15315  0.00287  Biso   1.000  S
  S2       1.0000 0.51616  0.84685  0.99713  Biso   1.000  S
  C15      1.0000 0.46080  0.17530  0.91430  Biso   1.000  C
  C16      1.0000 0.53920  0.82470  0.08570  Biso   1.000  C
  N5       1.0000 0.43400  0.15570  0.80519  Biso   1.000  N
  N6       1.0000 0.56600  0.84430  0.19481  Biso   1.000  N
  C17      1.0000 0.43210  0.12740  0.87830  Biso   1.000  C
  C18      1.0000 0.56790  0.87260  0.12170  Biso   1.000  C
  C19      1.0000 0.40610  0.06030  0.91400  Biso   1.000  C
  C20      1.0000 0.59390  0.93970  0.08600  Biso   1.000  C
  H11      1.0000 0.40210  0.04460  0.96440  Biso   1.000  H
  H12      1.0000 0.59790  0.95540  0.03560  Biso   1.000  H
  C21      1.0000 0.38580  0.01640  0.87470  Biso   1.000  C
  C22      1.0000 0.61420  0.98360  0.12530  Biso   1.000  C
  H13      1.0000 0.36710  0.97130  0.89780  Biso   1.000  H
  H14      1.0000 0.63290  0.02870  0.10220  Biso   1.000  H
  C23      1.0000 0.39430  0.04170  0.79960  Biso   1.000  C
  C24      1.0000 0.60570  0.95830  0.20040  Biso   1.000  C
  C25      1.0000 0.41400  0.11300  0.76710  Biso   1.000  C
  C26      1.0000 0.58600  0.88700  0.23290  Biso   1.000  C
  Ba1      1.0000 0.57448  0.93198  0.67244  Biso   1.000  Ba
  Ba2      1.0000 0.42552  0.06802  0.32756  Biso   1.000  Ba
  Ba3      1.0000 0.56390  0.93600  0.64410  Biso   1.000  Ba
  Ba4      1.0000 0.43610  0.06400  0.35590  Biso   1.000  Ba
  O1       1.0000 0.38350  0.00130  0.75417  Biso   1.000  O
  O2       1.0000 0.61650  0.99870  0.24583  Biso   1.000  O
  C27      1.0000 0.33290  0.94020  0.78880  Biso   1.000  C
  C28      1.0000 0.66710  0.05980  0.21120  Biso   1.000  C
  H15      1.0000 0.26930  0.95970  0.81230  Biso   1.000  H
  H16      1.0000 0.73070  0.04030  0.18770  Biso   1.000  H
  H17      1.0000 0.37120  0.90330  0.82560  Biso   1.000  H
  H18      1.0000 0.62880  0.09670  0.17440  Biso   1.000  H
  C29      1.0000 0.31930  0.90440  0.73320  Biso   1.000  C
  C30      1.0000 0.68070  0.09560  0.26680  Biso   1.000  C
  H19      1.0000 0.27530  0.87020  0.75360  Biso   1.000  H
  H20      1.0000 0.72470  0.12980  0.24640  Biso   1.000  H
  H21      1.0000 0.29070  0.94240  0.69230  Biso   1.000  H
  H22      1.0000 0.70930  0.05760  0.30770  Biso   1.000  H
  O3       1.0000 0.41370  0.86410  0.70970  Biso   1.000  O
  O4       1.0000 0.58630  0.13590  0.29030  Biso   1.000  O
  C31      1.0000 0.40970  0.81390  0.66870  Biso   1.000  C
  C32      1.0000 0.59030  0.18610  0.33130  Biso   1.000  C
  H23      1.0000 0.40200  0.84100  0.61840  Biso   1.000  H
  H24      1.0000 0.59800  0.15900  0.38160  Biso   1.000  H
  H25      1.0000 0.35400  0.79050  0.68780  Biso   1.000  H
  H26      1.0000 0.64600  0.20950  0.31220  Biso   1.000  H
  C33      1.0000 0.50480  0.75470  0.67370  Biso   1.000  C
  C34      1.0000 0.49520  0.24530  0.32630  Biso   1.000  C
  H27      1.0000 0.51140  0.72650  0.72380  Biso   1.000  H
  H28      1.0000 0.48860  0.27350  0.27620  Biso   1.000  H
  H29      1.0000 0.50470  0.72000  0.64530  Biso   1.000  H
  H30      1.0000 0.49530  0.28000  0.35470  Biso   1.000  H
  O5       1.0000 0.58380  0.79090  0.64670  Biso   1.000  O
  O6       1.0000 0.41620  0.20910  0.35330  Biso   1.000  O
  C35      1.0000 0.67620  0.73910  0.65510  Biso   1.000  C
  C36      1.0000 0.32380  0.26090  0.34490  Biso   1.000  C
  H31      1.0000 0.67720  0.69740  0.63530  Biso   1.000  H
  H32      1.0000 0.32280  0.30260  0.36470  Biso   1.000  H
  H33      1.0000 0.68530  0.71940  0.70640  Biso   1.000  H
  H34      1.0000 0.31470  0.28060  0.29360  Biso   1.000  H
  C37      1.0000 0.75660  0.77610  0.61750  Biso   1.000  C
  C38      1.0000 0.24340  0.22390  0.38250  Biso   1.000  C
  H35      1.0000 0.81900  0.74000  0.62260  Biso   1.000  H
  H36      1.0000 0.18100  0.26000  0.37740  Biso   1.000  H
  H37      1.0000 0.74810  0.79540  0.56620  Biso   1.000  H
  H38      1.0000 0.25190  0.20460  0.43380  Biso   1.000  H
  O7       1.0000 0.75740  0.83690  0.64791  Biso   1.000  O
  O8       1.0000 0.24260  0.16310  0.35209  Biso   1.000  O
  C39      1.0000 0.83940  0.87140  0.61630  Biso   1.000  C
  C40      1.0000 0.16060  0.12860  0.38370  Biso   1.000  C
  H39      1.0000 0.83810  0.88910  0.56410  Biso   1.000  H
  H40      1.0000 0.16190  0.11090  0.43590  Biso   1.000  H
  H41      1.0000 0.90070  0.83500  0.62650  Biso   1.000  H
  H42      1.0000 0.09930  0.16500  0.37350  Biso   1.000  H
  C41      1.0000 0.83290  0.93570  0.64800  Biso   1.000  C
  C42      1.0000 0.16710  0.06430  0.35200  Biso   1.000  C
  H43      1.0000 0.83140  0.91870  0.70050  Biso   1.000  H
  H44      1.0000 0.16860  0.08130  0.29950  Biso   1.000  H
  H45      1.0000 0.88940  0.95830  0.62930  Biso   1.000  H
  H46      1.0000 0.11060  0.04170  0.37070  Biso   1.000  H
  O9       1.0000 0.74350  0.98950  0.62746  Biso   1.000  O
  O10      1.0000 0.25650  0.01050  0.37254  Biso   1.000  O
  C43      1.0000 0.74190  0.06230  0.63510  Biso   1.000  C
  C44      1.0000 0.25810  0.93770  0.36490  Biso   1.000  C
  H47      1.0000 0.80100  0.07880  0.61010  Biso   1.000  H
  H48      1.0000 0.19900  0.92120  0.38990  Biso   1.000  H
  H49      1.0000 0.73870  0.06110  0.68600  Biso   1.000  H
  H50      1.0000 0.26130  0.93890  0.31400  Biso   1.000  H
  C45      1.0000 0.65290  0.11470  0.60250  Biso   1.000  C
  C46      1.0000 0.34710  0.88530  0.39750  Biso   1.000  C
  H51      1.0000 0.65660  0.16620  0.59700  Biso   1.000  H
  H52      1.0000 0.34340  0.83380  0.40300  Biso   1.000  H
  H53      1.0000 0.64980  0.10830  0.55490  Biso   1.000  H
  H54      1.0000 0.35020  0.89170  0.44510  Biso   1.000  H
  O11      1.0000 0.56530  0.09860  0.64984  Biso   1.000  O
  O12      1.0000 0.43470  0.90140  0.35016  Biso   1.000  O
  N7       1.0000 0.64510  0.21950  0.75990  Biso   1.000  N
  N8       1.0000 0.35490  0.78050  0.24010  Biso   1.000  N
  C47      1.0000 0.69900  0.17100  0.81180  Biso   1.000  C
  C48      1.0000 0.30100  0.82900  0.18820  Biso   1.000  C
  H55      1.0000 0.66760  0.15370  0.85760  Biso   1.000  H
  H56      1.0000 0.33240  0.84630  0.14240  Biso   1.000  H
  C49      1.0000 0.79900  0.14580  0.79960  Biso   1.000  C
  C50      1.0000 0.20100  0.85420  0.20040  Biso   1.000  C
  H57      1.0000 0.83480  0.11270  0.83670  Biso   1.000  H
  H58      1.0000 0.16520  0.88730  0.16330  Biso   1.000  H
  C51      1.0000 0.84520  0.17040  0.73160  Biso   1.000  C
  C52      1.0000 0.15480  0.82960  0.26840  Biso   1.000  C
  H59      1.0000 0.91260  0.15330  0.72220  Biso   1.000  H
  H60      1.0000 0.08740  0.84670  0.27780  Biso   1.000  H
  C53      1.0000 0.79030  0.22140  0.67650  Biso   1.000  C
  C54      1.0000 0.20970  0.77860  0.32350  Biso   1.000  C
  H61      1.0000 0.82060  0.23980  0.63050  Biso   1.000  H
  H62      1.0000 0.17940  0.76020  0.36950  Biso   1.000  H
  C55      1.0000 0.68990  0.24340  0.69280  Biso   1.000  C
  C56      1.0000 0.31010  0.75660  0.30720  Biso   1.000  C
  N9       1.0000 0.52750  0.31500  0.67011  Biso   1.000  N
  N10      1.0000 0.47250  0.68500  0.32989  Biso   1.000  N
  C57      1.0000 0.62250  0.29630  0.64150  Biso   1.000  C
  C58      1.0000 0.37750  0.70370  0.35850  Biso   1.000  C
  C59      1.0000 0.63730  0.33100  0.56950  Biso   1.000  C
  C60      1.0000 0.36270  0.66900  0.43050  Biso   1.000  C
  H63      1.0000 0.69730  0.32440  0.54120  Biso   1.000  H
  H64      1.0000 0.30270  0.67560  0.45880  Biso   1.000  H
  S3       1.0000 0.52975  0.38856  0.53852  Biso   1.000  S
  S4       1.0000 0.47025  0.61144  0.46148  Biso   1.000  S
  C61      1.0000 0.47030  0.36430  0.62370  Biso   1.000  C
  C62      1.0000 0.52970  0.63570  0.37630  Biso   1.000  C
  N11      1.0000 0.34450  0.36140  0.72010  Biso   1.000  N
  N12      1.0000 0.65550  0.63860  0.27990  Biso   1.000  N
  C63      1.0000 0.36800  0.39230  0.64870  Biso   1.000  C
  C64      1.0000 0.63200  0.60770  0.35130  Biso   1.000  C
  C65      1.0000 0.30220  0.44670  0.60480  Biso   1.000  C
  C66      1.0000 0.69780  0.55330  0.39520  Biso   1.000  C
  H65      1.0000 0.32100  0.46590  0.55590  Biso   1.000  H
  H66      1.0000 0.67900  0.53410  0.44410  Biso   1.000  H
  C67      1.0000 0.20860  0.47180  0.63490  Biso   1.000  C
  C68      1.0000 0.79140  0.52820  0.36510  Biso   1.000  C
  H67      1.0000 0.16270  0.50730  0.60620  Biso   1.000  H
  H68      1.0000 0.83730  0.49270  0.39380  Biso   1.000  H
  C69      1.0000 0.18340  0.44350  0.70810  Biso   1.000  C
  C70      1.0000 0.81660  0.55650  0.29190  Biso   1.000  C
  C71      1.0000 0.25380  0.38660  0.74920  Biso   1.000  C
  C72      1.0000 0.74620  0.61340  0.25080  Biso   1.000  C
  Ba5      1.0000 0.10145  0.58536  0.82793  Biso   1.000  Ba
  Ba6      1.0000 0.89855  0.41464  0.17207  Biso   1.000  Ba
  Ba7      1.0000 0.07122  0.57394  0.86091  Biso   1.000  Ba
  Ba8      1.0000 0.92878  0.42606  0.13909  Biso   1.000  Ba
  O13      1.0000 0.09520  0.46570  0.74447  Biso   1.000  O
  O14      1.0000 0.90480  0.53430  0.25553  Biso   1.000  O
  C73      1.0000 0.01510  0.50700  0.69990  Biso   1.000  C
  C74      1.0000 0.98490  0.49300  0.30010  Biso   1.000  C
  H69      1.0000 0.00580  0.47710  0.66940  Biso   1.000  H
  H70      1.0000 0.99420  0.52290  0.33060  Biso   1.000  H
  H71      1.0000 0.03100  0.55320  0.66870  Biso   1.000  H
  H72      1.0000 0.96900  0.44680  0.33130  Biso   1.000  H
  C75      1.0000 0.92430  0.52410  0.74750  Biso   1.000  C
  C76      1.0000 0.07570  0.47590  0.25250  Biso   1.000  C
  H73      1.0000 0.86740  0.53850  0.72030  Biso   1.000  H
  H74      1.0000 0.13260  0.46150  0.27970  Biso   1.000  H
  H75      1.0000 0.91750  0.48040  0.78710  Biso   1.000  H
  H76      1.0000 0.08250  0.51960  0.21290  Biso   1.000  H
  O15      1.0000 0.93110  0.58450  0.77530  Biso   1.000  O
  O16      1.0000 0.06890  0.41550  0.22470  Biso   1.000  O
  C77      1.0000 0.83980  0.62100  0.80750  Biso   1.000  C
  C78      1.0000 0.16020  0.37900  0.19250  Biso   1.000  C
  H77      1.0000 0.82890  0.59510  0.85830  Biso   1.000  H
  H78      1.0000 0.17110  0.40490  0.14170  Biso   1.000  H
  H79      1.0000 0.78550  0.62080  0.78260  Biso   1.000  H
  H80      1.0000 0.21450  0.37920  0.21740  Biso   1.000  H
  C79      1.0000 0.84730  0.70060  0.80020  Biso   1.000  C
  C80      1.0000 0.15270  0.29940  0.19980  Biso   1.000  C
  H81      1.0000 0.85970  0.72560  0.74930  Biso   1.000  H
  H82      1.0000 0.14030  0.27440  0.25070  Biso   1.000  H
  H83      1.0000 0.78570  0.72800  0.81940  Biso   1.000  H
  H84      1.0000 0.21430  0.27200  0.18060  Biso   1.000  H
  O17      1.0000 0.92550  0.70010  0.83900  Biso   1.000  O
  O18      1.0000 0.07450  0.29990  0.16100  Biso   1.000  O
  C81      1.0000 0.94430  0.77340  0.82360  Biso   1.000  C
  C82      1.0000 0.05570  0.22660  0.17640  Biso   1.000  C
  H85      1.0000 0.88460  0.80840  0.83520  Biso   1.000  H
  H86      1.0000 0.11540  0.19160  0.16480  Biso   1.000  H
  H87      1.0000 0.96520  0.79030  0.77230  Biso   1.000  H
  H88      1.0000 0.03480  0.20970  0.22770  Biso   1.000  H
  C83      1.0000 0.02230  0.77160  0.86740  Biso   1.000  C
  C84      1.0000 0.97770  0.22840  0.13260  Biso   1.000  C
  H89      1.0000 0.03500  0.82150  0.85760  Biso   1.000  H
  H90      1.0000 0.96500  0.17850  0.14240  Biso   1.000  H
  H91      1.0000 0.00110  0.75550  0.91870  Biso   1.000  H
  H92      1.0000 0.99890  0.24450  0.08130  Biso   1.000  H
  O19      1.0000 0.11060  0.72030  0.84890  Biso   1.000  O
  O20      1.0000 0.88940  0.27970  0.15110  Biso   1.000  O
  C85      1.0000 0.19040  0.71820  0.88750  Biso   1.000  C
  C86      1.0000 0.80960  0.28180  0.11250  Biso   1.000  C
  H93      1.0000 0.17270  0.70230  0.93940  Biso   1.000  H
  H94      1.0000 0.82730  0.29770  0.06060  Biso   1.000  H
  H95      1.0000 0.20410  0.76790  0.87640  Biso   1.000  H
  H96      1.0000 0.79590  0.23210  0.12360  Biso   1.000  H
  C87      1.0000 0.27830  0.66530  0.86610  Biso   1.000  C
  C88      1.0000 0.72170  0.33470  0.13390  Biso   1.000  C
  H97      1.0000 0.29510  0.68020  0.81400  Biso   1.000  H
  H98      1.0000 0.70490  0.31980  0.18600  Biso   1.000  H
  H99      1.0000 0.33360  0.66520  0.89000  Biso   1.000  H
  H100     1.0000 0.66640  0.33480  0.11000  Biso   1.000  H
  O21      1.0000 0.25680  0.59100  0.88702  Biso   1.000  O
  O22      1.0000 0.74320  0.40900  0.11298  Biso   1.000  O
  C89      1.0000 0.34320  0.53230  0.88730  Biso   1.000  C
  C90      1.0000 0.65680  0.46770  0.11270  Biso   1.000  C
  H101     1.0000 0.39060  0.53800  0.91530  Biso   1.000  H
  H102     1.0000 0.60940  0.46200  0.08470  Biso   1.000  H
  H103     1.0000 0.37330  0.53400  0.83810  Biso   1.000  H
  H104     1.0000 0.62670  0.46600  0.16190  Biso   1.000  H
  C91      1.0000 0.31280  0.45980  0.92030  Biso   1.000  C
  C92      1.0000 0.68720  0.54020  0.07970  Biso   1.000  C
  H105     1.0000 0.37020  0.41970  0.93220  Biso   1.000  H
  H106     1.0000 0.62980  0.58030  0.06780  Biso   1.000  H
  H107     1.0000 0.26990  0.46250  0.96470  Biso   1.000  H
  H108     1.0000 0.73010  0.53750  0.03530  Biso   1.000  H
  O23      1.0000 0.26090  0.44480  0.86803  Biso   1.000  O
  O24      1.0000 0.73910  0.55520  0.13197  Biso   1.000  O
  Cu3      1.0000 0.15456  0.21977  0.75729  Biso   1.000  Cu
  Cu4      1.0000 0.84544  0.78023  0.24271  Biso   1.000  Cu
  N13      1.0000 0.31550  0.19790  0.67704  Biso   1.000  N
  N14      1.0000 0.68450  0.80210  0.32296  Biso   1.000  N
  C93      1.0000 0.40290  0.15320  0.68860  Biso   1.000  C
  C94      1.0000 0.59710  0.84680  0.31140  Biso   1.000  C
  C95      1.0000 0.47980  0.14820  0.63250  Biso   1.000  C
  C96      1.0000 0.52020  0.85180  0.36750  Biso   1.000  C
  C97      1.0000 0.46360  0.19450  0.56330  Biso   1.000  C
  C98      1.0000 0.53640  0.80550  0.43670  Biso   1.000  C
  H109     1.0000 0.51350  0.19360  0.52530  Biso   1.000  H
  H110     1.0000 0.48650  0.80640  0.47470  Biso   1.000  H
  C99      1.0000 0.37310  0.24140  0.55180  Biso   1.000  C
  C100     1.0000 0.62690  0.75860  0.44820  Biso   1.000  C
  H111     1.0000 0.36070  0.27280  0.50610  Biso   1.000  H
  H112     1.0000 0.63930  0.72720  0.49390  Biso   1.000  H
  C101     1.0000 0.30020  0.24120  0.60960  Biso   1.000  C
  C102     1.0000 0.69980  0.75880  0.39040  Biso   1.000  C
  N15      1.0000 0.13780  0.28560  0.66219  Biso   1.000  N
  N16      1.0000 0.86220  0.71440  0.33781  Biso   1.000  N
  C103     1.0000 0.20090  0.28750  0.60410  Biso   1.000  C
  C104     1.0000 0.79910  0.71250  0.39590  Biso   1.000  C
  S5       1.0000 0.15226  0.34785  0.52807  Biso   1.000  S
  S6       1.0000 0.84774  0.65215  0.47193  Biso   1.000  S
  C105     1.0000 0.04150  0.36870  0.57740  Biso   1.000  C
  C106     1.0000 0.95850  0.63130  0.42260  Biso   1.000  C
  H113     1.0000 0.98570  0.40200  0.55840  Biso   1.000  H
  H114     1.0000 0.01430  0.59800  0.44160  Biso   1.000  H
  C107     1.0000 0.04600  0.32970  0.64860  Biso   1.000  C
  C108     1.0000 0.95400  0.67030  0.35140  Biso   1.000  C
  N17      1.0000 0.00550  0.28060  0.77360  Biso   1.000  N
  N18      1.0000 0.99450  0.71940  0.22640  Biso   1.000  N
  C109     1.0000 0.97110  0.32620  0.71050  Biso   1.000  C
  C110     1.0000 0.02890  0.67380  0.28950  Biso   1.000  C
  C111     1.0000 0.87420  0.36370  0.70560  Biso   1.000  C
  C112     1.0000 0.12580  0.63630  0.29440  Biso   1.000  C
  H115     1.0000 0.85260  0.39340  0.66130  Biso   1.000  H
  H116     1.0000 0.14740  0.60660  0.33870  Biso   1.000  H
  C113     1.0000 0.81000  0.35620  0.76800  Biso   1.000  C
  C114     1.0000 0.19000  0.64380  0.23200  Biso   1.000  C
  H117     1.0000 0.74430  0.38100  0.76620  Biso   1.000  H
  H118     1.0000 0.25570  0.61900  0.23380  Biso   1.000  H
  C115     1.0000 0.84390  0.31160  0.83350  Biso   1.000  C
  C116     1.0000 0.15610  0.68840  0.16650  Biso   1.000  C
  H119     1.0000 0.80210  0.30690  0.87640  Biso   1.000  H
  H120     1.0000 0.19790  0.69310  0.12360  Biso   1.000  H
  C117     1.0000 0.94220  0.27410  0.83320  Biso   1.000  C
  C118     1.0000 0.05780  0.72590  0.16680  Biso   1.000  C
  H121     1.0000 0.96480  0.24290  0.87660  Biso   1.000  H
  H122     1.0000 0.03520  0.75710  0.12340  Biso   1.000  H
  N19      1.0000 0.20870  0.28050  0.83737  Biso   1.000  N
  N20      1.0000 0.79130  0.71950  0.16263  Biso   1.000  N
  C119     1.0000 0.23170  0.34720  0.82660  Biso   1.000  C
  C120     1.0000 0.76830  0.65280  0.17340  Biso   1.000  C
  C121     1.0000 0.24240  0.37480  0.88490  Biso   1.000  C
  C122     1.0000 0.75760  0.62520  0.11510  Biso   1.000  C
  C123     1.0000 0.23500  0.33020  0.95500  Biso   1.000  C
  C124     1.0000 0.76500  0.66980  0.04500  Biso   1.000  C
  H123     1.0000 0.24470  0.34640  0.99390  Biso   1.000  H
  H124     1.0000 0.75530  0.65360  0.00610  Biso   1.000  H
  C125     1.0000 0.21270  0.26070  0.96620  Biso   1.000  C
  C126     1.0000 0.78730  0.73930  0.03380  Biso   1.000  C
  H125     1.0000 0.20770  0.22940  0.01280  Biso   1.000  H
  H126     1.0000 0.79230  0.77060  0.98720  Biso   1.000  H
  C127     1.0000 0.19790  0.23800  0.90680  Biso   1.000  C
  C128     1.0000 0.80210  0.76200  0.09320  Biso   1.000  C
  N21      1.0000 0.15460  0.15290  0.85350  Biso   1.000  N
  N22      1.0000 0.84540  0.84710  0.14650  Biso   1.000  N
  C129     1.0000 0.17000  0.16880  0.91260  Biso   1.000  C
  C130     1.0000 0.83000  0.83120  0.08740  Biso   1.000  C
  S7       1.0000 0.14621  0.10131  0.98975  Biso   1.000  S
  S8       1.0000 0.85379  0.89869  0.01025  Biso   1.000  S
  C131     1.0000 0.11180  0.05350  0.93910  Biso   1.000  C
  C132     1.0000 0.88820  0.94650  0.06090  Biso   1.000  C
  H127     1.0000 0.08990  0.00910  0.95820  Biso   1.000  H
  H128     1.0000 0.91010  0.99090  0.04180  Biso   1.000  H
  C133     1.0000 0.12020  0.08830  0.86740  Biso   1.000  C
  C134     1.0000 0.87980  0.91170  0.13260  Biso   1.000  C
  N23      1.0000 0.12280  0.11920  0.73940  Biso   1.000  N
  N24      1.0000 0.87720  0.88080  0.26060  Biso   1.000  N
  C135     1.0000 0.09860  0.07100  0.80250  Biso   1.000  C
  C136     1.0000 0.90140  0.92900  0.19750  Biso   1.000  C
  C137     1.0000 0.05610  0.01230  0.80510  Biso   1.000  C
  C138     1.0000 0.94390  0.98770  0.19490  Biso   1.000  C
  H129     1.0000 0.03830  0.98090  0.84940  Biso   1.000  H
  H130     1.0000 0.96170  0.01910  0.15060  Biso   1.000  H
  C139     1.0000 0.04070  0.00120  0.74080  Biso   1.000  C
  C140     1.0000 0.95930  0.99880  0.25920  Biso   1.000  C
  H131     1.0000 0.01180  0.96230  0.74110  Biso   1.000  H
  H132     1.0000 0.98820  0.03770  0.25890  Biso   1.000  H
  C141     1.0000 0.06880  0.04860  0.67520  Biso   1.000  C
  C142     1.0000 0.93120  0.95140  0.32480  Biso   1.000  C
  H133     1.0000 0.06110  0.04090  0.63120  Biso   1.000  H
  H134     1.0000 0.93890  0.95910  0.36880  Biso   1.000  H
  C143     1.0000 0.10850  0.10780  0.67700  Biso   1.000  C
  C144     1.0000 0.89150  0.89220  0.32300  Biso   1.000  C
  H135     1.0000 0.12570  0.14050  0.63340  Biso   1.000  H
  H136     1.0000 0.87430  0.85950  0.36660  Biso   1.000  H
  Cl1      1.0000 0.70177  0.95387  0.84840  Biso   1.000  Cl
  Cl2      1.0000 0.29823  0.04613  0.15160  Biso   1.000  Cl
  O25      1.0000 0.64670  0.97550  0.78553  Biso   1.000  O
  O26      1.0000 0.35330  0.02450  0.21447  Biso   1.000  O
  O27      1.0000 0.65100  0.99500  0.89950  Biso   1.000  O
  O28      1.0000 0.34900  0.00500  0.10050  Biso   1.000  O
  O29      1.0000 0.79930  0.96780  0.82600  Biso   1.000  O
  O30      1.0000 0.20070  0.03220  0.17400  Biso   1.000  O
  O31      1.0000 0.70950  0.87370  0.88090  Biso   1.000  O
  O32      1.0000 0.29050  0.12630  0.11910  Biso   1.000  O
  Cl3      1.0000 0.28376  0.47325  0.40306  Biso   1.000  Cl
  Cl4      1.0000 0.71624  0.52675  0.59694  Biso   1.000  Cl
  O33      1.0000 0.33770  0.53090  0.37920  Biso   1.000  O
  O34      1.0000 0.66230  0.46910  0.62080  Biso   1.000  O
  O35      1.0000 0.19440  0.50150  0.44220  Biso   1.000  O
  O36      1.0000 0.80560  0.49850  0.55780  Biso   1.000  O
  O37      1.0000 0.26740  0.45330  0.34140  Biso   1.000  O
  O38      1.0000 0.73260  0.54670  0.65860  Biso   1.000  O
  O39      1.0000 0.33810  0.40700  0.45010  Biso   1.000  O
  O40      1.0000 0.66190  0.59300  0.54990  Biso   1.000  O
  Cl5      1.0000 0.42712  0.34740  0.11091  Biso   1.000  Cl
  Cl6      1.0000 0.57288  0.65260  0.88909  Biso   1.000  Cl
  O41      1.0000 0.46140  0.40490  0.05370  Biso   1.000  O
  O42      1.0000 0.53860  0.59510  0.94630  Biso   1.000  O
  O43      1.0000 0.50930  0.28530  0.13160  Biso   1.000  O
  O44      1.0000 0.49070  0.71470  0.86840  Biso   1.000  O
  O45      1.0000 0.35480  0.32080  0.08650  Biso   1.000  O
  O46      1.0000 0.64520  0.67920  0.91350  Biso   1.000  O
  O47      1.0000 0.38670  0.37550  0.17330  Biso   1.000  O
  O48      1.0000 0.61330  0.62450  0.82670  Biso   1.000  O
  Cl7      1.0000 0.79756  0.14060  0.00557  Biso   1.000  Cl
  Cl8      1.0000 0.20244  0.85940  0.99443  Biso   1.000  Cl
  O49      1.0000 0.81910  0.11770  0.08140  Biso   1.000  O
  O50      1.0000 0.18090  0.88230  0.91860  Biso   1.000  O
  O51      1.0000 0.88490  0.12650  0.96090  Biso   1.000  O
  O52      1.0000 0.11510  0.87350  0.03910  Biso   1.000  O
  O53      1.0000 0.72560  0.10180  0.00040  Biso   1.000  O
  O54      1.0000 0.27440  0.89820  0.99960  Biso   1.000  O
  O55      1.0000 0.75150  0.22110  0.99270  Biso   1.000  O
  O56      1.0000 0.24850  0.77890  0.00730  Biso   1.000  O
  Cl9      1.0000 0.78900  0.14910  0.01250  Biso   1.000  Cl
  Cl10     1.0000 0.21100  0.85090  0.98750  Biso   1.000  Cl
  O57      1.0000 0.75810  0.22290  0.97700  Biso   1.000  O
  O58      1.0000 0.24190  0.77710  0.02300  Biso   1.000  O
  O59      1.0000 0.76800  0.12370  0.08610  Biso   1.000  O
  O60      1.0000 0.23200  0.87630  0.91390  Biso   1.000  O
  O61      1.0000 0.74310  0.10130  0.98200  Biso   1.000  O
  O62      1.0000 0.25690  0.89870  0.01800  Biso   1.000  O
  O63      1.0000 0.89220  0.13010  0.98710  Biso   1.000  O
  O64      1.0000 0.10780  0.86990  0.01290  Biso   1.000  O
  Cl11     1.0000 0.35832  0.02918  0.53877  Biso   1.000  Cl
  Cl12     1.0000 0.64168  0.97082  0.46123  Biso   1.000  Cl
  O65      1.0000 0.42080  0.02280  0.59180  Biso   1.000  O
  O66      1.0000 0.57920  0.97720  0.40820  Biso   1.000  O
  O67      1.0000 0.26230  0.05560  0.56300  Biso   1.000  O
  O68      1.0000 0.73770  0.94440  0.43700  Biso   1.000  O
  O69      1.0000 0.38290  0.07860  0.47220  Biso   1.000  O
  O70      1.0000 0.61710  0.92140  0.52780  Biso   1.000  O
  O71      1.0000 0.37390  0.95990  0.52490  Biso   1.000  O
  O72      1.0000 0.62610  0.04010  0.47510  Biso   1.000  O
  Cl13     1.0000 0.06410  0.56060  0.04410  Biso   1.000  Cl
  Cl14     1.0000 0.93590  0.43940  0.95590  Biso   1.000  Cl
  O73      1.0000 0.03370  0.61260  0.97960  Biso   1.000  O
  O74      1.0000 0.96630  0.38740  0.02040  Biso   1.000  O
  O75      1.0000 0.98260  0.55080  0.09570  Biso   1.000  O
  O76      1.0000 0.01740  0.44920  0.90430  Biso   1.000  O
  O77      1.0000 0.10240  0.49010  0.02570  Biso   1.000  O
  O78      1.0000 0.89760  0.50990  0.97430  Biso   1.000  O
  O79      1.0000 0.14220  0.57530  0.07180  Biso   1.000  O
  O80      1.0000 0.85780  0.42470  0.92820  Biso   1.000  O
  Cl15     1.0000 0.32761  0.61471  0.67184  Biso   1.000  Cl
  Cl16     1.0000 0.67239  0.38529  0.32816  Biso   1.000  Cl
  O81      1.0000 0.26890  0.57030  0.72670  Biso   1.000  O
  O82      1.0000 0.73110  0.42970  0.27330  Biso   1.000  O
  O83      1.0000 0.41900  0.60410  0.69690  Biso   1.000  O
  O84      1.0000 0.58100  0.39590  0.30310  Biso   1.000  O
  O85      1.0000 0.32950  0.60080  0.59950  Biso   1.000  O
  O86      1.0000 0.67050  0.39920  0.40050  Biso   1.000  O
  O87      1.0000 0.27890  0.69340  0.66060  Biso   1.000  O
  O88      1.0000 0.72110  0.30660  0.33940  Biso   1.000  O
  Cl17     1.0000 0.37600  0.64340  0.62472  Biso   1.000  Cl
  Cl18     1.0000 0.62400  0.35660  0.37528  Biso   1.000  Cl
  O89      1.0000 0.38420  0.71350  0.57570  Biso   1.000  O
  O90      1.0000 0.61580  0.28650  0.42430  Biso   1.000  O
  O91      1.0000 0.46770  0.59950  0.64320  Biso   1.000  O
  O92      1.0000 0.53230  0.40050  0.35680  Biso   1.000  O
  O93      1.0000 0.31720  0.66200  0.68850  Biso   1.000  O
  O94      1.0000 0.68280  0.33800  0.31150  Biso   1.000  O
  O95      1.0000 0.07640  0.68910  0.69810  Biso   1.000  O
  O96      1.0000 0.92360  0.31090  0.30190  Biso   1.000  O
  O97      1.0000 0.13680  0.62490  0.72070  Biso   1.000  O
  O98      1.0000 0.86320  0.37510  0.27930  Biso   1.000  O
  Cl19     1.0000 0.94290  0.28360  0.46330  Biso   1.000  Cl
  Cl20     1.0000 0.05710  0.71640  0.53670  Biso   1.000  Cl
  O99      1.0000 0.02090  0.23330  0.50580  Biso   1.000  O
  O100     1.0000 0.97910  0.76670  0.49420  Biso   1.000  O
  O101     1.0000 0.85210  0.26230  0.49790  Biso   1.000  O
  O102     1.0000 0.14790  0.73770  0.50210  Biso   1.000  O
  O103     1.0000 0.93620  0.36020  0.45950  Biso   1.000  O
  O104     1.0000 0.06380  0.63980  0.54050  Biso   1.000  O
  O105     1.0000 0.96270  0.26810  0.39450  Biso   1.000  O
  O106     1.0000 0.03730  0.73190  0.60550  Biso   1.000  O
  Cl21     1.0000 0.94080  0.27405  0.48756  Biso   1.000  Cl
  Cl22     1.0000 0.05920  0.72595  0.51244  Biso   1.000  Cl
  O107     1.0000 0.00060  0.22590  0.54240  Biso   1.000  O
  O108     1.0000 0.99940  0.77410  0.45760  Biso   1.000  O
  O109     1.0000 0.87910  0.23540  0.47020  Biso   1.000  O
  O110     1.0000 0.12090  0.76460  0.52980  Biso   1.000  O
  O111     1.0000 0.87600  0.33280  0.51830  Biso   1.000  O
  O112     1.0000 0.12400  0.66720  0.48170  Biso   1.000  O
  O113     1.0000 0.00150  0.30960  0.42890  Biso   1.000  O
  O114     1.0000 0.99850  0.69040  0.57110  Biso   1.000  O
  O115     1.0000 0.56900  0.84290  0.80850  Biso   1.000  O
  O116     1.0000 0.43100  0.15710  0.19150  Biso   1.000  O
