data_image0
_cell_length_a       16.041
_cell_length_b       9.223
_cell_length_c       16.048
_cell_angle_alpha    90
_cell_angle_beta     118.65
_cell_angle_gamma    90

_symmetry_space_group_name_H-M    "P 1"
_symmetry_int_tables_number       1

loop_
  _symmetry_equiv_pos_as_xyz
  'x, y, z'

loop_
  _atom_site_label
  _atom_site_occupancy
  _atom_site_fract_x
  _atom_site_fract_y
  _atom_site_fract_z
  _atom_site_thermal_displace_type
  _atom_site_B_iso_or_equiv
  _atom_site_type_symbol
  Cu1      1.0000 0.50000  0.57720  0.25000  Biso   1.000  Cu
  Cu2      1.0000 0.00000  0.07720  0.25000  Biso   1.000  Cu
  Cu3      1.0000 0.50000  0.42280  0.75000  Biso   1.000  Cu
  Cu4      1.0000 0.00000  0.92280  0.75000  Biso   1.000  Cu
  S1       1.0000 0.50070  0.32960  0.19500  Biso   1.000  S
  S2       1.0000 0.00070  0.82960  0.19500  Biso   1.000  S
  S3       1.0000 0.50070  0.67040  0.69500  Biso   1.000  S
  S4       1.0000 0.00070  0.17040  0.69500  Biso   1.000  S
  S5       1.0000 0.53330  0.91040  0.00280  Biso   1.000  S
  S6       1.0000 0.03330  0.41040  0.00280  Biso   1.000  S
  S7       1.0000 0.53330  0.08960  0.50280  Biso   1.000  S
  S8       1.0000 0.03330  0.58960  0.50280  Biso   1.000  S
  N1       1.0000 0.63580  0.52660  0.34960  Biso   1.000  N
  N2       1.0000 0.13580  0.02660  0.34960  Biso   1.000  N
  N3       1.0000 0.63580  0.47340  0.84960  Biso   1.000  N
  N4       1.0000 0.13580  0.97340  0.84960  Biso   1.000  N
  N5       1.0000 0.36790  0.59500  0.14640  Biso   1.000  N
  N6       1.0000 0.86790  0.09500  0.14640  Biso   1.000  N
  N7       1.0000 0.36790  0.40500  0.64640  Biso   1.000  N
  N8       1.0000 0.86790  0.90500  0.64640  Biso   1.000  N
  N9       1.0000 0.55010  0.71330  0.17620  Biso   1.000  N
  N10      1.0000 0.05010  0.21330  0.17620  Biso   1.000  N
  N11      1.0000 0.55010  0.28670  0.67620  Biso   1.000  N
  N12      1.0000 0.05010  0.78670  0.67620  Biso   1.000  N
  N13      1.0000 0.46560  0.63940  0.35180  Biso   1.000  N
  N14      1.0000 0.96560  0.13940  0.35180  Biso   1.000  N
  N15      1.0000 0.46560  0.36060  0.85180  Biso   1.000  N
  N16      1.0000 0.96560  0.86060  0.85180  Biso   1.000  N
  C1       1.0000 0.63960  0.37630  0.39140  Biso   1.000  C
  C2       1.0000 0.13960  0.87630  0.39140  Biso   1.000  C
  C3       1.0000 0.63960  0.62370  0.89140  Biso   1.000  C
  C4       1.0000 0.13960  0.12370  0.89140  Biso   1.000  C
  C5       1.0000 0.61140  0.26440  0.32540  Biso   1.000  C
  C6       1.0000 0.11140  0.76440  0.32540  Biso   1.000  C
  C7       1.0000 0.61140  0.73560  0.82540  Biso   1.000  C
  C8       1.0000 0.11140  0.23560  0.82540  Biso   1.000  C
  C9       1.0000 0.41070  0.26130  0.21240  Biso   1.000  C
  C10      1.0000 0.91070  0.76130  0.21240  Biso   1.000  C
  C11      1.0000 0.41070  0.73870  0.71240  Biso   1.000  C
  C12      1.0000 0.91070  0.23870  0.71240  Biso   1.000  C
  C13      1.0000 0.50020  0.23670  0.27940  Biso   1.000  C
  C14      1.0000 0.00020  0.73670  0.27940  Biso   1.000  C
  C15      1.0000 0.50020  0.76330  0.77940  Biso   1.000  C
  C16      1.0000 0.00020  0.26330  0.77940  Biso   1.000  C
  C17      1.0000 0.32620  0.33790  0.12510  Biso   1.000  C
  C18      1.0000 0.82620  0.83790  0.12510  Biso   1.000  C
  C19      1.0000 0.32620  0.66210  0.62510  Biso   1.000  C
  C20      1.0000 0.82620  0.16210  0.62510  Biso   1.000  C
  C21      1.0000 0.30330  0.47960  0.14070  Biso   1.000  C
  C22      1.0000 0.80330  0.97960  0.14070  Biso   1.000  C
  C23      1.0000 0.30330  0.52040  0.64070  Biso   1.000  C
  C24      1.0000 0.80330  0.02040  0.64070  Biso   1.000  C
  C25      1.0000 0.52380  0.86830  0.16920  Biso   1.000  C
  C26      1.0000 0.02380  0.36830  0.16920  Biso   1.000  C
  C27      1.0000 0.52380  0.13170  0.66920  Biso   1.000  C
  C28      1.0000 0.02380  0.63170  0.66920  Biso   1.000  C
  C29      1.0000 0.56850  0.95950  0.12240  Biso   1.000  C
  C30      1.0000 0.06850  0.45950  0.12240  Biso   1.000  C
  C31      1.0000 0.56850  0.04050  0.62240  Biso   1.000  C
  C32      1.0000 0.06850  0.54050  0.62240  Biso   1.000  C
  C33      1.0000 0.41660  0.99390  0.94030  Biso   1.000  C
  C34      1.0000 0.91660  0.49390  0.94030  Biso   1.000  C
  C35      1.0000 0.41660  0.00610  0.44030  Biso   1.000  C
  C36      1.0000 0.91660  0.50610  0.44030  Biso   1.000  C
  C37      1.0000 0.42510  0.15990  0.93140  Biso   1.000  C
  C38      1.0000 0.92510  0.65990  0.93140  Biso   1.000  C
  C39      1.0000 0.42510  0.84010  0.43140  Biso   1.000  C
  C40      1.0000 0.92510  0.34010  0.43140  Biso   1.000  C
  C41      1.0000 0.46480  0.79740  0.36550  Biso   1.000  C
  C42      1.0000 0.96480  0.29740  0.36550  Biso   1.000  C
  C43      1.0000 0.46480  0.20260  0.86550  Biso   1.000  C
  C44      1.0000 0.96480  0.70260  0.86550  Biso   1.000  C
  Cl1      1.0000 0.28210  0.39150  0.38720  Biso   1.000  Cl
  Cl2      1.0000 0.78210  0.89150  0.38720  Biso   1.000  Cl
  Cl3      1.0000 0.28210  0.60850  0.88720  Biso   1.000  Cl
  Cl4      1.0000 0.78210  0.10850  0.88720  Biso   1.000  Cl
  O1       1.0000 0.26710  0.28210  0.31750  Biso   1.000  O
  O2       1.0000 0.76710  0.78210  0.31750  Biso   1.000  O
  O3       1.0000 0.26710  0.71790  0.81750  Biso   1.000  O
  O4       1.0000 0.76710  0.21790  0.81750  Biso   1.000  O
  O5       1.0000 0.22110  0.37570  0.42350  Biso   1.000  O
  O6       1.0000 0.72110  0.87570  0.42350  Biso   1.000  O
  O7       1.0000 0.22110  0.62430  0.92350  Biso   1.000  O
  O8       1.0000 0.72110  0.12430  0.92350  Biso   1.000  O
  O9       1.0000 0.26780  0.52840  0.34090  Biso   1.000  O
  O10      1.0000 0.76780  0.02840  0.34090  Biso   1.000  O
  O11      1.0000 0.26780  0.47160  0.84090  Biso   1.000  O
  O12      1.0000 0.76780  0.97160  0.84090  Biso   1.000  O
  O13      1.0000 0.37850  0.39010  0.46310  Biso   1.000  O
  O14      1.0000 0.87850  0.89010  0.46310  Biso   1.000  O
  O15      1.0000 0.37850  0.60990  0.96310  Biso   1.000  O
  O16      1.0000 0.87850  0.10990  0.96310  Biso   1.000  O
  O17      1.0000 0.28740  0.28860  0.45150  Biso   1.000  O
  O18      1.0000 0.78740  0.78860  0.45150  Biso   1.000  O
  O19      1.0000 0.28740  0.71140  0.95150  Biso   1.000  O
  O20      1.0000 0.78740  0.21140  0.95150  Biso   1.000  O
  O21      1.0000 0.35620  0.40600  0.41670  Biso   1.000  O
  O22      1.0000 0.85620  0.90600  0.41670  Biso   1.000  O
  O23      1.0000 0.35620  0.59400  0.91670  Biso   1.000  O
  O24      1.0000 0.85620  0.09400  0.91670  Biso   1.000  O
  O25      1.0000 0.25480  0.52280  0.42010  Biso   1.000  O
  O26      1.0000 0.75480  0.02280  0.42010  Biso   1.000  O
  O27      1.0000 0.25480  0.47720  0.92010  Biso   1.000  O
  O28      1.0000 0.75480  0.97720  0.92010  Biso   1.000  O
  Cl5      1.0000 0.20820  0.91520  0.13020  Biso   1.000  Cl
  Cl6      1.0000 0.70820  0.41520  0.13020  Biso   1.000  Cl
  Cl7      1.0000 0.20820  0.08480  0.63020  Biso   1.000  Cl
  Cl8      1.0000 0.70820  0.58480  0.63020  Biso   1.000  Cl
  O29      1.0000 0.22130  0.01830  0.19850  Biso   1.000  O
  O30      1.0000 0.72130  0.51830  0.19850  Biso   1.000  O
  O31      1.0000 0.22130  0.98170  0.69850  Biso   1.000  O
  O32      1.0000 0.72130  0.48170  0.69850  Biso   1.000  O
  O33      1.0000 0.28510  0.93120  0.11080  Biso   1.000  O
  O34      1.0000 0.78510  0.43120  0.11080  Biso   1.000  O
  O35      1.0000 0.28510  0.06880  0.61080  Biso   1.000  O
  O36      1.0000 0.78510  0.56880  0.61080  Biso   1.000  O
  O37      1.0000 0.11860  0.94170  0.05730  Biso   1.000  O
  O38      1.0000 0.61860  0.44170  0.05730  Biso   1.000  O
  O39      1.0000 0.11860  0.05830  0.55730  Biso   1.000  O
  O40      1.0000 0.61860  0.55830  0.55730  Biso   1.000  O
  O41      1.0000 0.22920  0.78760  0.18640  Biso   1.000  O
  O42      1.0000 0.72920  0.28760  0.18640  Biso   1.000  O
  O43      1.0000 0.22920  0.21240  0.68640  Biso   1.000  O
  O44      1.0000 0.72920  0.71240  0.68640  Biso   1.000  O
  O45      1.0000 0.14230  0.83860  0.04380  Biso   1.000  O
  O46      1.0000 0.64230  0.33860  0.04380  Biso   1.000  O
  O47      1.0000 0.14230  0.16140  0.54380  Biso   1.000  O
  O48      1.0000 0.64230  0.66140  0.54380  Biso   1.000  O
  O49      1.0000 0.16870  0.04340  0.12950  Biso   1.000  O
  O50      1.0000 0.66870  0.54340  0.12950  Biso   1.000  O
  O51      1.0000 0.16870  0.95660  0.62950  Biso   1.000  O
  O52      1.0000 0.66870  0.45660  0.62950  Biso   1.000  O
  O53      1.0000 0.18960  0.76630  0.13330  Biso   1.000  O
  O54      1.0000 0.68960  0.26630  0.13330  Biso   1.000  O
  O55      1.0000 0.18960  0.23370  0.63330  Biso   1.000  O
  O56      1.0000 0.68960  0.73370  0.63330  Biso   1.000  O
  O57      1.0000 0.22520  0.90310  0.21750  Biso   1.000  O
  O58      1.0000 0.72520  0.40310  0.21750  Biso   1.000  O
  O59      1.0000 0.22520  0.09690  0.71750  Biso   1.000  O
  O60      1.0000 0.72520  0.59690  0.71750  Biso   1.000  O
  H1       1.0000 0.65800  0.59800  0.40000  Biso   1.000  H
  H2       1.0000 0.15800  0.09800  0.40000  Biso   1.000  H
  H3       1.0000 0.65800  0.40200  0.90000  Biso   1.000  H
  H4       1.0000 0.15800  0.90200  0.90000  Biso   1.000  H
  H5       1.0000 0.67700  0.52900  0.32000  Biso   1.000  H
  H6       1.0000 0.17700  0.02900  0.32000  Biso   1.000  H
  H7       1.0000 0.67700  0.47100  0.82000  Biso   1.000  H
  H8       1.0000 0.17700  0.97100  0.82000  Biso   1.000  H
  H9       1.0000 0.36900  0.60000  0.08700  Biso   1.000  H
  H10      1.0000 0.86900  0.10000  0.08700  Biso   1.000  H
  H11      1.0000 0.36900  0.40000  0.58700  Biso   1.000  H
  H12      1.0000 0.86900  0.90000  0.58700  Biso   1.000  H
  H13      1.0000 0.34300  0.68500  0.15700  Biso   1.000  H
  H14      1.0000 0.84300  0.18500  0.15700  Biso   1.000  H
  H15      1.0000 0.34300  0.31500  0.65700  Biso   1.000  H
  H16      1.0000 0.84300  0.81500  0.65700  Biso   1.000  H
  H17      1.0000 0.52500  0.67600  0.11200  Biso   1.000  H
  H18      1.0000 0.02500  0.17600  0.11200  Biso   1.000  H
  H19      1.0000 0.52500  0.32400  0.61200  Biso   1.000  H
  H20      1.0000 0.02500  0.82400  0.61200  Biso   1.000  H
  H21      1.0000 0.61900  0.70700  0.20800  Biso   1.000  H
  H22      1.0000 0.11900  0.20700  0.20800  Biso   1.000  H
  H23      1.0000 0.61900  0.29300  0.70800  Biso   1.000  H
  H24      1.0000 0.11900  0.79300  0.70800  Biso   1.000  H
  H25      1.0000 0.51800  0.59700  0.41200  Biso   1.000  H
  H26      1.0000 0.01800  0.09700  0.41200  Biso   1.000  H
  H27      1.0000 0.51800  0.40300  0.91200  Biso   1.000  H
  H28      1.0000 0.01800  0.90300  0.91200  Biso   1.000  H
  H29      1.0000 0.40400  0.60200  0.33500  Biso   1.000  H
  H30      1.0000 0.90400  0.10200  0.33500  Biso   1.000  H
  H31      1.0000 0.40400  0.39800  0.83500  Biso   1.000  H
  H32      1.0000 0.90400  0.89800  0.83500  Biso   1.000  H
  H33      1.0000 0.60100  0.37800  0.42300  Biso   1.000  H
  H34      1.0000 0.10100  0.87800  0.42300  Biso   1.000  H
  H35      1.0000 0.60100  0.62200  0.92300  Biso   1.000  H
  H36      1.0000 0.10100  0.12200  0.92300  Biso   1.000  H
  H37      1.0000 0.70500  0.35900  0.43800  Biso   1.000  H
  H38      1.0000 0.20500  0.85900  0.43800  Biso   1.000  H
  H39      1.0000 0.70500  0.64100  0.93800  Biso   1.000  H
  H40      1.0000 0.20500  0.14100  0.93800  Biso   1.000  H
  H41      1.0000 0.66400  0.23400  0.31600  Biso   1.000  H
  H42      1.0000 0.16400  0.73400  0.31600  Biso   1.000  H
  H43      1.0000 0.66400  0.76600  0.81600  Biso   1.000  H
  H44      1.0000 0.16400  0.26600  0.81600  Biso   1.000  H
  H45      1.0000 0.59000  0.18300  0.34800  Biso   1.000  H
  H46      1.0000 0.09000  0.68300  0.34800  Biso   1.000  H
  H47      1.0000 0.59000  0.81700  0.84800  Biso   1.000  H
  H48      1.0000 0.09000  0.31700  0.84800  Biso   1.000  H
  H49      1.0000 0.41500  0.28900  0.27300  Biso   1.000  H
  H50      1.0000 0.91500  0.78900  0.27300  Biso   1.000  H
  H51      1.0000 0.41500  0.71100  0.77300  Biso   1.000  H
  H52      1.0000 0.91500  0.21100  0.77300  Biso   1.000  H
  H53      1.0000 0.40800  0.15600  0.20700  Biso   1.000  H
  H54      1.0000 0.90800  0.65600  0.20700  Biso   1.000  H
  H55      1.0000 0.40800  0.84400  0.70700  Biso   1.000  H
  H56      1.0000 0.90800  0.34400  0.70700  Biso   1.000  H
  H57      1.0000 0.27000  0.28000  0.10700  Biso   1.000  H
  H58      1.0000 0.77000  0.78000  0.10700  Biso   1.000  H
  H59      1.0000 0.27000  0.72000  0.60700  Biso   1.000  H
  H60      1.0000 0.77000  0.22000  0.60700  Biso   1.000  H
  H61      1.0000 0.34100  0.33900  0.07300  Biso   1.000  H
  H62      1.0000 0.84100  0.83900  0.07300  Biso   1.000  H
  H63      1.0000 0.34100  0.66100  0.57300  Biso   1.000  H
  H64      1.0000 0.84100  0.16100  0.57300  Biso   1.000  H
  H65      1.0000 0.24200  0.50300  0.08700  Biso   1.000  H
  H66      1.0000 0.74200  0.00300  0.08700  Biso   1.000  H
  H67      1.0000 0.24200  0.49700  0.58700  Biso   1.000  H
  H68      1.0000 0.74200  0.99700  0.58700  Biso   1.000  H
  H69      1.0000 0.29800  0.48100  0.19800  Biso   1.000  H
  H70      1.0000 0.79800  0.98100  0.19800  Biso   1.000  H
  H71      1.0000 0.29800  0.51900  0.69800  Biso   1.000  H
  H72      1.0000 0.79800  0.01900  0.69800  Biso   1.000  H
  H73      1.0000 0.45500  0.87600  0.13300  Biso   1.000  H
  H74      1.0000 0.95500  0.37600  0.13300  Biso   1.000  H
  H75      1.0000 0.45500  0.12400  0.63300  Biso   1.000  H
  H76      1.0000 0.95500  0.62400  0.63300  Biso   1.000  H
  H77      1.0000 0.54500  0.90500  0.23300  Biso   1.000  H
  H78      1.0000 0.04500  0.40500  0.23300  Biso   1.000  H
  H79      1.0000 0.54500  0.09500  0.73300  Biso   1.000  H
  H80      1.0000 0.04500  0.59500  0.73300  Biso   1.000  H
  H81      1.0000 0.64200  0.96300  0.16000  Biso   1.000  H
  H82      1.0000 0.14200  0.46300  0.16000  Biso   1.000  H
  H83      1.0000 0.64200  0.03700  0.66000  Biso   1.000  H
  H84      1.0000 0.14200  0.53700  0.66000  Biso   1.000  H
  H85      1.0000 0.55900  0.04700  0.11900  Biso   1.000  H
  H86      1.0000 0.05900  0.54700  0.11900  Biso   1.000  H
  H87      1.0000 0.55900  0.95300  0.61900  Biso   1.000  H
  H88      1.0000 0.05900  0.45300  0.61900  Biso   1.000  H
  H89      1.0000 0.38300  0.95300  0.87700  Biso   1.000  H
  H90      1.0000 0.88300  0.45300  0.87700  Biso   1.000  H
  H91      1.0000 0.38300  0.04700  0.37700  Biso   1.000  H
  H92      1.0000 0.88300  0.54700  0.37700  Biso   1.000  H
  H93      1.0000 0.38200  0.97400  0.97400  Biso   1.000  H
  H94      1.0000 0.88200  0.47400  0.97400  Biso   1.000  H
  H95      1.0000 0.38200  0.02600  0.47400  Biso   1.000  H
  H96      1.0000 0.88200  0.52600  0.47400  Biso   1.000  H
  H97      1.0000 0.36100  0.20600  0.89600  Biso   1.000  H
  H98      1.0000 0.86100  0.70600  0.89600  Biso   1.000  H
  H99      1.0000 0.36100  0.79400  0.39600  Biso   1.000  H
  H100     1.0000 0.86100  0.29400  0.39600  Biso   1.000  H
  H101     1.0000 0.46200  0.22200  0.00200  Biso   1.000  H
  H102     1.0000 0.96200  0.72200  0.00200  Biso   1.000  H
  H103     1.0000 0.46200  0.77800  0.50200  Biso   1.000  H
  H104     1.0000 0.96200  0.27800  0.50200  Biso   1.000  H
  H105     1.0000 0.53700  0.83000  0.38800  Biso   1.000  H
  H106     1.0000 0.03700  0.33000  0.38800  Biso   1.000  H
  H107     1.0000 0.53700  0.17000  0.88800  Biso   1.000  H
  H108     1.0000 0.03700  0.67000  0.88800  Biso   1.000  H
  H109     1.0000 0.44300  0.82600  0.30700  Biso   1.000  H
  H110     1.0000 0.94300  0.32600  0.30700  Biso   1.000  H
  H111     1.0000 0.44300  0.17400  0.80700  Biso   1.000  H
  H112     1.0000 0.94300  0.67400  0.80700  Biso   1.000  H
