data_image0
_cell_length_a       8.4612
_cell_length_b       10.5659
_cell_length_c       10.7372
_cell_angle_alpha    100.957
_cell_angle_beta     102.211
_cell_angle_gamma    100.545

_symmetry_space_group_name_H-M    "P 1"
_symmetry_int_tables_number       1

loop_
  _symmetry_equiv_pos_as_xyz
  'x, y, z'

loop_
  _atom_site_label
  _atom_site_occupancy
  _atom_site_fract_x
  _atom_site_fract_y
  _atom_site_fract_z
  _atom_site_thermal_displace_type
  _atom_site_B_iso_or_equiv
  _atom_site_type_symbol
  Mo1      1.0000 0.67621  0.43609  0.01213  Biso   1.000  Mo
  Mo2      1.0000 0.32379  0.56391  0.98787  Biso   1.000  Mo
  O1       1.0000 0.60750  0.58540  0.10630  Biso   1.000  O
  O2       1.0000 0.39250  0.41460  0.89370  Biso   1.000  O
  N1       1.0000 0.12780  0.65480  0.44380  Biso   1.000  N
  N2       1.0000 0.87220  0.34520  0.55620  Biso   1.000  N
  O3       1.0000 0.02590  0.37700  0.35040  Biso   1.000  O
  O4       1.0000 0.97410  0.62300  0.64960  Biso   1.000  O
  C1       1.0000 0.17620  0.78430  0.49130  Biso   1.000  C
  C2       1.0000 0.82380  0.21570  0.50870  Biso   1.000  C
  H1       1.0000 0.17320  0.82870  0.57400  Biso   1.000  H
  H2       1.0000 0.82680  0.17130  0.42600  Biso   1.000  H
  O5       1.0000 0.55490  0.70160  0.31560  Biso   1.000  O
  O6       1.0000 0.44510  0.29840  0.68440  Biso   1.000  O
  N3       1.0000 0.15720  0.62940  0.32150  Biso   1.000  N
  N4       1.0000 0.84280  0.37060  0.67850  Biso   1.000  N
  N5       1.0000 0.23060  0.84290  0.40170  Biso   1.000  N
  N6       1.0000 0.76940  0.15710  0.59830  Biso   1.000  N
  Mo3      1.0000 0.55601  0.51919  0.28218  Biso   1.000  Mo
  Mo4      1.0000 0.44399  0.48081  0.71782  Biso   1.000  Mo
  O7       1.0000 0.39630  0.74490  0.06140  Biso   1.000  O
  O8       1.0000 0.60370  0.25510  0.93860  Biso   1.000  O
  C3       1.0000 0.21650  0.74330  0.29840  Biso   1.000  C
  C4       1.0000 0.78350  0.25670  0.70160  Biso   1.000  C
  H3       1.0000 0.24490  0.75400  0.22130  Biso   1.000  H
  H4       1.0000 0.75510  0.24600  0.77870  Biso   1.000  H
  Mo5      1.0000 0.66765  0.80114  0.20113  Biso   1.000  Mo
  Mo6      1.0000 0.33235  0.19886  0.79887  Biso   1.000  Mo
  O9       1.0000 0.63180  0.94790  0.27500  Biso   1.000  O
  O10      1.0000 0.36820  0.05210  0.72500  Biso   1.000  O
  C5       1.0000 0.29540  0.98530  0.41430  Biso   1.000  C
  C6       1.0000 0.70460  0.01470  0.58570  Biso   1.000  C
  H5       1.0000 0.36160  0.99560  0.35170  Biso   1.000  H
  H6       1.0000 0.63840  0.00440  0.64830  Biso   1.000  H
  H7       1.0000 0.36770  0.02420  0.50160  Biso   1.000  H
  H8       1.0000 0.63230  0.97580  0.49840  Biso   1.000  H
  Cu1      1.0000 0.00000  0.50000  0.50000  Biso   1.000  Cu
  O11      1.0000 0.69290  0.82720  0.03550  Biso   1.000  O
  O12      1.0000 0.30710  0.17280  0.96450  Biso   1.000  O
  C7       1.0000 0.15880  0.05960  0.39100  Biso   1.000  C
  C8       1.0000 0.84120  0.94040  0.60900  Biso   1.000  C
  H9       1.0000 0.09000  0.02630  0.30180  Biso   1.000  H
  H10      1.0000 0.91000  0.97370  0.69820  Biso   1.000  H
  H11      1.0000 0.08890  0.04770  0.45070  Biso   1.000  H
  H12      1.0000 0.91110  0.95230  0.54930  Biso   1.000  H
  Cu2      1.0000 0.13632  0.44276  0.22835  Biso   1.000  Cu
  Cu3      1.0000 0.86368  0.55724  0.77165  Biso   1.000  Cu
  O13      1.0000 0.44780  0.63290  0.85410  Biso   1.000  O
  O14      1.0000 0.55220  0.36710  0.14590  Biso   1.000  O
  N7       1.0000 0.24040  0.20480  0.41390  Biso   1.000  N
  N8       1.0000 0.75960  0.79520  0.58610  Biso   1.000  N
  H13      1.0000 0.34700  0.23070  0.43620  Biso   1.000  H
  H14      1.0000 0.65300  0.76930  0.56380  Biso   1.000  H
  H15      1.0000 0.18020  0.26140  0.40480  Biso   1.000  H
  H16      1.0000 0.81980  0.73860  0.59520  Biso   1.000  H
  O15      1.0000 0.50000  0.00000  0.00000  Biso   1.000  O
  O16      1.0000 0.29580  0.50480  0.12930  Biso   1.000  O
  O17      1.0000 0.70420  0.49520  0.87070  Biso   1.000  O
  O18      1.0000 0.25930  0.80810  0.81400  Biso   1.000  O
  O19      1.0000 0.74070  0.19190  0.18600  Biso   1.000  O
  O20      1.0000 0.74750  0.52940  0.37930  Biso   1.000  O
  O21      1.0000 0.25250  0.47060  0.62070  Biso   1.000  O
  O22      1.0000 0.86690  0.80720  0.27800  Biso   1.000  O
  O23      1.0000 0.13310  0.19280  0.72200  Biso   1.000  O
  O24      1.0000 0.87390  0.45360  0.09840  Biso   1.000  O
  O25      1.0000 0.12610  0.54640  0.90160  Biso   1.000  O
  O26      1.0000 0.56990  0.85200  0.77710  Biso   1.000  O
  O27      1.0000 0.43010  0.14800  0.22290  Biso   1.000  O
  O28      1.0000 0.41740  0.44830  0.35870  Biso   1.000  O
  O29      1.0000 0.58260  0.55170  0.64130  Biso   1.000  O
  Mo7      1.0000 0.46348  0.83044  0.89273  Biso   1.000  Mo
  Mo8      1.0000 0.53652  0.16956  0.10727  Biso   1.000  Mo
  O30      1.0000 0.11240  0.26020  0.13150  Biso   1.000  O
  O31      1.0000 0.88760  0.73980  0.86850  Biso   1.000  O
  K1       1.0000 0.10020  0.12638  0.01880  Biso   1.000  K
  K2       1.0000 0.89980  0.87362  0.98120  Biso   1.000  K
