data_image0
_cell_length_a       11.1489
_cell_length_b       11.9699
_cell_length_c       12.5693
_cell_angle_alpha    99.302
_cell_angle_beta     93.69
_cell_angle_gamma    107.155

_symmetry_space_group_name_H-M    "P 1"
_symmetry_int_tables_number       1

loop_
  _symmetry_equiv_pos_as_xyz
  'x, y, z'

loop_
  _atom_site_label
  _atom_site_occupancy
  _atom_site_fract_x
  _atom_site_fract_y
  _atom_site_fract_z
  _atom_site_thermal_displace_type
  _atom_site_B_iso_or_equiv
  _atom_site_type_symbol
  Cu1      1.0000 0.18297  0.36682  0.21624  Biso   1.000  Cu
  Cu2      1.0000 0.81703  0.63318  0.78376  Biso   1.000  Cu
  Cu3      1.0000 0.50000  0.50000  0.00000  Biso   1.000  Cu
  S1       1.0000 0.91109  0.38480  0.67725  Biso   1.000  S
  S2       1.0000 0.08891  0.61520  0.32275  Biso   1.000  S
  N1       1.0000 0.08850  0.26340  0.31180  Biso   1.000  N
  N2       1.0000 0.91150  0.73660  0.68820  Biso   1.000  N
  N3       1.0000 0.97170  0.19990  0.43810  Biso   1.000  N
  N4       1.0000 0.02830  0.80010  0.56190  Biso   1.000  N
  H1       1.0000 0.93250  0.20220  0.49470  Biso   1.000  H
  H2       1.0000 0.06750  0.79780  0.50530  Biso   1.000  H
  N5       1.0000 0.34750  0.38370  0.30160  Biso   1.000  N
  N6       1.0000 0.65250  0.61630  0.69840  Biso   1.000  N
  N7       1.0000 0.48850  0.33560  0.40150  Biso   1.000  N
  N8       1.0000 0.51150  0.66440  0.59850  Biso   1.000  N
  H3       1.0000 0.52020  0.29450  0.43850  Biso   1.000  H
  H4       1.0000 0.47980  0.70550  0.56150  Biso   1.000  H
  N9       1.0000 0.50210  0.65710  0.96360  Biso   1.000  N
  N10      1.0000 0.49790  0.34290  0.03640  Biso   1.000  N
  N11      1.0000 0.45240  0.77020  0.85700  Biso   1.000  N
  N12      1.0000 0.54760  0.22980  0.14300  Biso   1.000  N
  H5       1.0000 0.41250  0.79020  0.80610  Biso   1.000  H
  H6       1.0000 0.58750  0.20980  0.19390  Biso   1.000  H
  O1       1.0000 0.27650  0.43310  0.10460  Biso   1.000  O
  O2       1.0000 0.72350  0.56690  0.89540  Biso   1.000  O
  O3       1.0000 0.32120  0.44060  0.93880  Biso   1.000  O
  O4       1.0000 0.67880  0.55940  0.06120  Biso   1.000  O
  O5       1.0000 0.02520  0.32940  0.12630  Biso   1.000  O
  O6       1.0000 0.97480  0.67060  0.87370  Biso   1.000  O
  O7       1.0000 0.82430  0.45520  0.68150  Biso   1.000  O
  O8       1.0000 0.17570  0.54480  0.31850  Biso   1.000  O
  O9       1.0000 0.02760  0.43980  0.63550  Biso   1.000  O
  O10      1.0000 0.97240  0.56020  0.36450  Biso   1.000  O
  O11      1.0000 0.84710  0.26340  0.61710  Biso   1.000  O
  O12      1.0000 0.15290  0.73660  0.38290  Biso   1.000  O
  O13      1.0000 0.17460  0.67340  0.74930  Biso   1.000  O
  O14      1.0000 0.82540  0.32660  0.25070  Biso   1.000  O
  O15      1.0000 0.59830  0.20510  0.52370  Biso   1.000  O
  O16      1.0000 0.40170  0.79490  0.47630  Biso   1.000  O
  O17      1.0000 0.33720  0.85970  0.69030  Biso   1.000  O
  O18      1.0000 0.66280  0.14030  0.30970  Biso   1.000  O
  O19      1.0000 0.30000  0.01500  0.39900  Biso   1.000  O
  O20      1.0000 0.70000  0.98500  0.60100  Biso   1.000  O
  O21      1.0000 0.57500  0.96300  0.39500  Biso   1.000  O
  O22      1.0000 0.42500  0.03700  0.60500  Biso   1.000  O
  O23      1.0000 0.50100  0.90600  0.28700  Biso   1.000  O
  O24      1.0000 0.49900  0.09400  0.71300  Biso   1.000  O
  C1       1.0000 0.05220  0.13980  0.29260  Biso   1.000  C
  C2       1.0000 0.94780  0.86020  0.70740  Biso   1.000  C
  C3       1.0000 0.08220  0.05980  0.21370  Biso   1.000  C
  C4       1.0000 0.91780  0.94020  0.78630  Biso   1.000  C
  H7       1.0000 0.13180  0.08580  0.16030  Biso   1.000  H
  H8       1.0000 0.86820  0.91420  0.83970  Biso   1.000  H
  C5       1.0000 0.03520  0.93990  0.21780  Biso   1.000  C
  C6       1.0000 0.96480  0.06010  0.78220  Biso   1.000  C
  H9       1.0000 0.05480  0.88440  0.16690  Biso   1.000  H
  H10      1.0000 0.94520  0.11560  0.83310  Biso   1.000  H
  C7       1.0000 0.95960  0.90090  0.29600  Biso   1.000  C
  C8       1.0000 0.04040  0.09910  0.70400  Biso   1.000  C
  H11      1.0000 0.92930  0.81970  0.29590  Biso   1.000  H
  H12      1.0000 0.07070  0.18030  0.70410  Biso   1.000  H
  C9       1.0000 0.92810  0.97880  0.37390  Biso   1.000  C
  C10      1.0000 0.07190  0.02120  0.62610  Biso   1.000  C
  H13      1.0000 0.87610  0.95210  0.42550  Biso   1.000  H
  H14      1.0000 0.12390  0.04790  0.57450  Biso   1.000  H
  C11      1.0000 0.97760  0.09930  0.37190  Biso   1.000  C
  C12      1.0000 0.02240  0.90070  0.62810  Biso   1.000  C
  C13      1.0000 0.03810  0.29410  0.39870  Biso   1.000  C
  C14      1.0000 0.96190  0.70590  0.60130  Biso   1.000  C
  H15      1.0000 0.04730  0.37260  0.42960  Biso   1.000  H
  H16      1.0000 0.95270  0.62740  0.57040  Biso   1.000  H
  C15      1.0000 0.45990  0.47780  0.32050  Biso   1.000  C
  C16      1.0000 0.54010  0.52220  0.67950  Biso   1.000  C
  C17      1.0000 0.49170  0.58780  0.29010  Biso   1.000  C
  C18      1.0000 0.50830  0.41220  0.70990  Biso   1.000  C
  H17      1.0000 0.43360  0.61070  0.24940  Biso   1.000  H
  H18      1.0000 0.56640  0.38930  0.75060  Biso   1.000  H
  C19      1.0000 0.61260  0.66160  0.32260  Biso   1.000  C
  C20      1.0000 0.38740  0.33840  0.67740  Biso   1.000  C
  H19      1.0000 0.63660  0.73610  0.30330  Biso   1.000  H
  H20      1.0000 0.36340  0.26390  0.69670  Biso   1.000  H
  C21      1.0000 0.70140  0.62850  0.38410  Biso   1.000  C
  C22      1.0000 0.29860  0.37150  0.61590  Biso   1.000  C
  H21      1.0000 0.78280  0.68130  0.40380  Biso   1.000  H
  H22      1.0000 0.21720  0.31870  0.59620  Biso   1.000  H
  C23      1.0000 0.67170  0.52260  0.41510  Biso   1.000  C
  C24      1.0000 0.32830  0.47740  0.58490  Biso   1.000  C
  H23      1.0000 0.73040  0.50080  0.45620  Biso   1.000  H
  H24      1.0000 0.26960  0.49920  0.54380  Biso   1.000  H
  C25      1.0000 0.54990  0.44750  0.38310  Biso   1.000  C
  C26      1.0000 0.45010  0.55250  0.61690  Biso   1.000  C
  C27      1.0000 0.37110  0.30280  0.35130  Biso   1.000  C
  C28      1.0000 0.62890  0.69720  0.64870  Biso   1.000  C
  H25      1.0000 0.31170  0.22960  0.35150  Biso   1.000  H
  H26      1.0000 0.68830  0.77040  0.64850  Biso   1.000  H
  C29      1.0000 0.58680  0.77200  0.99380  Biso   1.000  C
  C30      1.0000 0.41320  0.22800  0.00620  Biso   1.000  C
  C31      1.0000 0.68690  0.82290  0.07660  Biso   1.000  C
  C32      1.0000 0.31310  0.17710  0.92340  Biso   1.000  C
  H27      1.0000 0.70960  0.77740  0.12290  Biso   1.000  H
  H28      1.0000 0.29040  0.22260  0.87710  Biso   1.000  H
  C33      1.0000 0.75090  0.94150  0.08770  Biso   1.000  C
  C34      1.0000 0.24910  0.05850  0.91230  Biso   1.000  C
  H29      1.0000 0.81760  0.97700  0.14280  Biso   1.000  H
  H30      1.0000 0.18240  0.02300  0.85720  Biso   1.000  H
  C35      1.0000 0.71840  0.00920  0.01900  Biso   1.000  C
  C36      1.0000 0.28160  0.99080  0.98100  Biso   1.000  C
  H31      1.0000 0.76460  0.08950  0.02870  Biso   1.000  H
  H32      1.0000 0.23540  0.91050  0.97130  Biso   1.000  H
  C37      1.0000 0.62110  0.96290  0.93710  Biso   1.000  C
  C38      1.0000 0.37890  0.03710  0.06290  Biso   1.000  C
  H33      1.0000 0.60000  0.00940  0.89090  Biso   1.000  H
  H34      1.0000 0.40000  0.99060  0.10910  Biso   1.000  H
  C39      1.0000 0.55600  0.84420  0.92650  Biso   1.000  C
  C40      1.0000 0.44400  0.15580  0.07350  Biso   1.000  C
  C41      1.0000 0.42490  0.66210  0.88240  Biso   1.000  C
  C42      1.0000 0.57510  0.33790  0.11760  Biso   1.000  C
  H35      1.0000 0.35820  0.59720  0.84630  Biso   1.000  H
  H36      1.0000 0.64180  0.40280  0.15370  Biso   1.000  H
  C43      1.0000 0.24060  0.41970  0.00500  Biso   1.000  C
  C44      1.0000 0.75940  0.58030  0.99500  Biso   1.000  C
  C45      1.0000 0.10510  0.38280  0.96140  Biso   1.000  C
  C46      1.0000 0.89490  0.61720  0.03860  Biso   1.000  C
  C47      1.0000 0.00710  0.34520  0.02610  Biso   1.000  C
  C48      1.0000 0.99290  0.65480  0.97390  Biso   1.000  C
  C49      1.0000 0.88150  0.32220  0.97930  Biso   1.000  C
  C50      1.0000 0.11850  0.67780  0.02070  Biso   1.000  C
  H37      1.0000 0.81580  0.29780  0.02080  Biso   1.000  H
  H38      1.0000 0.18420  0.70220  0.97920  Biso   1.000  H
  C51      1.0000 0.85330  0.33460  0.87540  Biso   1.000  C
  C52      1.0000 0.14670  0.66540  0.12460  Biso   1.000  C
  H39      1.0000 0.76970  0.31930  0.84720  Biso   1.000  H
  H40      1.0000 0.23030  0.68070  0.15280  Biso   1.000  H
  C53      1.0000 0.95040  0.37030  0.81150  Biso   1.000  C
  C54      1.0000 0.04960  0.62970  0.18850  Biso   1.000  C
  C55      1.0000 0.07410  0.39410  0.85440  Biso   1.000  C
  C56      1.0000 0.92590  0.60590  0.14560  Biso   1.000  C
  H41      1.0000 0.13850  0.41820  0.81170  Biso   1.000  H
  H42      1.0000 0.86150  0.58180  0.18830  Biso   1.000  H
  H43      1.0000 0.12100  0.67800  0.79400  Biso   1.000  H
  H44      1.0000 0.87900  0.32200  0.20600  Biso   1.000  H
  H45      1.0000 0.14700  0.60700  0.70500  Biso   1.000  H
  H46      1.0000 0.85300  0.39300  0.29500  Biso   1.000  H
  H47      1.0000 0.55700  0.14600  0.55100  Biso   1.000  H
  H48      1.0000 0.44300  0.85400  0.44900  Biso   1.000  H
  H49      1.0000 0.67400  0.23100  0.55500  Biso   1.000  H
  H50      1.0000 0.32600  0.76900  0.44500  Biso   1.000  H
  H51      1.0000 0.37900  0.93300  0.69300  Biso   1.000  H
  H52      1.0000 0.62100  0.06700  0.30700  Biso   1.000  H
  H53      1.0000 0.32000  0.82500  0.62300  Biso   1.000  H
  H54      1.0000 0.68000  0.17500  0.37700  Biso   1.000  H
  H55      1.0000 0.33000  0.03300  0.46500  Biso   1.000  H
  H56      1.0000 0.67000  0.96700  0.53500  Biso   1.000  H
  H57      1.0000 0.34500  0.98100  0.36200  Biso   1.000  H
  H58      1.0000 0.65500  0.01900  0.63800  Biso   1.000  H
