data_image0
_cell_length_a       7.7274
_cell_length_b       8.0856
_cell_length_c       12.1577
_cell_angle_alpha    84.323
_cell_angle_beta     77.986
_cell_angle_gamma    69.051

_symmetry_space_group_name_H-M    "P 1"
_symmetry_int_tables_number       1

loop_
  _symmetry_equiv_pos_as_xyz
  'x, y, z'

loop_
  _atom_site_label
  _atom_site_occupancy
  _atom_site_fract_x
  _atom_site_fract_y
  _atom_site_fract_z
  _atom_site_thermal_displace_type
  _atom_site_B_iso_or_equiv
  _atom_site_type_symbol
  Cu1      1.0000 0.68114  0.98433  0.53365  Biso   1.000  Cu
  Cu2      1.0000 0.31886  0.01567  0.46635  Biso   1.000  Cu
  S1       1.0000 0.37014  0.86273  0.75326  Biso   1.000  S
  S2       1.0000 0.62986  0.13727  0.24674  Biso   1.000  S
  N1       1.0000 0.83770  0.92010  0.82500  Biso   1.000  N
  N2       1.0000 0.16230  0.07990  0.17500  Biso   1.000  N
  N3       1.0000 0.99220  0.79200  0.97030  Biso   1.000  N
  N4       1.0000 0.00780  0.20800  0.02970  Biso   1.000  N
  O1       1.0000 0.43750  0.16230  0.52290  Biso   1.000  O
  O2       1.0000 0.56250  0.83770  0.47710  Biso   1.000  O
  O3       1.0000 0.19190  0.40470  0.56920  Biso   1.000  O
  O4       1.0000 0.80810  0.59530  0.43080  Biso   1.000  O
  O5       1.0000 0.77220  0.14350  0.58471  Biso   1.000  O
  O6       1.0000 0.22780  0.85650  0.41529  Biso   1.000  O
  O7       1.0000 0.51700  0.94120  0.72505  Biso   1.000  O
  O8       1.0000 0.48300  0.05880  0.27495  Biso   1.000  O
  O9       1.0000 0.21430  0.94390  0.69380  Biso   1.000  O
  O10      1.0000 0.78570  0.05610  0.30620  Biso   1.000  O
  O11      1.0000 0.30650  0.85640  0.87512  Biso   1.000  O
  O12      1.0000 0.69350  0.14360  0.12488  Biso   1.000  O
  O13      1.0000 0.91930  0.79630  0.54179  Biso   1.000  O
  O14      1.0000 0.08070  0.20370  0.45821  Biso   1.000  O
  C1       1.0000 0.35800  0.31690  0.56920  Biso   1.000  C
  C2       1.0000 0.64200  0.68310  0.43080  Biso   1.000  C
  C3       1.0000 0.47450  0.38740  0.62200  Biso   1.000  C
  C4       1.0000 0.52550  0.61260  0.37800  Biso   1.000  C
  C5       1.0000 0.66550  0.29830  0.62890  Biso   1.000  C
  C6       1.0000 0.33450  0.70170  0.37110  Biso   1.000  C
  C7       1.0000 0.75460  0.38030  0.68440  Biso   1.000  C
  C8       1.0000 0.24540  0.61970  0.31560  Biso   1.000  C
  H1       1.0000 0.87730  0.31880  0.69500  Biso   1.000  H
  H2       1.0000 0.12270  0.68120  0.30500  Biso   1.000  H
  C9       1.0000 0.66420  0.54920  0.72320  Biso   1.000  C
  C10      1.0000 0.33580  0.45080  0.27680  Biso   1.000  C
  H3       1.0000 0.72690  0.60220  0.75780  Biso   1.000  H
  H4       1.0000 0.27310  0.39780  0.24220  Biso   1.000  H
  C11      1.0000 0.47880  0.64100  0.71070  Biso   1.000  C
  C12      1.0000 0.52120  0.35900  0.28930  Biso   1.000  C
  C13      1.0000 0.38510  0.56080  0.66220  Biso   1.000  C
  C14      1.0000 0.61490  0.43920  0.33780  Biso   1.000  C
  H5       1.0000 0.26020  0.62210  0.65580  Biso   1.000  H
  H6       1.0000 0.73980  0.37790  0.34420  Biso   1.000  H
  C15      1.0000 0.83900  0.83520  0.92450  Biso   1.000  C
  C16      1.0000 0.16100  0.16480  0.07550  Biso   1.000  C
  C17      1.0000 0.68560  0.78890  0.98530  Biso   1.000  C
  C18      1.0000 0.31440  0.21110  0.01470  Biso   1.000  C
  H7       1.0000 0.57580  0.81710  0.95640  Biso   1.000  H
  H8       1.0000 0.42420  0.18290  0.04360  Biso   1.000  H
  C19      1.0000 0.70030  0.70300  0.08590  Biso   1.000  C
  C20      1.0000 0.29970  0.29700  0.91410  Biso   1.000  C
  H9       1.0000 0.59960  0.67170  0.12590  Biso   1.000  H
  H10      1.0000 0.40040  0.32830  0.87410  Biso   1.000  H
  C21      1.0000 0.86320  0.66020  0.13100  Biso   1.000  C
  C22      1.0000 0.13680  0.33980  0.86900  Biso   1.000  C
  H11      1.0000 0.87270  0.60120  0.20040  Biso   1.000  H
  H12      1.0000 0.12730  0.39880  0.79960  Biso   1.000  H
  C23      1.0000 0.00560  0.70700  0.07110  Biso   1.000  C
  C24      1.0000 0.99440  0.29300  0.92890  Biso   1.000  C
  H13      1.0000 0.11560  0.68050  0.09950  Biso   1.000  H
  H14      1.0000 0.88440  0.31950  0.90050  Biso   1.000  H
  H15      1.0000 0.01000  0.82400  0.50300  Biso   1.000  H
  H16      1.0000 0.99000  0.17600  0.49700  Biso   1.000  H
  H17      1.0000 0.91000  0.70900  0.51400  Biso   1.000  H
  H18      1.0000 0.09000  0.29100  0.48600  Biso   1.000  H
  H19      1.0000 0.08300  0.81900  0.93800  Biso   1.000  H
  H20      1.0000 0.91700  0.18100  0.06200  Biso   1.000  H
  H21      1.0000 0.92800  0.94100  0.78600  Biso   1.000  H
  H22      1.0000 0.07200  0.05900  0.21400  Biso   1.000  H
  H23      1.0000 0.74600  0.93500  0.79700  Biso   1.000  H
  H24      1.0000 0.25400  0.06500  0.20300  Biso   1.000  H
