data_image0
_cell_length_a       25.4241
_cell_length_b       25.4241
_cell_length_c       30.4446
_cell_angle_alpha    90
_cell_angle_beta     90
_cell_angle_gamma    90

_symmetry_space_group_name_H-M    "P 1"
_symmetry_int_tables_number       1

loop_
  _symmetry_equiv_pos_as_xyz
  'x, y, z'

loop_
  _atom_site_label
  _atom_site_occupancy
  _atom_site_fract_x
  _atom_site_fract_y
  _atom_site_fract_z
  _atom_site_thermal_displace_type
  _atom_site_B_iso_or_equiv
  _atom_site_type_symbol
  Zn1      1.0000 0.34497  0.50000  0.05072  Biso   1.000  Zn
  Zn2      1.0000 0.65503  0.50000  0.05072  Biso   1.000  Zn
  Zn3      1.0000 0.50000  0.34497  0.55072  Biso   1.000  Zn
  Zn4      1.0000 0.50000  0.65503  0.55072  Biso   1.000  Zn
  Zn5      1.0000 0.65503  0.50000  0.94928  Biso   1.000  Zn
  Zn6      1.0000 0.34497  0.50000  0.94928  Biso   1.000  Zn
  Zn7      1.0000 0.50000  0.34497  0.44928  Biso   1.000  Zn
  Zn8      1.0000 0.50000  0.65503  0.44928  Biso   1.000  Zn
  Zn9      1.0000 0.25559  0.43682  0.00000  Biso   1.000  Zn
  Zn10     1.0000 0.74441  0.56318  0.00000  Biso   1.000  Zn
  Zn11     1.0000 0.56318  0.25559  0.50000  Biso   1.000  Zn
  Zn12     1.0000 0.43682  0.74441  0.50000  Biso   1.000  Zn
  Zn13     1.0000 0.74441  0.43682  0.00000  Biso   1.000  Zn
  Zn14     1.0000 0.25559  0.56318  0.00000  Biso   1.000  Zn
  Zn15     1.0000 0.43682  0.25559  0.50000  Biso   1.000  Zn
  Zn16     1.0000 0.56318  0.74441  0.50000  Biso   1.000  Zn
  Zn17     1.0000 0.00000  0.06163  0.21286  Biso   1.000  Zn
  Zn18     1.0000 0.00000  0.93837  0.21286  Biso   1.000  Zn
  Zn19     1.0000 0.93837  0.00000  0.71286  Biso   1.000  Zn
  Zn20     1.0000 0.06163  0.00000  0.71286  Biso   1.000  Zn
  Zn21     1.0000 0.00000  0.06163  0.78714  Biso   1.000  Zn
  Zn22     1.0000 0.00000  0.93837  0.78714  Biso   1.000  Zn
  Zn23     1.0000 0.06163  0.00000  0.28714  Biso   1.000  Zn
  Zn24     1.0000 0.93837  0.00000  0.28714  Biso   1.000  Zn
  Cu1      1.0000 0.22061  0.26289  0.20261  Biso   1.000  Cu
  Cu2      1.0000 0.77939  0.73711  0.20261  Biso   1.000  Cu
  Cu3      1.0000 0.73711  0.22061  0.70261  Biso   1.000  Cu
  Cu4      1.0000 0.26289  0.77939  0.70261  Biso   1.000  Cu
  Cu5      1.0000 0.77939  0.26289  0.79739  Biso   1.000  Cu
  Cu6      1.0000 0.22061  0.73711  0.79739  Biso   1.000  Cu
  Cu7      1.0000 0.26289  0.22061  0.29739  Biso   1.000  Cu
  Cu8      1.0000 0.73711  0.77939  0.29739  Biso   1.000  Cu
  Cu9      1.0000 0.77939  0.73711  0.79739  Biso   1.000  Cu
  Cu10     1.0000 0.22061  0.26289  0.79739  Biso   1.000  Cu
  Cu11     1.0000 0.26289  0.77939  0.29739  Biso   1.000  Cu
  Cu12     1.0000 0.73711  0.22061  0.29739  Biso   1.000  Cu
  Cu13     1.0000 0.22061  0.73711  0.20261  Biso   1.000  Cu
  Cu14     1.0000 0.77939  0.26289  0.20261  Biso   1.000  Cu
  Cu15     1.0000 0.73711  0.77939  0.70261  Biso   1.000  Cu
  Cu16     1.0000 0.26289  0.22061  0.70261  Biso   1.000  Cu
  Cu17     1.0000 0.32049  0.32049  0.25000  Biso   1.000  Cu
  Cu18     1.0000 0.67951  0.67951  0.25000  Biso   1.000  Cu
  Cu19     1.0000 0.67951  0.32049  0.75000  Biso   1.000  Cu
  Cu20     1.0000 0.32049  0.67951  0.75000  Biso   1.000  Cu
  Cu21     1.0000 0.67951  0.67951  0.75000  Biso   1.000  Cu
  Cu22     1.0000 0.32049  0.32049  0.75000  Biso   1.000  Cu
  Cu23     1.0000 0.32049  0.67951  0.25000  Biso   1.000  Cu
  Cu24     1.0000 0.67951  0.32049  0.25000  Biso   1.000  Cu
  C1       1.0000 0.32040  0.37390  0.16460  Biso   1.000  C
  C2       1.0000 0.67960  0.62610  0.16460  Biso   1.000  C
  C3       1.0000 0.62610  0.32040  0.66460  Biso   1.000  C
  C4       1.0000 0.37390  0.67960  0.66460  Biso   1.000  C
  C5       1.0000 0.67960  0.37390  0.83540  Biso   1.000  C
  C6       1.0000 0.32040  0.62610  0.83540  Biso   1.000  C
  C7       1.0000 0.37390  0.32040  0.33540  Biso   1.000  C
  C8       1.0000 0.62610  0.67960  0.33540  Biso   1.000  C
  C9       1.0000 0.67960  0.62610  0.83540  Biso   1.000  C
  C10      1.0000 0.32040  0.37390  0.83540  Biso   1.000  C
  C11      1.0000 0.37390  0.67960  0.33540  Biso   1.000  C
  C12      1.0000 0.62610  0.32040  0.33540  Biso   1.000  C
  C13      1.0000 0.32040  0.62610  0.16460  Biso   1.000  C
  C14      1.0000 0.67960  0.37390  0.16460  Biso   1.000  C
  C15      1.0000 0.62610  0.67960  0.66460  Biso   1.000  C
  C16      1.0000 0.37390  0.32040  0.66460  Biso   1.000  C
  H1       1.0000 0.35080  0.39470  0.17000  Biso   1.000  H
  H2       1.0000 0.64920  0.60530  0.17000  Biso   1.000  H
  H3       1.0000 0.60530  0.35080  0.67000  Biso   1.000  H
  H4       1.0000 0.39470  0.64920  0.67000  Biso   1.000  H
  H5       1.0000 0.64920  0.39470  0.83000  Biso   1.000  H
  H6       1.0000 0.35080  0.60530  0.83000  Biso   1.000  H
  H7       1.0000 0.39470  0.35080  0.33000  Biso   1.000  H
  H8       1.0000 0.60530  0.64920  0.33000  Biso   1.000  H
  H9       1.0000 0.64920  0.60530  0.83000  Biso   1.000  H
  H10      1.0000 0.35080  0.39470  0.83000  Biso   1.000  H
  H11      1.0000 0.39470  0.64920  0.33000  Biso   1.000  H
  H12      1.0000 0.60530  0.35080  0.33000  Biso   1.000  H
  H13      1.0000 0.35080  0.60530  0.17000  Biso   1.000  H
  H14      1.0000 0.64920  0.39470  0.17000  Biso   1.000  H
  H15      1.0000 0.60530  0.64920  0.67000  Biso   1.000  H
  H16      1.0000 0.39470  0.35080  0.67000  Biso   1.000  H
  C17      1.0000 0.28900  0.37590  0.12630  Biso   1.000  C
  C18      1.0000 0.71100  0.62410  0.12630  Biso   1.000  C
  C19      1.0000 0.62410  0.28900  0.62630  Biso   1.000  C
  C20      1.0000 0.37590  0.71100  0.62630  Biso   1.000  C
  C21      1.0000 0.71100  0.37590  0.87370  Biso   1.000  C
  C22      1.0000 0.28900  0.62410  0.87370  Biso   1.000  C
  C23      1.0000 0.37590  0.28900  0.37370  Biso   1.000  C
  C24      1.0000 0.62410  0.71100  0.37370  Biso   1.000  C
  C25      1.0000 0.71100  0.62410  0.87370  Biso   1.000  C
  C26      1.0000 0.28900  0.37590  0.87370  Biso   1.000  C
  C27      1.0000 0.37590  0.71100  0.37370  Biso   1.000  C
  C28      1.0000 0.62410  0.28900  0.37370  Biso   1.000  C
  C29      1.0000 0.28900  0.62410  0.12630  Biso   1.000  C
  C30      1.0000 0.71100  0.37590  0.12630  Biso   1.000  C
  C31      1.0000 0.62410  0.71100  0.62630  Biso   1.000  C
  C32      1.0000 0.37590  0.28900  0.62630  Biso   1.000  C
  C33      1.0000 0.24990  0.34020  0.13340  Biso   1.000  C
  C34      1.0000 0.75010  0.65980  0.13340  Biso   1.000  C
  C35      1.0000 0.65980  0.24990  0.63340  Biso   1.000  C
  C36      1.0000 0.34020  0.75010  0.63340  Biso   1.000  C
  C37      1.0000 0.75010  0.34020  0.86660  Biso   1.000  C
  C38      1.0000 0.24990  0.65980  0.86660  Biso   1.000  C
  C39      1.0000 0.34020  0.24990  0.36660  Biso   1.000  C
  C40      1.0000 0.65980  0.75010  0.36660  Biso   1.000  C
  C41      1.0000 0.75010  0.65980  0.86660  Biso   1.000  C
  C42      1.0000 0.24990  0.34020  0.86660  Biso   1.000  C
  C43      1.0000 0.34020  0.75010  0.36660  Biso   1.000  C
  C44      1.0000 0.65980  0.24990  0.36660  Biso   1.000  C
  C45      1.0000 0.24990  0.65980  0.13340  Biso   1.000  C
  C46      1.0000 0.75010  0.34020  0.13340  Biso   1.000  C
  C47      1.0000 0.65980  0.75010  0.63340  Biso   1.000  C
  C48      1.0000 0.34020  0.24990  0.63340  Biso   1.000  C
  H17      1.0000 0.22150  0.33290  0.11410  Biso   1.000  H
  H18      1.0000 0.77850  0.66710  0.11410  Biso   1.000  H
  H19      1.0000 0.66710  0.22150  0.61410  Biso   1.000  H
  H20      1.0000 0.33290  0.77850  0.61410  Biso   1.000  H
  H21      1.0000 0.77850  0.33290  0.88590  Biso   1.000  H
  H22      1.0000 0.22150  0.66710  0.88590  Biso   1.000  H
  H23      1.0000 0.33290  0.22150  0.38590  Biso   1.000  H
  H24      1.0000 0.66710  0.77850  0.38590  Biso   1.000  H
  H25      1.0000 0.77850  0.66710  0.88590  Biso   1.000  H
  H26      1.0000 0.22150  0.33290  0.88590  Biso   1.000  H
  H27      1.0000 0.33290  0.77850  0.38590  Biso   1.000  H
  H28      1.0000 0.66710  0.22150  0.38590  Biso   1.000  H
  H29      1.0000 0.22150  0.66710  0.11410  Biso   1.000  H
  H30      1.0000 0.77850  0.33290  0.11410  Biso   1.000  H
  H31      1.0000 0.66710  0.77850  0.61410  Biso   1.000  H
  H32      1.0000 0.33290  0.22150  0.61410  Biso   1.000  H
  C49      1.0000 0.29610  0.40940  0.08870  Biso   1.000  C
  C50      1.0000 0.70390  0.59060  0.08870  Biso   1.000  C
  C51      1.0000 0.59060  0.29610  0.58870  Biso   1.000  C
  C52      1.0000 0.40940  0.70390  0.58870  Biso   1.000  C
  C53      1.0000 0.70390  0.40940  0.91130  Biso   1.000  C
  C54      1.0000 0.29610  0.59060  0.91130  Biso   1.000  C
  C55      1.0000 0.40940  0.29610  0.41130  Biso   1.000  C
  C56      1.0000 0.59060  0.70390  0.41130  Biso   1.000  C
  C57      1.0000 0.70390  0.59060  0.91130  Biso   1.000  C
  C58      1.0000 0.29610  0.40940  0.91130  Biso   1.000  C
  C59      1.0000 0.40940  0.70390  0.41130  Biso   1.000  C
  C60      1.0000 0.59060  0.29610  0.41130  Biso   1.000  C
  C61      1.0000 0.29610  0.59060  0.08870  Biso   1.000  C
  C62      1.0000 0.70390  0.40940  0.08870  Biso   1.000  C
  C63      1.0000 0.59060  0.70390  0.58870  Biso   1.000  C
  C64      1.0000 0.40940  0.29610  0.58870  Biso   1.000  C
  C65      1.0000 0.46860  0.50000  0.03620  Biso   1.000  C
  C66      1.0000 0.53140  0.50000  0.03620  Biso   1.000  C
  C67      1.0000 0.50000  0.46860  0.53620  Biso   1.000  C
  C68      1.0000 0.50000  0.53140  0.53620  Biso   1.000  C
  C69      1.0000 0.53140  0.50000  0.96380  Biso   1.000  C
  C70      1.0000 0.46860  0.50000  0.96380  Biso   1.000  C
  C71      1.0000 0.50000  0.46860  0.46380  Biso   1.000  C
  C72      1.0000 0.50000  0.53140  0.46380  Biso   1.000  C
  C73      1.0000 0.50000  0.50000  0.00000  Biso   1.000  C
  C74      1.0000 0.50000  0.50000  0.50000  Biso   1.000  C
  C75      1.0000 0.43570  0.50000  0.00000  Biso   1.000  C
  C76      1.0000 0.56430  0.50000  0.00000  Biso   1.000  C
  C77      1.0000 0.50000  0.43570  0.50000  Biso   1.000  C
  C78      1.0000 0.50000  0.56430  0.50000  Biso   1.000  C
  C79      1.0000 0.14650  0.17740  0.21890  Biso   1.000  C
  C80      1.0000 0.85350  0.82260  0.21890  Biso   1.000  C
  C81      1.0000 0.82260  0.14650  0.71890  Biso   1.000  C
  C82      1.0000 0.17740  0.85350  0.71890  Biso   1.000  C
  C83      1.0000 0.85350  0.17740  0.78110  Biso   1.000  C
  C84      1.0000 0.14650  0.82260  0.78110  Biso   1.000  C
  C85      1.0000 0.17740  0.14650  0.28110  Biso   1.000  C
  C86      1.0000 0.82260  0.85350  0.28110  Biso   1.000  C
  C87      1.0000 0.85350  0.82260  0.78110  Biso   1.000  C
  C88      1.0000 0.14650  0.17740  0.78110  Biso   1.000  C
  C89      1.0000 0.17740  0.85350  0.28110  Biso   1.000  C
  C90      1.0000 0.82260  0.14650  0.28110  Biso   1.000  C
  C91      1.0000 0.14650  0.82260  0.21890  Biso   1.000  C
  C92      1.0000 0.85350  0.17740  0.21890  Biso   1.000  C
  C93      1.0000 0.82260  0.85350  0.71890  Biso   1.000  C
  C94      1.0000 0.17740  0.14650  0.71890  Biso   1.000  C
  H33      1.0000 0.12710  0.18160  0.19250  Biso   1.000  H
  H34      1.0000 0.87290  0.81840  0.19250  Biso   1.000  H
  H35      1.0000 0.81840  0.12710  0.69250  Biso   1.000  H
  H36      1.0000 0.18160  0.87290  0.69250  Biso   1.000  H
  H37      1.0000 0.87290  0.18160  0.80750  Biso   1.000  H
  H38      1.0000 0.12710  0.81840  0.80750  Biso   1.000  H
  H39      1.0000 0.18160  0.12710  0.30750  Biso   1.000  H
  H40      1.0000 0.81840  0.87290  0.30750  Biso   1.000  H
  H41      1.0000 0.87290  0.81840  0.80750  Biso   1.000  H
  H42      1.0000 0.12710  0.18160  0.80750  Biso   1.000  H
  H43      1.0000 0.18160  0.87290  0.30750  Biso   1.000  H
  H44      1.0000 0.81840  0.12710  0.30750  Biso   1.000  H
  H45      1.0000 0.12710  0.81840  0.19250  Biso   1.000  H
  H46      1.0000 0.87290  0.18160  0.19250  Biso   1.000  H
  H47      1.0000 0.81840  0.87290  0.69250  Biso   1.000  H
  H48      1.0000 0.18160  0.12710  0.69250  Biso   1.000  H
  C95      1.0000 0.13790  0.13790  0.25000  Biso   1.000  C
  C96      1.0000 0.86210  0.86210  0.25000  Biso   1.000  C
  C97      1.0000 0.86210  0.13790  0.75000  Biso   1.000  C
  C98      1.0000 0.13790  0.86210  0.75000  Biso   1.000  C
  C99      1.0000 0.86210  0.86210  0.75000  Biso   1.000  C
  C100     1.0000 0.13790  0.13790  0.75000  Biso   1.000  C
  C101     1.0000 0.13790  0.86210  0.25000  Biso   1.000  C
  C102     1.0000 0.86210  0.13790  0.25000  Biso   1.000  C
  C103     1.0000 0.09760  0.09760  0.25000  Biso   1.000  C
  C104     1.0000 0.90240  0.90240  0.25000  Biso   1.000  C
  C105     1.0000 0.90240  0.09760  0.75000  Biso   1.000  C
  C106     1.0000 0.09760  0.90240  0.75000  Biso   1.000  C
  C107     1.0000 0.90240  0.90240  0.75000  Biso   1.000  C
  C108     1.0000 0.09760  0.09760  0.75000  Biso   1.000  C
  C109     1.0000 0.09760  0.90240  0.25000  Biso   1.000  C
  C110     1.0000 0.90240  0.09760  0.25000  Biso   1.000  C
  C111     1.0000 0.15820  0.50000  0.00000  Biso   1.000  C
  C112     1.0000 0.84180  0.50000  0.00000  Biso   1.000  C
  C113     1.0000 0.50000  0.15820  0.50000  Biso   1.000  C
  C114     1.0000 0.50000  0.84180  0.50000  Biso   1.000  C
  C115     1.0000 0.00000  0.06220  0.01680  Biso   1.000  C
  C116     1.0000 0.00000  0.93780  0.01680  Biso   1.000  C
  C117     1.0000 0.93780  0.00000  0.51680  Biso   1.000  C
  C118     1.0000 0.06220  0.00000  0.51680  Biso   1.000  C
  C119     1.0000 0.00000  0.06220  0.98320  Biso   1.000  C
  C120     1.0000 0.00000  0.93780  0.98320  Biso   1.000  C
  C121     1.0000 0.06220  0.00000  0.48320  Biso   1.000  C
  C122     1.0000 0.93780  0.00000  0.48320  Biso   1.000  C
  C123     1.0000 0.00000  0.00000  0.13130  Biso   1.000  C
  C124     1.0000 0.00000  0.00000  0.63130  Biso   1.000  C
  C125     1.0000 0.00000  0.00000  0.86870  Biso   1.000  C
  C126     1.0000 0.00000  0.00000  0.36870  Biso   1.000  C
  C127     1.0000 0.00000  0.02130  0.00000  Biso   1.000  C
  C128     1.0000 0.00000  0.97870  0.00000  Biso   1.000  C
  C129     1.0000 0.97870  0.00000  0.50000  Biso   1.000  C
  C130     1.0000 0.02130  0.00000  0.50000  Biso   1.000  C
  C131     1.0000 0.00000  0.06550  0.06470  Biso   1.000  C
  C132     1.0000 0.00000  0.93450  0.06470  Biso   1.000  C
  C133     1.0000 0.93450  0.00000  0.56470  Biso   1.000  C
  C134     1.0000 0.06550  0.00000  0.56470  Biso   1.000  C
  C135     1.0000 0.00000  0.06550  0.93530  Biso   1.000  C
  C136     1.0000 0.00000  0.93450  0.93530  Biso   1.000  C
  C137     1.0000 0.06550  0.00000  0.43530  Biso   1.000  C
  C138     1.0000 0.93450  0.00000  0.43530  Biso   1.000  C
  C139     1.0000 0.06780  0.47260  0.00000  Biso   1.000  C
  C140     1.0000 0.93220  0.52740  0.00000  Biso   1.000  C
  C141     1.0000 0.52740  0.06780  0.50000  Biso   1.000  C
  C142     1.0000 0.47260  0.93220  0.50000  Biso   1.000  C
  C143     1.0000 0.93220  0.47260  0.00000  Biso   1.000  C
  C144     1.0000 0.06780  0.52740  0.00000  Biso   1.000  C
  C145     1.0000 0.47260  0.06780  0.50000  Biso   1.000  C
  C146     1.0000 0.52740  0.93220  0.50000  Biso   1.000  C
  C147     1.0000 0.00000  0.00000  0.08190  Biso   1.000  C
  C148     1.0000 0.00000  0.00000  0.58190  Biso   1.000  C
  C149     1.0000 0.00000  0.00000  0.91810  Biso   1.000  C
  C150     1.0000 0.00000  0.00000  0.41810  Biso   1.000  C
  C151     1.0000 0.00000  0.02970  0.05620  Biso   1.000  C
  C152     1.0000 0.00000  0.97030  0.05620  Biso   1.000  C
  C153     1.0000 0.97030  0.00000  0.55620  Biso   1.000  C
  C154     1.0000 0.02970  0.00000  0.55620  Biso   1.000  C
  C155     1.0000 0.00000  0.02970  0.94380  Biso   1.000  C
  C156     1.0000 0.00000  0.97030  0.94380  Biso   1.000  C
  C157     1.0000 0.02970  0.00000  0.44380  Biso   1.000  C
  C158     1.0000 0.97030  0.00000  0.44380  Biso   1.000  C
  N1       1.0000 0.30120  0.33920  0.19100  Biso   1.000  N
  N2       1.0000 0.69880  0.66080  0.19100  Biso   1.000  N
  N3       1.0000 0.66080  0.30120  0.69100  Biso   1.000  N
  N4       1.0000 0.33920  0.69880  0.69100  Biso   1.000  N
  N5       1.0000 0.69880  0.33920  0.80900  Biso   1.000  N
  N6       1.0000 0.30120  0.66080  0.80900  Biso   1.000  N
  N7       1.0000 0.33920  0.30120  0.30900  Biso   1.000  N
  N8       1.0000 0.66080  0.69880  0.30900  Biso   1.000  N
  N9       1.0000 0.69880  0.66080  0.80900  Biso   1.000  N
  N10      1.0000 0.30120  0.33920  0.80900  Biso   1.000  N
  N11      1.0000 0.33920  0.69880  0.30900  Biso   1.000  N
  N12      1.0000 0.66080  0.30120  0.30900  Biso   1.000  N
  N13      1.0000 0.30120  0.66080  0.19100  Biso   1.000  N
  N14      1.0000 0.69880  0.33920  0.19100  Biso   1.000  N
  N15      1.0000 0.66080  0.69880  0.69100  Biso   1.000  N
  N16      1.0000 0.33920  0.30120  0.69100  Biso   1.000  N
  N17      1.0000 0.25830  0.31750  0.17190  Biso   1.000  N
  N18      1.0000 0.74170  0.68250  0.17190  Biso   1.000  N
  N19      1.0000 0.68250  0.25830  0.67190  Biso   1.000  N
  N20      1.0000 0.31750  0.74170  0.67190  Biso   1.000  N
  N21      1.0000 0.74170  0.31750  0.82810  Biso   1.000  N
  N22      1.0000 0.25830  0.68250  0.82810  Biso   1.000  N
  N23      1.0000 0.31750  0.25830  0.32810  Biso   1.000  N
  N24      1.0000 0.68250  0.74170  0.32810  Biso   1.000  N
  N25      1.0000 0.74170  0.68250  0.82810  Biso   1.000  N
  N26      1.0000 0.25830  0.31750  0.82810  Biso   1.000  N
  N27      1.0000 0.31750  0.74170  0.32810  Biso   1.000  N
  N28      1.0000 0.68250  0.25830  0.32810  Biso   1.000  N
  N29      1.0000 0.25830  0.68250  0.17190  Biso   1.000  N
  N30      1.0000 0.74170  0.31750  0.17190  Biso   1.000  N
  N31      1.0000 0.68250  0.74170  0.67190  Biso   1.000  N
  N32      1.0000 0.31750  0.25830  0.67190  Biso   1.000  N
  N33      1.0000 0.18460  0.20720  0.23120  Biso   1.000  N
  N34      1.0000 0.81540  0.79280  0.23120  Biso   1.000  N
  N35      1.0000 0.79280  0.18460  0.73120  Biso   1.000  N
  N36      1.0000 0.20720  0.81540  0.73120  Biso   1.000  N
  N37      1.0000 0.81540  0.20720  0.76880  Biso   1.000  N
  N38      1.0000 0.18460  0.79280  0.76880  Biso   1.000  N
  N39      1.0000 0.20720  0.18460  0.26880  Biso   1.000  N
  N40      1.0000 0.79280  0.81540  0.26880  Biso   1.000  N
  N41      1.0000 0.81540  0.79280  0.76880  Biso   1.000  N
  N42      1.0000 0.18460  0.20720  0.76880  Biso   1.000  N
  N43      1.0000 0.20720  0.81540  0.26880  Biso   1.000  N
  N44      1.0000 0.79280  0.18460  0.26880  Biso   1.000  N
  N45      1.0000 0.18460  0.79280  0.23120  Biso   1.000  N
  N46      1.0000 0.81540  0.20720  0.23120  Biso   1.000  N
  N47      1.0000 0.79280  0.81540  0.73120  Biso   1.000  N
  N48      1.0000 0.20720  0.18460  0.73120  Biso   1.000  N
  N49      1.0000 0.41714  0.50000  0.03150  Biso   1.000  N
  N50      1.0000 0.58286  0.50000  0.03150  Biso   1.000  N
  N51      1.0000 0.50000  0.41714  0.53150  Biso   1.000  N
  N52      1.0000 0.50000  0.58286  0.53150  Biso   1.000  N
  N53      1.0000 0.58286  0.50000  0.96850  Biso   1.000  N
  N54      1.0000 0.41714  0.50000  0.96850  Biso   1.000  N
  N55      1.0000 0.50000  0.41714  0.46850  Biso   1.000  N
  N56      1.0000 0.50000  0.58286  0.46850  Biso   1.000  N
  O1       1.0000 0.26850  0.26850  0.25000  Biso   1.000  O
  O2       1.0000 0.73150  0.73150  0.25000  Biso   1.000  O
  O3       1.0000 0.73150  0.26850  0.75000  Biso   1.000  O
  O4       1.0000 0.26850  0.73150  0.75000  Biso   1.000  O
  O5       1.0000 0.73150  0.73150  0.75000  Biso   1.000  O
  O6       1.0000 0.26850  0.26850  0.75000  Biso   1.000  O
  O7       1.0000 0.26850  0.73150  0.25000  Biso   1.000  O
  O8       1.0000 0.73150  0.26850  0.25000  Biso   1.000  O
  O9       1.0000 0.33528  0.44032  0.08931  Biso   1.000  O
  O10      1.0000 0.66472  0.55968  0.08931  Biso   1.000  O
  O11      1.0000 0.55968  0.33528  0.58931  Biso   1.000  O
  O12      1.0000 0.44032  0.66472  0.58931  Biso   1.000  O
  O13      1.0000 0.66472  0.44032  0.91069  Biso   1.000  O
  O14      1.0000 0.33528  0.55968  0.91069  Biso   1.000  O
  O15      1.0000 0.44032  0.33528  0.41069  Biso   1.000  O
  O16      1.0000 0.55968  0.66472  0.41069  Biso   1.000  O
  O17      1.0000 0.66472  0.55968  0.91069  Biso   1.000  O
  O18      1.0000 0.33528  0.44032  0.91069  Biso   1.000  O
  O19      1.0000 0.44032  0.66472  0.41069  Biso   1.000  O
  O20      1.0000 0.55968  0.33528  0.41069  Biso   1.000  O
  O21      1.0000 0.33528  0.55968  0.08931  Biso   1.000  O
  O22      1.0000 0.66472  0.44032  0.08931  Biso   1.000  O
  O23      1.0000 0.55968  0.66472  0.58931  Biso   1.000  O
  O24      1.0000 0.44032  0.33528  0.58931  Biso   1.000  O
  O25      1.0000 0.26276  0.40530  0.05698  Biso   1.000  O
  O26      1.0000 0.73724  0.59470  0.05698  Biso   1.000  O
  O27      1.0000 0.59470  0.26276  0.55698  Biso   1.000  O
  O28      1.0000 0.40530  0.73724  0.55698  Biso   1.000  O
  O29      1.0000 0.73724  0.40530  0.94302  Biso   1.000  O
  O30      1.0000 0.26276  0.59470  0.94302  Biso   1.000  O
  O31      1.0000 0.40530  0.26276  0.44302  Biso   1.000  O
  O32      1.0000 0.59470  0.73724  0.44302  Biso   1.000  O
  O33      1.0000 0.73724  0.59470  0.94302  Biso   1.000  O
  O34      1.0000 0.26276  0.40530  0.94302  Biso   1.000  O
  O35      1.0000 0.40530  0.73724  0.44302  Biso   1.000  O
  O36      1.0000 0.59470  0.26276  0.44302  Biso   1.000  O
  O37      1.0000 0.26276  0.59470  0.05698  Biso   1.000  O
  O38      1.0000 0.73724  0.40530  0.05698  Biso   1.000  O
  O39      1.0000 0.59470  0.73724  0.55698  Biso   1.000  O
  O40      1.0000 0.40530  0.26276  0.55698  Biso   1.000  O
  O41      1.0000 0.06473  0.09840  0.21897  Biso   1.000  O
  O42      1.0000 0.93527  0.90160  0.21897  Biso   1.000  O
  O43      1.0000 0.90160  0.06473  0.71897  Biso   1.000  O
  O44      1.0000 0.09840  0.93527  0.71897  Biso   1.000  O
  O45      1.0000 0.93527  0.09840  0.78103  Biso   1.000  O
  O46      1.0000 0.06473  0.90160  0.78103  Biso   1.000  O
  O47      1.0000 0.09840  0.06473  0.28103  Biso   1.000  O
  O48      1.0000 0.90160  0.93527  0.28103  Biso   1.000  O
  O49      1.0000 0.93527  0.90160  0.78103  Biso   1.000  O
  O50      1.0000 0.06473  0.09840  0.78103  Biso   1.000  O
  O51      1.0000 0.09840  0.93527  0.28103  Biso   1.000  O
  O52      1.0000 0.90160  0.06473  0.28103  Biso   1.000  O
  O53      1.0000 0.06473  0.90160  0.21897  Biso   1.000  O
  O54      1.0000 0.93527  0.09840  0.21897  Biso   1.000  O
  O55      1.0000 0.90160  0.93527  0.71897  Biso   1.000  O
  O56      1.0000 0.09840  0.06473  0.71897  Biso   1.000  O
  O57      1.0000 0.17939  0.45590  0.00000  Biso   1.000  O
  O58      1.0000 0.82061  0.54410  0.00000  Biso   1.000  O
  O59      1.0000 0.54410  0.17939  0.50000  Biso   1.000  O
  O60      1.0000 0.45590  0.82061  0.50000  Biso   1.000  O
  O61      1.0000 0.82061  0.45590  0.00000  Biso   1.000  O
  O62      1.0000 0.17939  0.54410  0.00000  Biso   1.000  O
  O63      1.0000 0.45590  0.17939  0.50000  Biso   1.000  O
  O64      1.0000 0.54410  0.82061  0.50000  Biso   1.000  O
  O65      1.0000 0.00000  0.04320  0.14951  Biso   1.000  O
  O66      1.0000 0.00000  0.95680  0.14951  Biso   1.000  O
  O67      1.0000 0.95680  0.00000  0.64951  Biso   1.000  O
  O68      1.0000 0.04320  0.00000  0.64951  Biso   1.000  O
  O69      1.0000 0.00000  0.04320  0.85049  Biso   1.000  O
  O70      1.0000 0.00000  0.95680  0.85049  Biso   1.000  O
  O71      1.0000 0.04320  0.00000  0.35049  Biso   1.000  O
  O72      1.0000 0.95680  0.00000  0.35049  Biso   1.000  O
  O73      1.0000 0.29887  0.50000  0.00000  Biso   1.000  O
  O74      1.0000 0.70113  0.50000  0.00000  Biso   1.000  O
  O75      1.0000 0.50000  0.29887  0.50000  Biso   1.000  O
  O76      1.0000 0.50000  0.70113  0.50000  Biso   1.000  O
  O77      1.0000 0.00000  0.00000  0.25000  Biso   1.000  O
  O78      1.0000 0.00000  0.00000  0.75000  Biso   1.000  O
  C159     1.0000 0.09900  0.50000  0.00000  Biso   1.000  C
  C160     1.0000 0.90100  0.50000  0.00000  Biso   1.000  C
  C161     1.0000 0.50000  0.09900  0.50000  Biso   1.000  C
  C162     1.0000 0.50000  0.90100  0.50000  Biso   1.000  C
  C163     1.0000 0.07670  0.43820  0.00000  Biso   1.000  C
  C164     1.0000 0.92330  0.56180  0.00000  Biso   1.000  C
  C165     1.0000 0.56180  0.07670  0.50000  Biso   1.000  C
  C166     1.0000 0.43820  0.92330  0.50000  Biso   1.000  C
  C167     1.0000 0.92330  0.43820  0.00000  Biso   1.000  C
  C168     1.0000 0.07670  0.56180  0.00000  Biso   1.000  C
  C169     1.0000 0.43820  0.07670  0.50000  Biso   1.000  C
  C170     1.0000 0.56180  0.92330  0.50000  Biso   1.000  C
  C171     1.0000 0.00000  0.47870  0.00000  Biso   1.000  C
  C172     1.0000 0.00000  0.52130  0.00000  Biso   1.000  C
  C173     1.0000 0.52130  0.00000  0.50000  Biso   1.000  C
  C174     1.0000 0.47870  0.00000  0.50000  Biso   1.000  C
  C175     1.0000 0.01970  0.43900  0.00000  Biso   1.000  C
  C176     1.0000 0.98030  0.56100  0.00000  Biso   1.000  C
  C177     1.0000 0.56100  0.01970  0.50000  Biso   1.000  C
  C178     1.0000 0.43900  0.98030  0.50000  Biso   1.000  C
  C179     1.0000 0.98030  0.43900  0.00000  Biso   1.000  C
  C180     1.0000 0.01970  0.56100  0.00000  Biso   1.000  C
  C181     1.0000 0.43900  0.01970  0.50000  Biso   1.000  C
  C182     1.0000 0.56100  0.98030  0.50000  Biso   1.000  C
