data_image0
_cell_length_a       5.6115
_cell_length_b       6.0587
_cell_length_c       10.068
_cell_angle_alpha    90
_cell_angle_beta     93.612
_cell_angle_gamma    90

_symmetry_space_group_name_H-M    "P 1"
_symmetry_int_tables_number       1

loop_
  _symmetry_equiv_pos_as_xyz
  'x, y, z'

loop_
  _atom_site_label
  _atom_site_occupancy
  _atom_site_fract_x
  _atom_site_fract_y
  _atom_site_fract_z
  _atom_site_thermal_displace_type
  _atom_site_B_iso_or_equiv
  _atom_site_type_symbol
  Cu1      1.0000 0.00000  0.00000  0.00000  Biso   1.000  Cu
  Cu2      1.0000 0.00000  0.50000  0.00000  Biso   1.000  Cu
  Cu3      1.0000 0.51007  0.75000  0.99550  Biso   1.000  Cu
  Cu4      1.0000 0.48993  0.25000  0.00450  Biso   1.000  Cu
  S1       1.0000 0.07005  0.75000  0.30429  Biso   1.000  S
  S2       1.0000 0.92995  0.25000  0.69571  Biso   1.000  S
  O1       1.0000 0.17810  0.75000  0.17470  Biso   1.000  O
  O2       1.0000 0.82190  0.25000  0.82530  Biso   1.000  O
  O3       1.0000 0.87440  0.75000  0.90080  Biso   1.000  O
  O4       1.0000 0.12560  0.25000  0.09920  Biso   1.000  O
  O5       1.0000 0.68240  0.00510  0.08230  Biso   1.000  O
  O6       1.0000 0.31760  0.50510  0.91770  Biso   1.000  O
  O7       1.0000 0.31760  0.99490  0.91770  Biso   1.000  O
  O8       1.0000 0.68240  0.49490  0.08230  Biso   1.000  O
  C1       1.0000 0.30280  0.75000  0.43140  Biso   1.000  C
  C2       1.0000 0.69720  0.25000  0.56860  Biso   1.000  C
  C3       1.0000 0.40650  0.99330  0.44070  Biso   1.000  C
  C4       1.0000 0.59350  0.49330  0.55930  Biso   1.000  C
  C5       1.0000 0.59350  0.00670  0.55930  Biso   1.000  C
  C6       1.0000 0.40650  0.50670  0.44070  Biso   1.000  C
  O9       1.0000 0.97340  0.51540  0.31700  Biso   1.000  O
  O10      1.0000 0.02660  0.01540  0.68300  Biso   1.000  O
  O11      1.0000 0.02660  0.48460  0.68300  Biso   1.000  O
  O12      1.0000 0.97340  0.98460  0.31700  Biso   1.000  O
  O13      1.0000 0.89320  0.58660  0.32370  Biso   1.000  O
  O14      1.0000 0.10680  0.08660  0.67630  Biso   1.000  O
  O15      1.0000 0.10680  0.41340  0.67630  Biso   1.000  O
  O16      1.0000 0.89320  0.91340  0.32370  Biso   1.000  O
