data_image0
_cell_length_a       9.767
_cell_length_b       10.668
_cell_length_c       10.767
_cell_angle_alpha    100
_cell_angle_beta     105.49
_cell_angle_gamma    106.95

_symmetry_space_group_name_H-M    "P 1"
_symmetry_int_tables_number       1

loop_
  _symmetry_equiv_pos_as_xyz
  'x, y, z'

loop_
  _atom_site_label
  _atom_site_occupancy
  _atom_site_fract_x
  _atom_site_fract_y
  _atom_site_fract_z
  _atom_site_thermal_displace_type
  _atom_site_B_iso_or_equiv
  _atom_site_type_symbol
  Cu1      1.0000 0.71835  0.82313  0.88712  Biso   1.000  Cu
  Cu2      1.0000 0.28165  0.17687  0.11288  Biso   1.000  Cu
  O1       1.0000 0.88030  0.94550  0.83010  Biso   1.000  O
  O2       1.0000 0.11970  0.05450  0.16990  Biso   1.000  O
  O3       1.0000 0.33950  0.90480  0.85930  Biso   1.000  O
  O4       1.0000 0.66050  0.09520  0.14070  Biso   1.000  O
  O5       1.0000 0.80020  0.64350  0.81760  Biso   1.000  O
  O6       1.0000 0.19980  0.35650  0.18240  Biso   1.000  O
  N1       1.0000 0.12940  0.09130  0.93820  Biso   1.000  N
  N2       1.0000 0.87060  0.90870  0.06180  Biso   1.000  N
  N3       1.0000 0.40280  0.26080  0.00090  Biso   1.000  N
  N4       1.0000 0.59720  0.73920  0.99910  Biso   1.000  N
  N5       1.0000 0.54650  0.75830  0.71170  Biso   1.000  N
  N6       1.0000 0.45350  0.24170  0.28830  Biso   1.000  N
  N7       1.0000 0.57900  0.01840  0.86930  Biso   1.000  N
  N8       1.0000 0.42100  0.98160  0.13070  Biso   1.000  N
  C1       1.0000 0.00040  0.00900  0.93190  Biso   1.000  C
  C2       1.0000 0.99960  0.99100  0.06810  Biso   1.000  C
  C3       1.0000 0.16330  0.12540  0.82220  Biso   1.000  C
  C4       1.0000 0.83670  0.87460  0.17780  Biso   1.000  C
  C5       1.0000 0.32510  0.22080  0.86860  Biso   1.000  C
  C6       1.0000 0.67490  0.77920  0.13140  Biso   1.000  C
  C7       1.0000 0.39380  0.26360  0.77760  Biso   1.000  C
  C8       1.0000 0.60620  0.73640  0.22240  Biso   1.000  C
  C9       1.0000 0.54300  0.34850  0.82390  Biso   1.000  C
  C10      1.0000 0.45700  0.65150  0.17610  Biso   1.000  C
  C11      1.0000 0.62270  0.38940  0.96030  Biso   1.000  C
  C12      1.0000 0.37730  0.61060  0.03970  Biso   1.000  C
  C13      1.0000 0.54890  0.34450  0.04490  Biso   1.000  C
  C14      1.0000 0.45110  0.65550  0.95510  Biso   1.000  C
  C15      1.0000 0.48800  0.62380  0.65090  Biso   1.000  C
  C16      1.0000 0.51200  0.37620  0.34910  Biso   1.000  C
  C17      1.0000 0.36350  0.56510  0.53420  Biso   1.000  C
  C18      1.0000 0.63650  0.43490  0.46580  Biso   1.000  C
  C19      1.0000 0.29950  0.64880  0.47680  Biso   1.000  C
  C20      1.0000 0.70050  0.35120  0.52320  Biso   1.000  C
  C21      1.0000 0.35800  0.78580  0.53720  Biso   1.000  C
  C22      1.0000 0.64200  0.21420  0.46280  Biso   1.000  C
  C23      1.0000 0.48000  0.83850  0.65650  Biso   1.000  C
  C24      1.0000 0.52000  0.16150  0.34350  Biso   1.000  C
  C25      1.0000 0.54050  0.98810  0.72480  Biso   1.000  C
  C26      1.0000 0.45950  0.01190  0.27520  Biso   1.000  C
  C27      1.0000 0.47090  0.97640  0.92310  Biso   1.000  C
  C28      1.0000 0.52910  0.02360  0.07690  Biso   1.000  C
  H1       1.0000 0.60620  0.37520  0.14340  Biso   1.000  H
  H2       1.0000 0.39380  0.62480  0.85660  Biso   1.000  H
  H3       1.0000 0.73200  0.45050  0.99630  Biso   1.000  H
  H4       1.0000 0.26800  0.54950  0.00370  Biso   1.000  H
  H5       1.0000 0.59370  0.38050  0.75990  Biso   1.000  H
  H6       1.0000 0.40630  0.61950  0.24010  Biso   1.000  H
  H7       1.0000 0.33460  0.23250  0.67950  Biso   1.000  H
  H8       1.0000 0.66540  0.76750  0.32050  Biso   1.000  H
  H9       1.0000 0.53670  0.56330  0.69180  Biso   1.000  H
  H10      1.0000 0.46330  0.43670  0.30820  Biso   1.000  H
  H11      1.0000 0.32130  0.46440  0.49280  Biso   1.000  H
  H12      1.0000 0.67870  0.53560  0.50720  Biso   1.000  H
  H13      1.0000 0.21080  0.61000  0.39150  Biso   1.000  H
  H14      1.0000 0.78920  0.39000  0.60850  Biso   1.000  H
  H15      1.0000 0.31300  0.84790  0.49560  Biso   1.000  H
  H16      1.0000 0.68700  0.15210  0.50440  Biso   1.000  H
  H17      1.0000 0.09380  0.17050  0.77990  Biso   1.000  H
  H18      1.0000 0.90620  0.82950  0.22010  Biso   1.000  H
  H19      1.0000 0.14940  0.04080  0.75540  Biso   1.000  H
  H20      1.0000 0.85060  0.95920  0.24460  Biso   1.000  H
  H21      1.0000 0.46150  0.02700  0.68890  Biso   1.000  H
  H22      1.0000 0.53850  0.97300  0.31110  Biso   1.000  H
  H23      1.0000 0.63410  0.03210  0.70410  Biso   1.000  H
  H24      1.0000 0.36590  0.96790  0.29590  Biso   1.000  H
  H25      1.0000 0.67380  0.09250  0.92220  Biso   1.000  H
  H26      1.0000 0.32620  0.90750  0.07780  Biso   1.000  H
  H27      1.0000 0.87000  0.64420  0.89080  Biso   1.000  H
  H28      1.0000 0.13000  0.35580  0.10920  Biso   1.000  H
  H29      1.0000 0.87750  0.67250  0.77860  Biso   1.000  H
  H30      1.0000 0.12250  0.32750  0.22140  Biso   1.000  H
  O7       1.0000 0.87040  0.23620  0.98220  Biso   1.000  O
  O8       1.0000 0.12960  0.76380  0.01780  Biso   1.000  O
  O9       1.0000 0.04530  0.37220  0.93120  Biso   1.000  O
  O10      1.0000 0.95470  0.62780  0.06880  Biso   1.000  O
  O11      1.0000 0.83290  0.24830  0.77910  Biso   1.000  O
  O12      1.0000 0.16710  0.75170  0.22090  Biso   1.000  O
  N9       1.0000 0.91420  0.28510  0.89710  Biso   1.000  N
  N10      1.0000 0.08580  0.71490  0.10290  Biso   1.000  N
  O13      1.0000 0.95620  0.30420  0.29640  Biso   1.000  O
  O14      1.0000 0.04380  0.69580  0.70360  Biso   1.000  O
  H31      1.0000 0.94000  0.37750  0.31690  Biso   1.000  H
  H32      1.0000 0.06000  0.62250  0.68310  Biso   1.000  H
  H33      1.0000 0.89190  0.25970  0.22390  Biso   1.000  H
  H34      1.0000 0.10810  0.74030  0.77610  Biso   1.000  H
  O15      1.0000 0.98480  0.80050  0.48400  Biso   1.000  O
  O16      1.0000 0.01520  0.19950  0.51600  Biso   1.000  O
  H35      1.0000 0.95190  0.71190  0.41560  Biso   1.000  H
  H36      1.0000 0.04810  0.28810  0.58440  Biso   1.000  H
  H37      1.0000 0.01970  0.77280  0.56030  Biso   1.000  H
  H38      1.0000 0.98030  0.22720  0.43970  Biso   1.000  H
  O17      1.0000 0.81770  0.96190  0.55420  Biso   1.000  O
  O18      1.0000 0.18230  0.03810  0.44580  Biso   1.000  O
  H39      1.0000 0.85620  0.98670  0.63920  Biso   1.000  H
  H40      1.0000 0.14380  0.01330  0.36080  Biso   1.000  H
  H41      1.0000 0.87370  0.91440  0.56670  Biso   1.000  H
  H42      1.0000 0.12630  0.08560  0.43330  Biso   1.000  H
  O19      1.0000 0.88890  0.54430  0.28940  Biso   1.000  O
  O20      1.0000 0.11110  0.45570  0.71060  Biso   1.000  O
  H43      1.0000 0.94030  0.57280  0.23330  Biso   1.000  H
  H44      1.0000 0.05970  0.42720  0.76670  Biso   1.000  H
  H45      1.0000 0.94340  0.58780  0.35940  Biso   1.000  H
  H46      1.0000 0.05660  0.41220  0.64060  Biso   1.000  H
