data_image0
_cell_length_a       7.353
_cell_length_b       14.5928
_cell_length_c       21.051
_cell_angle_alpha    90
_cell_angle_beta     90
_cell_angle_gamma    90

_symmetry_space_group_name_H-M    "P 1"
_symmetry_int_tables_number       1

loop_
  _symmetry_equiv_pos_as_xyz
  'x, y, z'

loop_
  _atom_site_label
  _atom_site_occupancy
  _atom_site_fract_x
  _atom_site_fract_y
  _atom_site_fract_z
  _atom_site_thermal_displace_type
  _atom_site_B_iso_or_equiv
  _atom_site_type_symbol
  Cu1      1.0000 0.98852  0.54730  0.18586  Biso   1.000  Cu
  Cu2      1.0000 0.01148  0.45270  0.68586  Biso   1.000  Cu
  Cu3      1.0000 0.51148  0.04730  0.68586  Biso   1.000  Cu
  Cu4      1.0000 0.48852  0.95270  0.18586  Biso   1.000  Cu
  Co1      1.0000 0.95954  0.48641  0.43558  Biso   1.000  Co
  Co2      1.0000 0.04046  0.51359  0.93558  Biso   1.000  Co
  Co3      1.0000 0.54046  0.98641  0.93558  Biso   1.000  Co
  Co4      1.0000 0.45954  0.01359  0.43558  Biso   1.000  Co
  S1       1.0000 0.61750  0.37112  0.38608  Biso   1.000  S
  S2       1.0000 0.38250  0.62888  0.88608  Biso   1.000  S
  S3       1.0000 0.88250  0.87112  0.88608  Biso   1.000  S
  S4       1.0000 0.11750  0.12888  0.38608  Biso   1.000  S
  S5       1.0000 0.27280  0.63865  0.44842  Biso   1.000  S
  S6       1.0000 0.72720  0.36135  0.94842  Biso   1.000  S
  S7       1.0000 0.22720  0.13865  0.94842  Biso   1.000  S
  S8       1.0000 0.77280  0.86135  0.44842  Biso   1.000  S
  S9       1.0000 0.51120  0.57455  0.17115  Biso   1.000  S
  S10      1.0000 0.48880  0.42545  0.67115  Biso   1.000  S
  S11      1.0000 0.98880  0.07455  0.67115  Biso   1.000  S
  S12      1.0000 0.01120  0.92545  0.17115  Biso   1.000  S
  N1       1.0000 0.05370  0.45150  0.24540  Biso   1.000  N
  N2       1.0000 0.94630  0.54850  0.74540  Biso   1.000  N
  N3       1.0000 0.44630  0.95150  0.74540  Biso   1.000  N
  N4       1.0000 0.55370  0.04850  0.24540  Biso   1.000  N
  N5       1.0000 0.07870  0.46100  0.12550  Biso   1.000  N
  N6       1.0000 0.92130  0.53900  0.62550  Biso   1.000  N
  N7       1.0000 0.42130  0.96100  0.62550  Biso   1.000  N
  N8       1.0000 0.57870  0.03900  0.12550  Biso   1.000  N
  O1       1.0000 0.94300  0.62020  0.26480  Biso   1.000  O
  O2       1.0000 0.05700  0.37980  0.76480  Biso   1.000  O
  O3       1.0000 0.55700  0.12020  0.76480  Biso   1.000  O
  O4       1.0000 0.44300  0.87980  0.26480  Biso   1.000  O
  O5       1.0000 0.90450  0.59140  0.36862  Biso   1.000  O
  O6       1.0000 0.09550  0.40860  0.86862  Biso   1.000  O
  O7       1.0000 0.59550  0.09140  0.86862  Biso   1.000  O
  O8       1.0000 0.40450  0.90860  0.36862  Biso   1.000  O
  O9       1.0000 0.02430  0.41740  0.35370  Biso   1.000  O
  O10      1.0000 0.97570  0.58260  0.85370  Biso   1.000  O
  O11      1.0000 0.47570  0.91740  0.85370  Biso   1.000  O
  O12      1.0000 0.52430  0.08260  0.35370  Biso   1.000  O
  O13      1.0000 0.96860  0.62900  0.10960  Biso   1.000  O
  O14      1.0000 0.03140  0.37100  0.60960  Biso   1.000  O
  O15      1.0000 0.53140  0.12900  0.60960  Biso   1.000  O
  O16      1.0000 0.46860  0.87100  0.10960  Biso   1.000  O
  O17      1.0000 0.97400  0.61360  0.00373  Biso   1.000  O
  O18      1.0000 0.02600  0.38640  0.50373  Biso   1.000  O
  O19      1.0000 0.52600  0.11360  0.50373  Biso   1.000  O
  O20      1.0000 0.47400  0.88640  0.00373  Biso   1.000  O
  O21      1.0000 0.10010  0.44000  0.01550  Biso   1.000  O
  O22      1.0000 0.89990  0.56000  0.51550  Biso   1.000  O
  O23      1.0000 0.39990  0.94000  0.51550  Biso   1.000  O
  O24      1.0000 0.60010  0.06000  0.01550  Biso   1.000  O
  O25      1.0000 0.68850  0.44040  0.43460  Biso   1.000  O
  O26      1.0000 0.31150  0.55960  0.93460  Biso   1.000  O
  O27      1.0000 0.81150  0.94040  0.93460  Biso   1.000  O
  O28      1.0000 0.18850  0.05960  0.43460  Biso   1.000  O
  O29      1.0000 0.23190  0.53820  0.43830  Biso   1.000  O
  O30      1.0000 0.76810  0.46180  0.93830  Biso   1.000  O
  O31      1.0000 0.26810  0.03820  0.93830  Biso   1.000  O
  O32      1.0000 0.73190  0.96180  0.43830  Biso   1.000  O
  O33      1.0000 0.67810  0.51590  0.17840  Biso   1.000  O
  O34      1.0000 0.32190  0.48410  0.67840  Biso   1.000  O
  O35      1.0000 0.82190  0.01590  0.67840  Biso   1.000  O
  O36      1.0000 0.17810  0.98410  0.17840  Biso   1.000  O
  C1       1.0000 0.94750  0.56830  0.31350  Biso   1.000  C
  C2       1.0000 0.05250  0.43170  0.81350  Biso   1.000  C
  C3       1.0000 0.55250  0.06830  0.81350  Biso   1.000  C
  C4       1.0000 0.44750  0.93170  0.31350  Biso   1.000  C
  C5       1.0000 0.01380  0.46910  0.30480  Biso   1.000  C
  C6       1.0000 0.98620  0.53090  0.80480  Biso   1.000  C
  C7       1.0000 0.48620  0.96910  0.80480  Biso   1.000  C
  C8       1.0000 0.51380  0.03090  0.30480  Biso   1.000  C
  C9       1.0000 0.11380  0.36950  0.21750  Biso   1.000  C
  C10      1.0000 0.88620  0.63050  0.71750  Biso   1.000  C
  C11      1.0000 0.38620  0.86950  0.71750  Biso   1.000  C
  C12      1.0000 0.61380  0.13050  0.21750  Biso   1.000  C
  C13      1.0000 0.14850  0.28800  0.24850  Biso   1.000  C
  C14      1.0000 0.85150  0.71200  0.74850  Biso   1.000  C
  C15      1.0000 0.35150  0.78800  0.74850  Biso   1.000  C
  C16      1.0000 0.64850  0.21200  0.24850  Biso   1.000  C
  H1       1.0000 0.13860  0.28450  0.29340  Biso   1.000  H
  H2       1.0000 0.86140  0.71550  0.79340  Biso   1.000  H
  H3       1.0000 0.36140  0.78450  0.79340  Biso   1.000  H
  H4       1.0000 0.63860  0.21550  0.29340  Biso   1.000  H
  C17      1.0000 0.19820  0.21080  0.21330  Biso   1.000  C
  C18      1.0000 0.80180  0.78920  0.71330  Biso   1.000  C
  C19      1.0000 0.30180  0.71080  0.71330  Biso   1.000  C
  C20      1.0000 0.69820  0.28920  0.21330  Biso   1.000  C
  H5       1.0000 0.22070  0.15440  0.23450  Biso   1.000  H
  H6       1.0000 0.77930  0.84560  0.73450  Biso   1.000  H
  H7       1.0000 0.27930  0.65440  0.73450  Biso   1.000  H
  H8       1.0000 0.72070  0.34560  0.23450  Biso   1.000  H
  C21      1.0000 0.21490  0.21530  0.14830  Biso   1.000  C
  C22      1.0000 0.78510  0.78470  0.64830  Biso   1.000  C
  C23      1.0000 0.28510  0.71530  0.64830  Biso   1.000  C
  C24      1.0000 0.71490  0.28470  0.14830  Biso   1.000  C
  H9       1.0000 0.24950  0.16240  0.12500  Biso   1.000  H
  H10      1.0000 0.75050  0.83760  0.62500  Biso   1.000  H
  H11      1.0000 0.25050  0.66240  0.62500  Biso   1.000  H
  H12      1.0000 0.74950  0.33760  0.12500  Biso   1.000  H
  C25      1.0000 0.18090  0.29790  0.11640  Biso   1.000  C
  C26      1.0000 0.81910  0.70210  0.61640  Biso   1.000  C
  C27      1.0000 0.31910  0.79790  0.61640  Biso   1.000  C
  C28      1.0000 0.68090  0.20210  0.11640  Biso   1.000  C
  H13      1.0000 0.19270  0.30120  0.07150  Biso   1.000  H
  H14      1.0000 0.80730  0.69880  0.57150  Biso   1.000  H
  H15      1.0000 0.30730  0.80120  0.57150  Biso   1.000  H
  H16      1.0000 0.69270  0.19880  0.07150  Biso   1.000  H
  C29      1.0000 0.13040  0.37400  0.15050  Biso   1.000  C
  C30      1.0000 0.86960  0.62600  0.65050  Biso   1.000  C
  C31      1.0000 0.36960  0.87400  0.65050  Biso   1.000  C
  C32      1.0000 0.63040  0.12600  0.15050  Biso   1.000  C
  C33      1.0000 0.06660  0.48530  0.06560  Biso   1.000  C
  C34      1.0000 0.93340  0.51470  0.56560  Biso   1.000  C
  C35      1.0000 0.43340  0.98530  0.56560  Biso   1.000  C
  C36      1.0000 0.56660  0.01470  0.06560  Biso   1.000  C
  C37      1.0000 0.99710  0.58440  0.05890  Biso   1.000  C
  C38      1.0000 0.00290  0.41560  0.55890  Biso   1.000  C
  C39      1.0000 0.50290  0.08440  0.55890  Biso   1.000  C
  C40      1.0000 0.49710  0.91560  0.05890  Biso   1.000  C
  C41      1.0000 0.49150  0.43580  0.32930  Biso   1.000  C
  C42      1.0000 0.50850  0.56420  0.82930  Biso   1.000  C
  C43      1.0000 0.00850  0.93580  0.82930  Biso   1.000  C
  C44      1.0000 0.99150  0.06420  0.32930  Biso   1.000  C
  H17      1.0000 0.57560  0.47080  0.30260  Biso   1.000  H
  H18      1.0000 0.42440  0.52920  0.80260  Biso   1.000  H
  H19      1.0000 0.92440  0.97080  0.80260  Biso   1.000  H
  H20      1.0000 0.07560  0.02920  0.30260  Biso   1.000  H
  H21      1.0000 0.40960  0.47810  0.35150  Biso   1.000  H
  H22      1.0000 0.59040  0.52190  0.85150  Biso   1.000  H
  H23      1.0000 0.09040  0.97810  0.85150  Biso   1.000  H
  H24      1.0000 0.90960  0.02190  0.35150  Biso   1.000  H
  H25      1.0000 0.42010  0.39410  0.30270  Biso   1.000  H
  H26      1.0000 0.57990  0.60590  0.80270  Biso   1.000  H
  H27      1.0000 0.07990  0.89410  0.80270  Biso   1.000  H
  H28      1.0000 0.92010  0.10590  0.30270  Biso   1.000  H
  C45      1.0000 0.43210  0.31720  0.42520  Biso   1.000  C
  C46      1.0000 0.56790  0.68280  0.92520  Biso   1.000  C
  C47      1.0000 0.06790  0.81720  0.92520  Biso   1.000  C
  C48      1.0000 0.93210  0.18280  0.42520  Biso   1.000  C
  H29      1.0000 0.47840  0.27700  0.45880  Biso   1.000  H
  H30      1.0000 0.52160  0.72300  0.95880  Biso   1.000  H
  H31      1.0000 0.02160  0.77700  0.95880  Biso   1.000  H
  H32      1.0000 0.97840  0.22300  0.45880  Biso   1.000  H
  H33      1.0000 0.36280  0.28080  0.39450  Biso   1.000  H
  H34      1.0000 0.63720  0.71920  0.89450  Biso   1.000  H
  H35      1.0000 0.13720  0.78080  0.89450  Biso   1.000  H
  H36      1.0000 0.86280  0.21920  0.39450  Biso   1.000  H
  H37      1.0000 0.35290  0.36400  0.44390  Biso   1.000  H
  H38      1.0000 0.64710  0.63600  0.94390  Biso   1.000  H
  H39      1.0000 0.14710  0.86400  0.94390  Biso   1.000  H
  H40      1.0000 0.85290  0.13600  0.44390  Biso   1.000  H
  C49      1.0000 0.36480  0.67890  0.37490  Biso   1.000  C
  C50      1.0000 0.63520  0.32110  0.87490  Biso   1.000  C
  C51      1.0000 0.13520  0.17890  0.87490  Biso   1.000  C
  C52      1.0000 0.86480  0.82110  0.37490  Biso   1.000  C
  H41      1.0000 0.26750  0.68320  0.34320  Biso   1.000  H
  H42      1.0000 0.73250  0.31680  0.84320  Biso   1.000  H
  H43      1.0000 0.23250  0.18320  0.84320  Biso   1.000  H
  H44      1.0000 0.76750  0.81680  0.34320  Biso   1.000  H
  H45      1.0000 0.45800  0.63600  0.35990  Biso   1.000  H
  H46      1.0000 0.54200  0.36400  0.85990  Biso   1.000  H
  H47      1.0000 0.04200  0.13600  0.85990  Biso   1.000  H
  H48      1.0000 0.95800  0.86400  0.35990  Biso   1.000  H
  H49      1.0000 0.41940  0.73940  0.38120  Biso   1.000  H
  H50      1.0000 0.58060  0.26060  0.88120  Biso   1.000  H
  H51      1.0000 0.08060  0.23940  0.88120  Biso   1.000  H
  H52      1.0000 0.91940  0.76060  0.38120  Biso   1.000  H
  C53      1.0000 0.47910  0.64040  0.49220  Biso   1.000  C
  C54      1.0000 0.52090  0.35960  0.99220  Biso   1.000  C
  C55      1.0000 0.02090  0.14040  0.99220  Biso   1.000  C
  C56      1.0000 0.97910  0.85960  0.49220  Biso   1.000  C
  H53      1.0000 0.45640  0.61880  0.53550  Biso   1.000  H
  H54      1.0000 0.54360  0.38120  0.03550  Biso   1.000  H
  H55      1.0000 0.04360  0.11880  0.03550  Biso   1.000  H
  H56      1.0000 0.95640  0.88120  0.53550  Biso   1.000  H
  H57      1.0000 0.52650  0.70320  0.49360  Biso   1.000  H
  H58      1.0000 0.47350  0.29680  0.99360  Biso   1.000  H
  H59      1.0000 0.97350  0.20320  0.99360  Biso   1.000  H
  H60      1.0000 0.02650  0.79680  0.49360  Biso   1.000  H
  H61      1.0000 0.56830  0.60040  0.47160  Biso   1.000  H
  H62      1.0000 0.43170  0.39960  0.97160  Biso   1.000  H
  H63      1.0000 0.93170  0.10040  0.97160  Biso   1.000  H
  H64      1.0000 0.06830  0.89960  0.47160  Biso   1.000  H
  C57      1.0000 0.57270  0.68330  0.19730  Biso   1.000  C
  C58      1.0000 0.42730  0.31670  0.69730  Biso   1.000  C
  C59      1.0000 0.92730  0.18330  0.69730  Biso   1.000  C
  C60      1.0000 0.07270  0.81670  0.19730  Biso   1.000  C
  H65      1.0000 0.58990  0.68220  0.24350  Biso   1.000  H
  H66      1.0000 0.41010  0.31780  0.74350  Biso   1.000  H
  H67      1.0000 0.91010  0.18220  0.74350  Biso   1.000  H
  H68      1.0000 0.08990  0.81780  0.24350  Biso   1.000  H
  H69      1.0000 0.47650  0.72710  0.18660  Biso   1.000  H
  H70      1.0000 0.52350  0.27290  0.68660  Biso   1.000  H
  H71      1.0000 0.02350  0.22710  0.68660  Biso   1.000  H
  H72      1.0000 0.97650  0.77290  0.18660  Biso   1.000  H
  H73      1.0000 0.68650  0.70180  0.17670  Biso   1.000  H
  H74      1.0000 0.31350  0.29820  0.67670  Biso   1.000  H
  H75      1.0000 0.81350  0.20180  0.67670  Biso   1.000  H
  H76      1.0000 0.18650  0.79820  0.17670  Biso   1.000  H
  C61      1.0000 0.49220  0.60430  0.08930  Biso   1.000  C
  C62      1.0000 0.50780  0.39570  0.58930  Biso   1.000  C
  C63      1.0000 0.00780  0.10430  0.58930  Biso   1.000  C
  C64      1.0000 0.99220  0.89570  0.08930  Biso   1.000  C
  H77      1.0000 0.45680  0.55010  0.06480  Biso   1.000  H
  H78      1.0000 0.54320  0.44990  0.56480  Biso   1.000  H
  H79      1.0000 0.04320  0.05010  0.56480  Biso   1.000  H
  H80      1.0000 0.95680  0.94990  0.06480  Biso   1.000  H
  H81      1.0000 0.60960  0.62710  0.07390  Biso   1.000  H
  H82      1.0000 0.39040  0.37290  0.57390  Biso   1.000  H
  H83      1.0000 0.89040  0.12710  0.57390  Biso   1.000  H
  H84      1.0000 0.10960  0.87290  0.07390  Biso   1.000  H
  H85      1.0000 0.39970  0.65210  0.08420  Biso   1.000  H
  H86      1.0000 0.60030  0.34790  0.58420  Biso   1.000  H
  H87      1.0000 0.10030  0.15210  0.58420  Biso   1.000  H
  H88      1.0000 0.89970  0.84790  0.08420  Biso   1.000  H
