data_image0
_cell_length_a       7.671
_cell_length_b       14.8003
_cell_length_c       21.0028
_cell_angle_alpha    90
_cell_angle_beta     90
_cell_angle_gamma    90

_symmetry_space_group_name_H-M    "P 1"
_symmetry_int_tables_number       1

loop_
  _symmetry_equiv_pos_as_xyz
  'x, y, z'

loop_
  _atom_site_label
  _atom_site_occupancy
  _atom_site_fract_x
  _atom_site_fract_y
  _atom_site_fract_z
  _atom_site_thermal_displace_type
  _atom_site_B_iso_or_equiv
  _atom_site_type_symbol
  Cu1      1.0000 0.03000  0.54780  0.25000  Biso   1.000  Cu
  Cu2      1.0000 0.97000  0.45220  0.75000  Biso   1.000  Cu
  Cu3      1.0000 0.53000  0.95220  0.25000  Biso   1.000  Cu
  Cu4      1.0000 0.47000  0.04780  0.75000  Biso   1.000  Cu
  Co1      1.0000 0.00000  0.50000  0.50000  Biso   1.000  Co
  Co2      1.0000 0.00000  0.50000  0.00000  Biso   1.000  Co
  Co3      1.0000 0.50000  0.00000  0.00000  Biso   1.000  Co
  Co4      1.0000 0.50000  0.00000  0.50000  Biso   1.000  Co
  S1       1.0000 0.43610  0.60460  0.27620  Biso   1.000  S
  S2       1.0000 0.56390  0.39540  0.77620  Biso   1.000  S
  S3       1.0000 0.93610  0.89540  0.22380  Biso   1.000  S
  S4       1.0000 0.06390  0.10460  0.72380  Biso   1.000  S
  S5       1.0000 0.56390  0.39540  0.72380  Biso   1.000  S
  S6       1.0000 0.43610  0.60460  0.22380  Biso   1.000  S
  S7       1.0000 0.06390  0.10460  0.77620  Biso   1.000  S
  S8       1.0000 0.93610  0.89540  0.27620  Biso   1.000  S
  O1       1.0000 0.28070  0.61780  0.25000  Biso   1.000  O
  O2       1.0000 0.71930  0.38220  0.75000  Biso   1.000  O
  O3       1.0000 0.78070  0.88220  0.25000  Biso   1.000  O
  O4       1.0000 0.21930  0.11780  0.75000  Biso   1.000  O
  C1       1.0000 0.58050  0.69860  0.25000  Biso   1.000  C
  C2       1.0000 0.41950  0.30140  0.75000  Biso   1.000  C
  C3       1.0000 0.08050  0.80140  0.25000  Biso   1.000  C
  C4       1.0000 0.91950  0.19860  0.75000  Biso   1.000  C
  H1       1.0000 0.56980  0.70670  0.20480  Biso   1.000  H
  H2       1.0000 0.43020  0.29330  0.70480  Biso   1.000  H
  H3       1.0000 0.06980  0.79330  0.29520  Biso   1.000  H
  H4       1.0000 0.93020  0.20670  0.79520  Biso   1.000  H
  H5       1.0000 0.43020  0.29330  0.79520  Biso   1.000  H
  H6       1.0000 0.56980  0.70670  0.29520  Biso   1.000  H
  H7       1.0000 0.93020  0.20670  0.70480  Biso   1.000  H
  H8       1.0000 0.06980  0.79330  0.20480  Biso   1.000  H
  H9       1.0000 0.69930  0.68440  0.26040  Biso   1.000  H
  H10      1.0000 0.30070  0.31560  0.76040  Biso   1.000  H
  H11      1.0000 0.19930  0.81560  0.23960  Biso   1.000  H
  H12      1.0000 0.80070  0.18440  0.73960  Biso   1.000  H
  H13      1.0000 0.30070  0.31560  0.73960  Biso   1.000  H
  H14      1.0000 0.69930  0.68440  0.23960  Biso   1.000  H
  H15      1.0000 0.80070  0.18440  0.76040  Biso   1.000  H
  H16      1.0000 0.19930  0.81560  0.26040  Biso   1.000  H
  H17      1.0000 0.54700  0.75330  0.27130  Biso   1.000  H
  H18      1.0000 0.45300  0.24670  0.77130  Biso   1.000  H
  H19      1.0000 0.04700  0.74670  0.22870  Biso   1.000  H
  H20      1.0000 0.95300  0.25330  0.72870  Biso   1.000  H
  H21      1.0000 0.45300  0.24670  0.72870  Biso   1.000  H
  H22      1.0000 0.54700  0.75330  0.22870  Biso   1.000  H
  H23      1.0000 0.95300  0.25330  0.77130  Biso   1.000  H
  H24      1.0000 0.04700  0.74670  0.27130  Biso   1.000  H
  C5       1.0000 0.54820  0.51510  0.28620  Biso   1.000  C
  C6       1.0000 0.45180  0.48490  0.78620  Biso   1.000  C
  C7       1.0000 0.04820  0.98490  0.21380  Biso   1.000  C
  C8       1.0000 0.95180  0.01510  0.71380  Biso   1.000  C
  C9       1.0000 0.45180  0.48490  0.71380  Biso   1.000  C
  C10      1.0000 0.54820  0.51510  0.21380  Biso   1.000  C
  C11      1.0000 0.95180  0.01510  0.78620  Biso   1.000  C
  C12      1.0000 0.04820  0.98490  0.28620  Biso   1.000  C
  H25      1.0000 0.48190  0.46370  0.27240  Biso   1.000  H
  H26      1.0000 0.51810  0.53630  0.77240  Biso   1.000  H
  H27      1.0000 0.98190  0.03630  0.22760  Biso   1.000  H
  H28      1.0000 0.01810  0.96370  0.72760  Biso   1.000  H
  H29      1.0000 0.51810  0.53630  0.72760  Biso   1.000  H
  H30      1.0000 0.48190  0.46370  0.22760  Biso   1.000  H
  H31      1.0000 0.01810  0.96370  0.77240  Biso   1.000  H
  H32      1.0000 0.98190  0.03630  0.27240  Biso   1.000  H
  H33      1.0000 0.57660  0.50870  0.33040  Biso   1.000  H
  H34      1.0000 0.42340  0.49130  0.83040  Biso   1.000  H
  H35      1.0000 0.07660  0.99130  0.16960  Biso   1.000  H
  H36      1.0000 0.92340  0.00870  0.66960  Biso   1.000  H
  H37      1.0000 0.42340  0.49130  0.66960  Biso   1.000  H
  H38      1.0000 0.57660  0.50870  0.16960  Biso   1.000  H
  H39      1.0000 0.92340  0.00870  0.83040  Biso   1.000  H
  H40      1.0000 0.07660  0.99130  0.33040  Biso   1.000  H
  H41      1.0000 0.65360  0.51910  0.26170  Biso   1.000  H
  H42      1.0000 0.34640  0.48090  0.76170  Biso   1.000  H
  H43      1.0000 0.15360  0.98090  0.23830  Biso   1.000  H
  H44      1.0000 0.84640  0.01910  0.73830  Biso   1.000  H
  H45      1.0000 0.34640  0.48090  0.73830  Biso   1.000  H
  H46      1.0000 0.65360  0.51910  0.23830  Biso   1.000  H
  H47      1.0000 0.84640  0.01910  0.76170  Biso   1.000  H
  H48      1.0000 0.15360  0.98090  0.26170  Biso   1.000  H
  S9       1.0000 0.31430  0.64220  0.50800  Biso   1.000  S
  S10      1.0000 0.68570  0.35780  0.00800  Biso   1.000  S
  S11      1.0000 0.81430  0.85780  0.99200  Biso   1.000  S
  S12      1.0000 0.18570  0.14220  0.49200  Biso   1.000  S
  S13      1.0000 0.68570  0.35780  0.49200  Biso   1.000  S
  S14      1.0000 0.31430  0.64220  0.99200  Biso   1.000  S
  S15      1.0000 0.18570  0.14220  0.00800  Biso   1.000  S
  S16      1.0000 0.81430  0.85780  0.50800  Biso   1.000  S
  C13      1.0000 0.40720  0.66920  0.43220  Biso   1.000  C
  C14      1.0000 0.59280  0.33080  0.93220  Biso   1.000  C
  C15      1.0000 0.90720  0.83080  0.06780  Biso   1.000  C
  C16      1.0000 0.09280  0.16920  0.56780  Biso   1.000  C
  C17      1.0000 0.59280  0.33080  0.56780  Biso   1.000  C
  C18      1.0000 0.40720  0.66920  0.06780  Biso   1.000  C
  C19      1.0000 0.09280  0.16920  0.93220  Biso   1.000  C
  C20      1.0000 0.90720  0.83080  0.43220  Biso   1.000  C
  H49      1.0000 0.49910  0.62770  0.42170  Biso   1.000  H
  H50      1.0000 0.50090  0.37230  0.92170  Biso   1.000  H
  H51      1.0000 0.99910  0.87230  0.07830  Biso   1.000  H
  H52      1.0000 0.00090  0.12770  0.57830  Biso   1.000  H
  H53      1.0000 0.50090  0.37230  0.57830  Biso   1.000  H
  H54      1.0000 0.49910  0.62770  0.07830  Biso   1.000  H
  H55      1.0000 0.00090  0.12770  0.92170  Biso   1.000  H
  H56      1.0000 0.99910  0.87230  0.42170  Biso   1.000  H
  H57      1.0000 0.45340  0.72940  0.43450  Biso   1.000  H
  H58      1.0000 0.54660  0.27060  0.93450  Biso   1.000  H
  H59      1.0000 0.95340  0.77060  0.06550  Biso   1.000  H
  H60      1.0000 0.04660  0.22940  0.56550  Biso   1.000  H
  H61      1.0000 0.54660  0.27060  0.56550  Biso   1.000  H
  H62      1.0000 0.45340  0.72940  0.06550  Biso   1.000  H
  H63      1.0000 0.04660  0.22940  0.93450  Biso   1.000  H
  H64      1.0000 0.95340  0.77060  0.43450  Biso   1.000  H
  H65      1.0000 0.31880  0.66670  0.39990  Biso   1.000  H
  H66      1.0000 0.68120  0.33330  0.89990  Biso   1.000  H
  H67      1.0000 0.81880  0.83330  0.10010  Biso   1.000  H
  H68      1.0000 0.18120  0.16670  0.60010  Biso   1.000  H
  H69      1.0000 0.68120  0.33330  0.60010  Biso   1.000  H
  H70      1.0000 0.31880  0.66670  0.10010  Biso   1.000  H
  H71      1.0000 0.18120  0.16670  0.89990  Biso   1.000  H
  H72      1.0000 0.81880  0.83330  0.39990  Biso   1.000  H
  C21      1.0000 0.50680  0.64830  0.55530  Biso   1.000  C
  C22      1.0000 0.49320  0.35170  0.05530  Biso   1.000  C
  C23      1.0000 0.00680  0.85170  0.94470  Biso   1.000  C
  C24      1.0000 0.99320  0.14830  0.44470  Biso   1.000  C
  C25      1.0000 0.49320  0.35170  0.44470  Biso   1.000  C
  C26      1.0000 0.50680  0.64830  0.94470  Biso   1.000  C
  C27      1.0000 0.99320  0.14830  0.05530  Biso   1.000  C
  C28      1.0000 0.00680  0.85170  0.55530  Biso   1.000  C
  H73      1.0000 0.48310  0.62440  0.59690  Biso   1.000  H
  H74      1.0000 0.51690  0.37560  0.09690  Biso   1.000  H
  H75      1.0000 0.98310  0.87560  0.90310  Biso   1.000  H
  H76      1.0000 0.01690  0.12440  0.40310  Biso   1.000  H
  H77      1.0000 0.51690  0.37560  0.40310  Biso   1.000  H
  H78      1.0000 0.48310  0.62440  0.90310  Biso   1.000  H
  H79      1.0000 0.01690  0.12440  0.09690  Biso   1.000  H
  H80      1.0000 0.98310  0.87560  0.59690  Biso   1.000  H
  H81      1.0000 0.54520  0.70980  0.55900  Biso   1.000  H
  H82      1.0000 0.45480  0.29020  0.05900  Biso   1.000  H
  H83      1.0000 0.04520  0.79020  0.94100  Biso   1.000  H
  H84      1.0000 0.95480  0.20980  0.44100  Biso   1.000  H
  H85      1.0000 0.45480  0.29020  0.44100  Biso   1.000  H
  H86      1.0000 0.54520  0.70980  0.94100  Biso   1.000  H
  H87      1.0000 0.95480  0.20980  0.05900  Biso   1.000  H
  H88      1.0000 0.04520  0.79020  0.55900  Biso   1.000  H
  H89      1.0000 0.59620  0.61290  0.53530  Biso   1.000  H
  H90      1.0000 0.40380  0.38710  0.03530  Biso   1.000  H
  H91      1.0000 0.09620  0.88710  0.96470  Biso   1.000  H
  H92      1.0000 0.90380  0.11290  0.46470  Biso   1.000  H
  H93      1.0000 0.40380  0.38710  0.46470  Biso   1.000  H
  H94      1.0000 0.59620  0.61290  0.96470  Biso   1.000  H
  H95      1.0000 0.90380  0.11290  0.03530  Biso   1.000  H
  H96      1.0000 0.09620  0.88710  0.53530  Biso   1.000  H
  O5       1.0000 0.26270  0.54520  0.50320  Biso   1.000  O
  O6       1.0000 0.73730  0.45480  0.00320  Biso   1.000  O
  O7       1.0000 0.76270  0.95480  0.99680  Biso   1.000  O
  O8       1.0000 0.23730  0.04520  0.49680  Biso   1.000  O
  O9       1.0000 0.73730  0.45480  0.49680  Biso   1.000  O
  O10      1.0000 0.26270  0.54520  0.99680  Biso   1.000  O
  O11      1.0000 0.23730  0.04520  0.00320  Biso   1.000  O
  O12      1.0000 0.76270  0.95480  0.50320  Biso   1.000  O
  O13      1.0000 0.94640  0.61510  0.32640  Biso   1.000  O
  O14      1.0000 0.05360  0.38490  0.82640  Biso   1.000  O
  O15      1.0000 0.44640  0.88490  0.17360  Biso   1.000  O
  O16      1.0000 0.55360  0.11510  0.67360  Biso   1.000  O
  O17      1.0000 0.05360  0.38490  0.67360  Biso   1.000  O
  O18      1.0000 0.94640  0.61510  0.17360  Biso   1.000  O
  O19      1.0000 0.55360  0.11510  0.82640  Biso   1.000  O
  O20      1.0000 0.44640  0.88490  0.32640  Biso   1.000  O
  O21      1.0000 0.94160  0.59730  0.43150  Biso   1.000  O
  O22      1.0000 0.05840  0.40270  0.93150  Biso   1.000  O
  O23      1.0000 0.44160  0.90270  0.06850  Biso   1.000  O
  O24      1.0000 0.55840  0.09730  0.56850  Biso   1.000  O
  O25      1.0000 0.05840  0.40270  0.56850  Biso   1.000  O
  O26      1.0000 0.94160  0.59730  0.06850  Biso   1.000  O
  O27      1.0000 0.55840  0.09730  0.93150  Biso   1.000  O
  O28      1.0000 0.44160  0.90270  0.43150  Biso   1.000  O
  O29      1.0000 0.06070  0.42570  0.41920  Biso   1.000  O
  O30      1.0000 0.93930  0.57430  0.91920  Biso   1.000  O
  O31      1.0000 0.56070  0.07430  0.08080  Biso   1.000  O
  O32      1.0000 0.43930  0.92570  0.58080  Biso   1.000  O
  O33      1.0000 0.93930  0.57430  0.58080  Biso   1.000  O
  O34      1.0000 0.06070  0.42570  0.08080  Biso   1.000  O
  O35      1.0000 0.43930  0.92570  0.91920  Biso   1.000  O
  O36      1.0000 0.56070  0.07430  0.41920  Biso   1.000  O
  N1       1.0000 0.07320  0.45280  0.31030  Biso   1.000  N
  N2       1.0000 0.92680  0.54720  0.81030  Biso   1.000  N
  N3       1.0000 0.57320  0.04720  0.18970  Biso   1.000  N
  N4       1.0000 0.42680  0.95280  0.68970  Biso   1.000  N
  N5       1.0000 0.92680  0.54720  0.68970  Biso   1.000  N
  N6       1.0000 0.07320  0.45280  0.18970  Biso   1.000  N
  N7       1.0000 0.42680  0.95280  0.81030  Biso   1.000  N
  N8       1.0000 0.57320  0.04720  0.31030  Biso   1.000  N
  C29      1.0000 0.13230  0.37090  0.28340  Biso   1.000  C
  C30      1.0000 0.86770  0.62910  0.78340  Biso   1.000  C
  C31      1.0000 0.63230  0.12910  0.21660  Biso   1.000  C
  C32      1.0000 0.36770  0.87090  0.71660  Biso   1.000  C
  C33      1.0000 0.86770  0.62910  0.71660  Biso   1.000  C
  C34      1.0000 0.13230  0.37090  0.21660  Biso   1.000  C
  C35      1.0000 0.36770  0.87090  0.78340  Biso   1.000  C
  C36      1.0000 0.63230  0.12910  0.28340  Biso   1.000  C
  C37      1.0000 0.18100  0.29360  0.31640  Biso   1.000  C
  C38      1.0000 0.81900  0.70640  0.81640  Biso   1.000  C
  C39      1.0000 0.68100  0.20640  0.18360  Biso   1.000  C
  C40      1.0000 0.31900  0.79360  0.68360  Biso   1.000  C
  C41      1.0000 0.81900  0.70640  0.68360  Biso   1.000  C
  C42      1.0000 0.18100  0.29360  0.18360  Biso   1.000  C
  C43      1.0000 0.31900  0.79360  0.81640  Biso   1.000  C
  C44      1.0000 0.68100  0.20640  0.31640  Biso   1.000  C
  H97      1.0000 0.18080  0.29310  0.36060  Biso   1.000  H
  H98      1.0000 0.81920  0.70690  0.86060  Biso   1.000  H
  H99      1.0000 0.68080  0.20690  0.13940  Biso   1.000  H
  H100     1.0000 0.31920  0.79310  0.63940  Biso   1.000  H
  H101     1.0000 0.81920  0.70690  0.63940  Biso   1.000  H
  H102     1.0000 0.18080  0.29310  0.13940  Biso   1.000  H
  H103     1.0000 0.31920  0.79310  0.86060  Biso   1.000  H
  H104     1.0000 0.68080  0.20690  0.36060  Biso   1.000  H
  C45      1.0000 0.23000  0.21750  0.28280  Biso   1.000  C
  C46      1.0000 0.77000  0.78250  0.78280  Biso   1.000  C
  C47      1.0000 0.73000  0.28250  0.21720  Biso   1.000  C
  C48      1.0000 0.27000  0.71750  0.71720  Biso   1.000  C
  C49      1.0000 0.77000  0.78250  0.71720  Biso   1.000  C
  C50      1.0000 0.23000  0.21750  0.21720  Biso   1.000  C
  C51      1.0000 0.27000  0.71750  0.78280  Biso   1.000  C
  C52      1.0000 0.73000  0.28250  0.28280  Biso   1.000  C
  H105     1.0000 0.26330  0.16570  0.30470  Biso   1.000  H
  H106     1.0000 0.73670  0.83430  0.80470  Biso   1.000  H
  H107     1.0000 0.76330  0.33430  0.19530  Biso   1.000  H
  H108     1.0000 0.23670  0.66570  0.69530  Biso   1.000  H
  H109     1.0000 0.73670  0.83430  0.69530  Biso   1.000  H
  H110     1.0000 0.26330  0.16570  0.19530  Biso   1.000  H
  H111     1.0000 0.23670  0.66570  0.80470  Biso   1.000  H
  H112     1.0000 0.76330  0.33430  0.30470  Biso   1.000  H
  C53      1.0000 0.04270  0.47270  0.36990  Biso   1.000  C
  C54      1.0000 0.95730  0.52730  0.86990  Biso   1.000  C
  C55      1.0000 0.54270  0.02730  0.13010  Biso   1.000  C
  C56      1.0000 0.45730  0.97270  0.63010  Biso   1.000  C
  C57      1.0000 0.95730  0.52730  0.63010  Biso   1.000  C
  C58      1.0000 0.04270  0.47270  0.13010  Biso   1.000  C
  C59      1.0000 0.45730  0.97270  0.86990  Biso   1.000  C
  C60      1.0000 0.54270  0.02730  0.36990  Biso   1.000  C
  C61      1.0000 0.97110  0.57010  0.37670  Biso   1.000  C
  C62      1.0000 0.02890  0.42990  0.87670  Biso   1.000  C
  C63      1.0000 0.47110  0.92990  0.12330  Biso   1.000  C
  C64      1.0000 0.52890  0.07010  0.62330  Biso   1.000  C
  C65      1.0000 0.02890  0.42990  0.62330  Biso   1.000  C
  C66      1.0000 0.97110  0.57010  0.12330  Biso   1.000  C
  C67      1.0000 0.52890  0.07010  0.87670  Biso   1.000  C
  C68      1.0000 0.47110  0.92990  0.37670  Biso   1.000  C
  O37      1.0000 0.28830  0.61330  0.26820  Biso   1.000  O
  O38      1.0000 0.71170  0.38670  0.76820  Biso   1.000  O
  O39      1.0000 0.78830  0.88670  0.23180  Biso   1.000  O
  O40      1.0000 0.21170  0.11330  0.73180  Biso   1.000  O
  O41      1.0000 0.71170  0.38670  0.73180  Biso   1.000  O
  O42      1.0000 0.28830  0.61330  0.23180  Biso   1.000  O
  O43      1.0000 0.21170  0.11330  0.76820  Biso   1.000  O
  O44      1.0000 0.78830  0.88670  0.26820  Biso   1.000  O
  C69      1.0000 0.58970  0.68150  0.25000  Biso   1.000  C
  C70      1.0000 0.41030  0.31850  0.75000  Biso   1.000  C
  C71      1.0000 0.08970  0.81850  0.25000  Biso   1.000  C
  C72      1.0000 0.91030  0.18150  0.75000  Biso   1.000  C
  H113     1.0000 0.66570  0.65900  0.21730  Biso   1.000  H
  H114     1.0000 0.33430  0.34100  0.71730  Biso   1.000  H
  H115     1.0000 0.16570  0.84100  0.28270  Biso   1.000  H
  H116     1.0000 0.83430  0.15900  0.78270  Biso   1.000  H
  H117     1.0000 0.33430  0.34100  0.78270  Biso   1.000  H
  H118     1.0000 0.66570  0.65900  0.28270  Biso   1.000  H
  H119     1.0000 0.83430  0.15900  0.71730  Biso   1.000  H
  H120     1.0000 0.16570  0.84100  0.21730  Biso   1.000  H
  H121     1.0000 0.65790  0.70210  0.28550  Biso   1.000  H
  H122     1.0000 0.34210  0.29790  0.78550  Biso   1.000  H
  H123     1.0000 0.15790  0.79790  0.21450  Biso   1.000  H
  H124     1.0000 0.84210  0.20210  0.71450  Biso   1.000  H
  H125     1.0000 0.34210  0.29790  0.71450  Biso   1.000  H
  H126     1.0000 0.65790  0.70210  0.21450  Biso   1.000  H
  H127     1.0000 0.84210  0.20210  0.78550  Biso   1.000  H
  H128     1.0000 0.15790  0.79790  0.28550  Biso   1.000  H
  H129     1.0000 0.52210  0.73080  0.23350  Biso   1.000  H
  H130     1.0000 0.47790  0.26920  0.73350  Biso   1.000  H
  H131     1.0000 0.02210  0.76920  0.26650  Biso   1.000  H
  H132     1.0000 0.97790  0.23080  0.76650  Biso   1.000  H
  H133     1.0000 0.47790  0.26920  0.76650  Biso   1.000  H
  H134     1.0000 0.52210  0.73080  0.26650  Biso   1.000  H
  H135     1.0000 0.97790  0.23080  0.73350  Biso   1.000  H
  H136     1.0000 0.02210  0.76920  0.23350  Biso   1.000  H
  C73      1.0000 0.55330  0.51620  0.25000  Biso   1.000  C
  C74      1.0000 0.44670  0.48380  0.75000  Biso   1.000  C
  C75      1.0000 0.05330  0.98380  0.25000  Biso   1.000  C
  C76      1.0000 0.94670  0.01620  0.75000  Biso   1.000  C
  H137     1.0000 0.49200  0.46130  0.25960  Biso   1.000  H
  H138     1.0000 0.50800  0.53870  0.75960  Biso   1.000  H
  H139     1.0000 0.99200  0.03870  0.24040  Biso   1.000  H
  H140     1.0000 0.00800  0.96130  0.74040  Biso   1.000  H
  H141     1.0000 0.50800  0.53870  0.74040  Biso   1.000  H
  H142     1.0000 0.49200  0.46130  0.24040  Biso   1.000  H
  H143     1.0000 0.00800  0.96130  0.75960  Biso   1.000  H
  H144     1.0000 0.99200  0.03870  0.25960  Biso   1.000  H
  H145     1.0000 0.66460  0.51570  0.27090  Biso   1.000  H
  H146     1.0000 0.33540  0.48430  0.77090  Biso   1.000  H
  H147     1.0000 0.16460  0.98430  0.22910  Biso   1.000  H
  H148     1.0000 0.83540  0.01570  0.72910  Biso   1.000  H
  H149     1.0000 0.33540  0.48430  0.72910  Biso   1.000  H
  H150     1.0000 0.66460  0.51570  0.22910  Biso   1.000  H
  H151     1.0000 0.83540  0.01570  0.77090  Biso   1.000  H
  H152     1.0000 0.16460  0.98430  0.27090  Biso   1.000  H
  H153     1.0000 0.57020  0.52080  0.20480  Biso   1.000  H
  H154     1.0000 0.42980  0.47920  0.70480  Biso   1.000  H
  H155     1.0000 0.07020  0.97920  0.29520  Biso   1.000  H
  H156     1.0000 0.92980  0.02080  0.79520  Biso   1.000  H
  H157     1.0000 0.42980  0.47920  0.79520  Biso   1.000  H
  H158     1.0000 0.57020  0.52080  0.29520  Biso   1.000  H
  H159     1.0000 0.92980  0.02080  0.70480  Biso   1.000  H
  H160     1.0000 0.07020  0.97920  0.20480  Biso   1.000  H
  S17      1.0000 0.32720  0.63610  0.51720  Biso   1.000  S
  S18      1.0000 0.67280  0.36390  0.01720  Biso   1.000  S
  S19      1.0000 0.82720  0.86390  0.98280  Biso   1.000  S
  S20      1.0000 0.17280  0.13610  0.48280  Biso   1.000  S
  S21      1.0000 0.67280  0.36390  0.48280  Biso   1.000  S
  S22      1.0000 0.32720  0.63610  0.98280  Biso   1.000  S
  S23      1.0000 0.17280  0.13610  0.01720  Biso   1.000  S
  S24      1.0000 0.82720  0.86390  0.51720  Biso   1.000  S
  C77      1.0000 0.49610  0.60560  0.56710  Biso   1.000  C
  C78      1.0000 0.50390  0.39440  0.06710  Biso   1.000  C
  C79      1.0000 0.99610  0.89440  0.93290  Biso   1.000  C
  C80      1.0000 0.00390  0.10560  0.43290  Biso   1.000  C
  C81      1.0000 0.50390  0.39440  0.43290  Biso   1.000  C
  C82      1.0000 0.49610  0.60560  0.93290  Biso   1.000  C
  C83      1.0000 0.00390  0.10560  0.06710  Biso   1.000  C
  C84      1.0000 0.99610  0.89440  0.56710  Biso   1.000  C
  H161     1.0000 0.56390  0.55880  0.54730  Biso   1.000  H
  H162     1.0000 0.43610  0.44120  0.04730  Biso   1.000  H
  H163     1.0000 0.06390  0.94120  0.95270  Biso   1.000  H
  H164     1.0000 0.93610  0.05880  0.45270  Biso   1.000  H
  H165     1.0000 0.43610  0.44120  0.45270  Biso   1.000  H
  H166     1.0000 0.56390  0.55880  0.95270  Biso   1.000  H
  H167     1.0000 0.93610  0.05880  0.04730  Biso   1.000  H
  H168     1.0000 0.06390  0.94120  0.54730  Biso   1.000  H
  H169     1.0000 0.44950  0.58380  0.60660  Biso   1.000  H
  H170     1.0000 0.55050  0.41620  0.10660  Biso   1.000  H
  H171     1.0000 0.94950  0.91620  0.89340  Biso   1.000  H
  H172     1.0000 0.05050  0.08380  0.39340  Biso   1.000  H
  H173     1.0000 0.55050  0.41620  0.39340  Biso   1.000  H
  H174     1.0000 0.44950  0.58380  0.89340  Biso   1.000  H
  H175     1.0000 0.05050  0.08380  0.10660  Biso   1.000  H
  H176     1.0000 0.94950  0.91620  0.60660  Biso   1.000  H
  H177     1.0000 0.56880  0.65720  0.57500  Biso   1.000  H
  H178     1.0000 0.43120  0.34280  0.07500  Biso   1.000  H
  H179     1.0000 0.06880  0.84280  0.92500  Biso   1.000  H
  H180     1.0000 0.93120  0.15720  0.42500  Biso   1.000  H
  H181     1.0000 0.43120  0.34280  0.42500  Biso   1.000  H
  H182     1.0000 0.56880  0.65720  0.92500  Biso   1.000  H
  H183     1.0000 0.93120  0.15720  0.07500  Biso   1.000  H
  H184     1.0000 0.06880  0.84280  0.57500  Biso   1.000  H
  C85      1.0000 0.44890  0.65250  0.44900  Biso   1.000  C
  C86      1.0000 0.55110  0.34750  0.94900  Biso   1.000  C
  C87      1.0000 0.94890  0.84750  0.05100  Biso   1.000  C
  C88      1.0000 0.05110  0.15250  0.55100  Biso   1.000  C
  C89      1.0000 0.55110  0.34750  0.55100  Biso   1.000  C
  C90      1.0000 0.44890  0.65250  0.05100  Biso   1.000  C
  C91      1.0000 0.05110  0.15250  0.94900  Biso   1.000  C
  C92      1.0000 0.94890  0.84750  0.44900  Biso   1.000  C
  H185     1.0000 0.47470  0.71560  0.44430  Biso   1.000  H
  H186     1.0000 0.52530  0.28440  0.94430  Biso   1.000  H
  H187     1.0000 0.97470  0.78440  0.05570  Biso   1.000  H
  H188     1.0000 0.02530  0.21560  0.55570  Biso   1.000  H
  H189     1.0000 0.52530  0.28440  0.55570  Biso   1.000  H
  H190     1.0000 0.47470  0.71560  0.05570  Biso   1.000  H
  H191     1.0000 0.02530  0.21560  0.94430  Biso   1.000  H
  H192     1.0000 0.97470  0.78440  0.44430  Biso   1.000  H
  H193     1.0000 0.38390  0.63190  0.41270  Biso   1.000  H
  H194     1.0000 0.61610  0.36810  0.91270  Biso   1.000  H
  H195     1.0000 0.88390  0.86810  0.08730  Biso   1.000  H
  H196     1.0000 0.11610  0.13190  0.58730  Biso   1.000  H
  H197     1.0000 0.61610  0.36810  0.58730  Biso   1.000  H
  H198     1.0000 0.38390  0.63190  0.08730  Biso   1.000  H
  H199     1.0000 0.11610  0.13190  0.91270  Biso   1.000  H
  H200     1.0000 0.88390  0.86810  0.41270  Biso   1.000  H
  H201     1.0000 0.55570  0.61900  0.45210  Biso   1.000  H
  H202     1.0000 0.44430  0.38100  0.95210  Biso   1.000  H
  H203     1.0000 0.05570  0.88100  0.04790  Biso   1.000  H
  H204     1.0000 0.94430  0.11900  0.54790  Biso   1.000  H
  H205     1.0000 0.44430  0.38100  0.54790  Biso   1.000  H
  H206     1.0000 0.55570  0.61900  0.04790  Biso   1.000  H
  H207     1.0000 0.94430  0.11900  0.95210  Biso   1.000  H
  H208     1.0000 0.05570  0.88100  0.45210  Biso   1.000  H
