data_image0
_cell_length_a       8.121
_cell_length_b       10.243
_cell_length_c       12.664
_cell_angle_alpha    80.57
_cell_angle_beta     87.83
_cell_angle_gamma    69.15

_symmetry_space_group_name_H-M    "P 1"
_symmetry_int_tables_number       1

loop_
  _symmetry_equiv_pos_as_xyz
  'x, y, z'

loop_
  _atom_site_label
  _atom_site_occupancy
  _atom_site_fract_x
  _atom_site_fract_y
  _atom_site_fract_z
  _atom_site_thermal_displace_type
  _atom_site_B_iso_or_equiv
  _atom_site_type_symbol
  Cu1      1.0000 0.59436  0.39047  0.45385  Biso   1.000  Cu
  Cu2      1.0000 0.40564  0.60953  0.54615  Biso   1.000  Cu
  Cu3      1.0000 0.93250  0.00680  0.09579  Biso   1.000  Cu
  Cu4      1.0000 0.06750  0.99320  0.90421  Biso   1.000  Cu
  P1       1.0000 0.73763  0.19980  0.27158  Biso   1.000  P
  P2       1.0000 0.26237  0.80020  0.72842  Biso   1.000  P
  O1       1.0000 0.77629  0.92191  0.04301  Biso   1.000  O
  O2       1.0000 0.22371  0.07809  0.95699  Biso   1.000  O
  O3       1.0000 0.79211  0.39859  0.53537  Biso   1.000  O
  O4       1.0000 0.20789  0.60141  0.46463  Biso   1.000  O
  O5       1.0000 0.80898  0.05490  0.24366  Biso   1.000  O
  O6       1.0000 0.19102  0.94510  0.75634  Biso   1.000  O
  O7       1.0000 0.78825  0.19532  0.01935  Biso   1.000  O
  O8       1.0000 0.21175  0.80468  0.98065  Biso   1.000  O
  O9       1.0000 0.74726  0.20812  0.38763  Biso   1.000  O
  O10      1.0000 0.25274  0.79188  0.61237  Biso   1.000  O
  O11      1.0000 0.53391  0.28189  0.58339  Biso   1.000  O
  O12      1.0000 0.46609  0.71811  0.41661  Biso   1.000  O
  O13      1.0000 0.89870  0.18562  0.85608  Biso   1.000  O
  O14      1.0000 0.10130  0.81438  0.14392  Biso   1.000  O
  O15      1.0000 0.88157  0.91802  0.87839  Biso   1.000  O
  O16      1.0000 0.11843  0.08198  0.12161  Biso   1.000  O
  O17      1.0000 0.37438  0.46539  0.66076  Biso   1.000  O
  O18      1.0000 0.62562  0.53461  0.33924  Biso   1.000  O
  O19      1.0000 0.63369  0.58202  0.61358  Biso   1.000  O
  O20      1.0000 0.36631  0.41798  0.38642  Biso   1.000  O
  C1       1.0000 0.93800  0.47260  0.65863  Biso   1.000  C
  C2       1.0000 0.06200  0.52740  0.34137  Biso   1.000  C
  H1       1.0000 0.02780  0.47890  0.60870  Biso   1.000  H
  H2       1.0000 0.97220  0.52110  0.39130  Biso   1.000  H
  H3       1.0000 0.97940  0.38280  0.70510  Biso   1.000  H
  H4       1.0000 0.02060  0.61720  0.29490  Biso   1.000  H
  H5       1.0000 0.91070  0.54740  0.70050  Biso   1.000  H
  H6       1.0000 0.08930  0.45260  0.29950  Biso   1.000  H
  C3       1.0000 0.41500  0.23440  0.75165  Biso   1.000  C
  C4       1.0000 0.58500  0.76560  0.24835  Biso   1.000  C
  H7       1.0000 0.33650  0.28670  0.80110  Biso   1.000  H
  H8       1.0000 0.66350  0.71330  0.19890  Biso   1.000  H
  H9       1.0000 0.52610  0.17870  0.78710  Biso   1.000  H
  H10      1.0000 0.47390  0.82130  0.21290  Biso   1.000  H
  H11      1.0000 0.36480  0.17320  0.72620  Biso   1.000  H
  H12      1.0000 0.63520  0.82680  0.27380  Biso   1.000  H
  C5       1.0000 0.77517  0.48596  0.59850  Biso   1.000  C
  C6       1.0000 0.22483  0.51404  0.40150  Biso   1.000  C
  C7       1.0000 0.44274  0.33567  0.65856  Biso   1.000  C
  C8       1.0000 0.55726  0.66433  0.34144  Biso   1.000  C
  C9       1.0000 0.77950  0.89454  0.95012  Biso   1.000  C
  C10      1.0000 0.22050  0.10546  0.04988  Biso   1.000  C
  C11      1.0000 0.65170  0.82860  0.92201  Biso   1.000  C
  C12      1.0000 0.34830  0.17140  0.07799  Biso   1.000  C
  H13      1.0000 0.53940  0.90130  0.90240  Biso   1.000  H
  H14      1.0000 0.46060  0.09870  0.09760  Biso   1.000  H
  H15      1.0000 0.63870  0.76360  0.98270  Biso   1.000  H
  H16      1.0000 0.36130  0.23640  0.01730  Biso   1.000  H
  H17      1.0000 0.69560  0.77880  0.86300  Biso   1.000  H
  H18      1.0000 0.30440  0.22120  0.13700  Biso   1.000  H
  C13      1.0000 0.79760  0.24788  0.92396  Biso   1.000  C
  C14      1.0000 0.20240  0.75212  0.07604  Biso   1.000  C
  C15      1.0000 0.67700  0.39830  0.88960  Biso   1.000  C
  C16      1.0000 0.32300  0.60170  0.11040  Biso   1.000  C
  H19      1.0000 0.65630  0.41520  0.81360  Biso   1.000  H
  H20      1.0000 0.34370  0.58480  0.18640  Biso   1.000  H
  H21      1.0000 0.73070  0.46160  0.90780  Biso   1.000  H
  H22      1.0000 0.26930  0.53840  0.09220  Biso   1.000  H
  H23      1.0000 0.56700  0.41410  0.92550  Biso   1.000  H
  H24      1.0000 0.43300  0.58590  0.07450  Biso   1.000  H
  H25      1.0000 0.59200  0.27900  0.22400  Biso   1.000  H
  H26      1.0000 0.40800  0.72100  0.77600  Biso   1.000  H
  H27      1.0000 0.79500  0.29600  0.20800  Biso   1.000  H
  H28      1.0000 0.20500  0.70400  0.79200  Biso   1.000  H
  Cu5      1.0000 0.00000  0.00000  0.50000  Biso   1.000  Cu
  C17      1.0000 0.73620  0.87980  0.50378  Biso   1.000  C
  C18      1.0000 0.26380  0.12020  0.49622  Biso   1.000  C
  H29      1.0000 0.70630  0.79710  0.49980  Biso   1.000  H
  H30      1.0000 0.29370  0.20290  0.50020  Biso   1.000  H
  H31      1.0000 0.64100  0.96300  0.47030  Biso   1.000  H
  H32      1.0000 0.35900  0.03700  0.52970  Biso   1.000  H
  N1       1.0000 0.90152  0.86892  0.44800  Biso   1.000  N
  N2       1.0000 0.09848  0.13108  0.55200  Biso   1.000  N
  C19      1.0000 0.76070  0.89040  0.61904  Biso   1.000  C
  C20      1.0000 0.23930  0.10960  0.38096  Biso   1.000  C
  H33      1.0000 0.84300  0.80160  0.65560  Biso   1.000  H
  H34      1.0000 0.15700  0.19840  0.34440  Biso   1.000  H
  H35      1.0000 0.64910  0.91080  0.65520  Biso   1.000  H
  H36      1.0000 0.35090  0.08920  0.34480  Biso   1.000  H
  N3       1.0000 0.82926  0.00480  0.62059  Biso   1.000  N
  N4       1.0000 0.17074  0.99520  0.37941  Biso   1.000  N
  H37      1.0000 0.88900  0.89700  0.38400  Biso   1.000  H
  H38      1.0000 0.11100  0.10300  0.61600  Biso   1.000  H
  H39      1.0000 0.96800  0.79200  0.45690  Biso   1.000  H
  H40      1.0000 0.03200  0.20800  0.54310  Biso   1.000  H
  H41      1.0000 0.74500  0.08600  0.60650  Biso   1.000  H
  H42      1.0000 0.25500  0.91400  0.39350  Biso   1.000  H
  H43      1.0000 0.87500  0.99900  0.67600  Biso   1.000  H
  H44      1.0000 0.12500  0.00100  0.32400  Biso   1.000  H
