data_image0
_cell_length_a       10.0586
_cell_length_b       9.0189
_cell_length_c       11.9833
_cell_angle_alpha    90
_cell_angle_beta     104.2
_cell_angle_gamma    90

_symmetry_space_group_name_H-M    "P 1"
_symmetry_int_tables_number       1

loop_
  _symmetry_equiv_pos_as_xyz
  'x, y, z'

loop_
  _atom_site_label
  _atom_site_occupancy
  _atom_site_fract_x
  _atom_site_fract_y
  _atom_site_fract_z
  _atom_site_thermal_displace_type
  _atom_site_B_iso_or_equiv
  _atom_site_type_symbol
  Fe1      1.0000 0.00000  0.00000  0.00000  Biso   1.000  Fe
  Fe2      1.0000 0.50000  0.50000  0.50000  Biso   1.000  Fe
  N1       1.0000 0.03720  0.28560  0.14420  Biso   1.000  N
  N2       1.0000 0.46280  0.78560  0.35580  Biso   1.000  N
  N3       1.0000 0.96280  0.71440  0.85580  Biso   1.000  N
  N4       1.0000 0.53720  0.21440  0.64420  Biso   1.000  N
  N5       1.0000 0.94670  0.19510  0.78340  Biso   1.000  N
  N6       1.0000 0.55330  0.69510  0.71660  Biso   1.000  N
  N7       1.0000 0.05330  0.80490  0.21660  Biso   1.000  N
  N8       1.0000 0.44670  0.30490  0.28340  Biso   1.000  N
  N9       1.0000 0.69090  0.99880  0.98790  Biso   1.000  N
  N10      1.0000 0.80910  0.49880  0.51210  Biso   1.000  N
  N11      1.0000 0.30910  0.00120  0.01210  Biso   1.000  N
  N12      1.0000 0.19090  0.50120  0.48790  Biso   1.000  N
  C1       1.0000 0.02290  0.17740  0.09160  Biso   1.000  C
  C2       1.0000 0.47710  0.67740  0.40840  Biso   1.000  C
  C3       1.0000 0.97710  0.82260  0.90840  Biso   1.000  C
  C4       1.0000 0.52290  0.32260  0.59160  Biso   1.000  C
  C5       1.0000 0.96870  0.12180  0.86520  Biso   1.000  C
  C6       1.0000 0.53130  0.62180  0.63480  Biso   1.000  C
  C7       1.0000 0.03130  0.87820  0.13480  Biso   1.000  C
  C8       1.0000 0.46870  0.37820  0.36520  Biso   1.000  C
  C9       1.0000 0.80770  0.00000  0.99300  Biso   1.000  C
  C10      1.0000 0.69230  0.50000  0.50700  Biso   1.000  C
  C11      1.0000 0.19230  0.00000  0.00700  Biso   1.000  C
  C12      1.0000 0.30770  0.50000  0.49300  Biso   1.000  C
  Cu1      1.0000 0.50000  0.00000  0.00000  Biso   1.000  Cu
  Cu2      1.0000 0.00000  0.50000  0.50000  Biso   1.000  Cu
  N13      1.0000 0.49720  0.77900  0.96170  Biso   1.000  N
  N14      1.0000 0.00280  0.27900  0.53830  Biso   1.000  N
  N15      1.0000 0.50280  0.22100  0.03830  Biso   1.000  N
  N16      1.0000 0.99720  0.72100  0.46170  Biso   1.000  N
  N17      1.0000 0.21210  0.53800  0.19300  Biso   1.000  N
  N18      1.0000 0.28790  0.03800  0.30700  Biso   1.000  N
  N19      1.0000 0.78790  0.46200  0.80700  Biso   1.000  N
  N20      1.0000 0.71210  0.96200  0.69300  Biso   1.000  N
  C13      1.0000 0.38050  0.68110  0.96080  Biso   1.000  C
  C14      1.0000 0.11950  0.18110  0.53920  Biso   1.000  C
  C15      1.0000 0.61950  0.31890  0.03920  Biso   1.000  C
  C16      1.0000 0.88050  0.81890  0.46080  Biso   1.000  C
  C17      1.0000 0.36230  0.65330  0.08020  Biso   1.000  C
  C18      1.0000 0.13770  0.15330  0.41980  Biso   1.000  C
  C19      1.0000 0.63770  0.34670  0.91980  Biso   1.000  C
  C20      1.0000 0.86230  0.84670  0.58020  Biso   1.000  C
  C21      1.0000 0.24250  0.55270  0.07790  Biso   1.000  C
  C22      1.0000 0.25750  0.05270  0.42210  Biso   1.000  C
  C23      1.0000 0.75750  0.44730  0.92210  Biso   1.000  C
  C24      1.0000 0.74250  0.94730  0.57790  Biso   1.000  C
  O1       1.0000 0.74410  0.19030  0.34320  Biso   1.000  O
  O2       1.0000 0.75590  0.69030  0.15680  Biso   1.000  O
  O3       1.0000 0.25590  0.80970  0.65680  Biso   1.000  O
  O4       1.0000 0.24410  0.30970  0.84320  Biso   1.000  O
  O5       1.0000 0.38480  0.06010  0.78270  Biso   1.000  O
  O6       1.0000 0.11520  0.56010  0.71730  Biso   1.000  O
  O7       1.0000 0.61520  0.93990  0.21730  Biso   1.000  O
  O8       1.0000 0.88480  0.43990  0.28270  Biso   1.000  O
  H1       1.0000 0.57100  0.76000  0.01000  Biso   1.000  H
  H2       1.0000 0.92900  0.26000  0.49000  Biso   1.000  H
  H3       1.0000 0.42900  0.24000  0.99000  Biso   1.000  H
  H4       1.0000 0.07100  0.74000  0.51000  Biso   1.000  H
  H5       1.0000 0.51300  0.77900  0.89900  Biso   1.000  H
  H6       1.0000 0.98700  0.27900  0.60100  Biso   1.000  H
  H7       1.0000 0.48700  0.22100  0.10100  Biso   1.000  H
  H8       1.0000 0.01300  0.72100  0.39900  Biso   1.000  H
  H9       1.0000 0.29600  0.72200  0.90700  Biso   1.000  H
  H10      1.0000 0.20400  0.22200  0.59300  Biso   1.000  H
  H11      1.0000 0.70400  0.27800  0.09300  Biso   1.000  H
  H12      1.0000 0.79600  0.77800  0.40700  Biso   1.000  H
  H13      1.0000 0.38900  0.59200  0.92500  Biso   1.000  H
  H14      1.0000 0.11100  0.09200  0.57500  Biso   1.000  H
  H15      1.0000 0.61100  0.40800  0.07500  Biso   1.000  H
  H16      1.0000 0.88900  0.90800  0.42500  Biso   1.000  H
  H17      1.0000 0.36000  0.74600  0.12300  Biso   1.000  H
  H18      1.0000 0.14000  0.24600  0.37700  Biso   1.000  H
  H19      1.0000 0.64000  0.25400  0.87700  Biso   1.000  H
  H20      1.0000 0.86000  0.75400  0.62300  Biso   1.000  H
  H21      1.0000 0.43900  0.61400  0.12200  Biso   1.000  H
  H22      1.0000 0.06100  0.11400  0.37800  Biso   1.000  H
  H23      1.0000 0.56100  0.38600  0.87800  Biso   1.000  H
  H24      1.0000 0.93900  0.88600  0.62200  Biso   1.000  H
  H25      1.0000 0.16700  0.59300  0.03000  Biso   1.000  H
  H26      1.0000 0.33300  0.09300  0.47000  Biso   1.000  H
  H27      1.0000 0.83300  0.40700  0.97000  Biso   1.000  H
  H28      1.0000 0.66700  0.90700  0.53000  Biso   1.000  H
  H29      1.0000 0.25500  0.45000  0.05700  Biso   1.000  H
  H30      1.0000 0.24500  0.95000  0.44300  Biso   1.000  H
  H31      1.0000 0.74500  0.55000  0.94300  Biso   1.000  H
  H32      1.0000 0.75500  0.05000  0.55700  Biso   1.000  H
  H33      1.0000 0.14100  0.45000  0.18700  Biso   1.000  H
  H34      1.0000 0.35900  0.95000  0.31300  Biso   1.000  H
  H35      1.0000 0.85900  0.55000  0.81300  Biso   1.000  H
  H36      1.0000 0.64100  0.05000  0.68700  Biso   1.000  H
  H37      1.0000 0.17700  0.60300  0.20200  Biso   1.000  H
  H38      1.0000 0.32300  0.10300  0.29800  Biso   1.000  H
  H39      1.0000 0.82300  0.39700  0.79800  Biso   1.000  H
  H40      1.0000 0.67700  0.89700  0.70200  Biso   1.000  H
  H41      1.0000 0.28000  0.50900  0.23600  Biso   1.000  H
  H42      1.0000 0.22000  0.00900  0.26400  Biso   1.000  H
  H43      1.0000 0.72000  0.49100  0.76400  Biso   1.000  H
  H44      1.0000 0.78000  0.99100  0.73600  Biso   1.000  H
  H45      1.0000 0.71500  0.13000  0.30500  Biso   1.000  H
  H46      1.0000 0.78500  0.63000  0.19500  Biso   1.000  H
  H47      1.0000 0.28500  0.87000  0.69500  Biso   1.000  H
  H48      1.0000 0.21500  0.37000  0.80500  Biso   1.000  H
  H49      1.0000 0.67000  0.24000  0.33600  Biso   1.000  H
  H50      1.0000 0.83000  0.74000  0.16400  Biso   1.000  H
  H51      1.0000 0.33000  0.76000  0.66400  Biso   1.000  H
  H52      1.0000 0.17000  0.26000  0.83600  Biso   1.000  H
  H53      1.0000 0.31600  0.13100  0.78600  Biso   1.000  H
  H54      1.0000 0.18400  0.63100  0.71400  Biso   1.000  H
  H55      1.0000 0.68400  0.86900  0.21400  Biso   1.000  H
  H56      1.0000 0.81600  0.36900  0.28600  Biso   1.000  H
  H57      1.0000 0.42400  0.09500  0.75600  Biso   1.000  H
  H58      1.0000 0.07600  0.59500  0.74400  Biso   1.000  H
  H59      1.0000 0.57600  0.90500  0.24400  Biso   1.000  H
  H60      1.0000 0.92400  0.40500  0.25600  Biso   1.000  H
