data_image0
_cell_length_a       21.274
_cell_length_b       21.274
_cell_length_c       7.9766
_cell_angle_alpha    90
_cell_angle_beta     90
_cell_angle_gamma    120

_symmetry_space_group_name_H-M    "P 1"
_symmetry_int_tables_number       1

loop_
  _symmetry_equiv_pos_as_xyz
  'x, y, z'

loop_
  _atom_site_label
  _atom_site_occupancy
  _atom_site_fract_x
  _atom_site_fract_y
  _atom_site_fract_z
  _atom_site_thermal_displace_type
  _atom_site_B_iso_or_equiv
  _atom_site_type_symbol
  Cu1      1.0000 0.56194  0.28009  0.98230  Biso   1.000  Cu
  Cu2      1.0000 0.71991  0.28185  0.98230  Biso   1.000  Cu
  Cu3      1.0000 0.71815  0.43806  0.98230  Biso   1.000  Cu
  Cu4      1.0000 0.28009  0.56194  0.01770  Biso   1.000  Cu
  Cu5      1.0000 0.28185  0.71991  0.01770  Biso   1.000  Cu
  Cu6      1.0000 0.43806  0.71815  0.01770  Biso   1.000  Cu
  Cu7      1.0000 0.50118  0.00000  0.00000  Biso   1.000  Cu
  Cu8      1.0000 1.00000  0.50118  0.00000  Biso   1.000  Cu
  Cu9      1.0000 0.49882  0.49882  0.00000  Biso   1.000  Cu
  Cl1      1.0000 0.66667  0.33333  0.70530  Biso   1.000  Cl
  Cl2      1.0000 0.33333  0.66667  0.29470  Biso   1.000  Cl
  O1       1.0000 0.49180  0.18000  0.93100  Biso   1.000  O
  O2       1.0000 0.82000  0.31180  0.93100  Biso   1.000  O
  O3       1.0000 0.68820  0.50820  0.93100  Biso   1.000  O
  O4       1.0000 0.18000  0.49180  0.06900  Biso   1.000  O
  O5       1.0000 0.31180  0.82000  0.06900  Biso   1.000  O
  O6       1.0000 0.50820  0.68820  0.06900  Biso   1.000  O
  O7       1.0000 0.47010  0.07090  0.94800  Biso   1.000  O
  O8       1.0000 0.92910  0.39920  0.94800  Biso   1.000  O
  O9       1.0000 0.60080  0.52990  0.94800  Biso   1.000  O
  O10      1.0000 0.07090  0.47010  0.05200  Biso   1.000  O
  O11      1.0000 0.39920  0.92910  0.05200  Biso   1.000  O
  O12      1.0000 0.52990  0.60080  0.05200  Biso   1.000  O
  O13      1.0000 0.62090  0.24140  0.06000  Biso   1.000  O
  O14      1.0000 0.75860  0.37950  0.06000  Biso   1.000  O
  O15      1.0000 0.62050  0.37910  0.06000  Biso   1.000  O
  O16      1.0000 0.24140  0.62090  0.94000  Biso   1.000  O
  O17      1.0000 0.37950  0.75860  0.94000  Biso   1.000  O
  O18      1.0000 0.37910  0.62050  0.94000  Biso   1.000  O
  O19      1.0000 0.53510  0.06080  0.25000  Biso   1.000  O
  O20      1.0000 0.93920  0.47430  0.25000  Biso   1.000  O
  O21      1.0000 0.52570  0.46490  0.25000  Biso   1.000  O
  O22      1.0000 0.06080  0.53510  0.75000  Biso   1.000  O
  O23      1.0000 0.47430  0.93920  0.75000  Biso   1.000  O
  O24      1.0000 0.46490  0.52570  0.75000  Biso   1.000  O
  O25      1.0000 0.68680  0.15530  0.28700  Biso   1.000  O
  O26      1.0000 0.84470  0.53150  0.28700  Biso   1.000  O
  O27      1.0000 0.46850  0.31320  0.28700  Biso   1.000  O
  O28      1.0000 0.15530  0.68680  0.71300  Biso   1.000  O
  O29      1.0000 0.53150  0.84470  0.71300  Biso   1.000  O
  O30      1.0000 0.31320  0.46850  0.71300  Biso   1.000  O
  O31      1.0000 0.57700  0.16600  0.61600  Biso   1.000  O
  O32      1.0000 0.83400  0.41100  0.61600  Biso   1.000  O
  O33      1.0000 0.58900  0.42300  0.61600  Biso   1.000  O
  O34      1.0000 0.16600  0.57700  0.38400  Biso   1.000  O
  O35      1.0000 0.41100  0.83400  0.38400  Biso   1.000  O
  O36      1.0000 0.42300  0.58900  0.38400  Biso   1.000  O
  O37      1.0000 0.68920  0.18600  0.91600  Biso   1.000  O
  O38      1.0000 0.81400  0.50320  0.91600  Biso   1.000  O
  O39      1.0000 0.49680  0.31080  0.91600  Biso   1.000  O
  O40      1.0000 0.18600  0.68920  0.08400  Biso   1.000  O
  O41      1.0000 0.50320  0.81400  0.08400  Biso   1.000  O
  O42      1.0000 0.31080  0.49680  0.08400  Biso   1.000  O
  O43      1.0000 0.59760  0.06890  0.93100  Biso   1.000  O
  O44      1.0000 0.93110  0.52870  0.93100  Biso   1.000  O
  O45      1.0000 0.47130  0.40240  0.93100  Biso   1.000  O
  O46      1.0000 0.06890  0.59760  0.06900  Biso   1.000  O
  O47      1.0000 0.52870  0.93110  0.06900  Biso   1.000  O
  O48      1.0000 0.40240  0.47130  0.06900  Biso   1.000  O
  C1       1.0000 0.51130  0.13460  0.96400  Biso   1.000  C
  C2       1.0000 0.86540  0.37670  0.96400  Biso   1.000  C
  C3       1.0000 0.62330  0.48870  0.96400  Biso   1.000  C
  C4       1.0000 0.13460  0.51130  0.03600  Biso   1.000  C
  C5       1.0000 0.37670  0.86540  0.03600  Biso   1.000  C
  C6       1.0000 0.48870  0.62330  0.03600  Biso   1.000  C
  C7       1.0000 0.57900  0.16400  0.05700  Biso   1.000  C
  C8       1.0000 0.83600  0.41500  0.05700  Biso   1.000  C
  C9       1.0000 0.58500  0.42100  0.05700  Biso   1.000  C
  C10      1.0000 0.16400  0.57900  0.94300  Biso   1.000  C
  C11      1.0000 0.41500  0.83600  0.94300  Biso   1.000  C
  C12      1.0000 0.42100  0.58500  0.94300  Biso   1.000  C
  C13      1.0000 0.56400  0.13800  0.24700  Biso   1.000  C
  C14      1.0000 0.86200  0.42600  0.24700  Biso   1.000  C
  C15      1.0000 0.57400  0.43600  0.24700  Biso   1.000  C
  C16      1.0000 0.13800  0.56400  0.75300  Biso   1.000  C
  C17      1.0000 0.42600  0.86200  0.75300  Biso   1.000  C
  C18      1.0000 0.43600  0.57400  0.75300  Biso   1.000  C
  C19      1.0000 0.63500  0.17500  0.35300  Biso   1.000  C
  C20      1.0000 0.82500  0.46000  0.35300  Biso   1.000  C
  C21      1.0000 0.54000  0.36500  0.35300  Biso   1.000  C
  C22      1.0000 0.17500  0.63500  0.64700  Biso   1.000  C
  C23      1.0000 0.46000  0.82500  0.64700  Biso   1.000  C
  C24      1.0000 0.36500  0.54000  0.64700  Biso   1.000  C
  C25      1.0000 0.62200  0.14900  0.52800  Biso   1.000  C
  C26      1.0000 0.85100  0.47300  0.52800  Biso   1.000  C
  C27      1.0000 0.52700  0.37800  0.52800  Biso   1.000  C
  C28      1.0000 0.14900  0.62200  0.47200  Biso   1.000  C
  C29      1.0000 0.47300  0.85100  0.47200  Biso   1.000  C
  C30      1.0000 0.37800  0.52700  0.47200  Biso   1.000  C
  C31      1.0000 0.62980  0.13830  0.96900  Biso   1.000  C
  C32      1.0000 0.86170  0.49150  0.96900  Biso   1.000  C
  C33      1.0000 0.50850  0.37020  0.96900  Biso   1.000  C
  C34      1.0000 0.13830  0.62980  0.03100  Biso   1.000  C
  C35      1.0000 0.49150  0.86170  0.03100  Biso   1.000  C
  C36      1.0000 0.37020  0.50850  0.03100  Biso   1.000  C
  O49      1.0000 0.57000  0.57000  0.50000  Biso   1.000  O
  O50      1.0000 0.43000  0.00000  0.50000  Biso   1.000  O
  O51      1.0000 0.00000  0.43000  0.50000  Biso   1.000  O
  O52      1.0000 0.20000  0.35900  0.20500  Biso   1.000  O
  O53      1.0000 0.64100  0.84100  0.20500  Biso   1.000  O
  O54      1.0000 0.15900  0.80000  0.20500  Biso   1.000  O
  O55      1.0000 0.35900  0.20000  0.79500  Biso   1.000  O
  O56      1.0000 0.84100  0.64100  0.79500  Biso   1.000  O
  O57      1.0000 0.80000  0.15900  0.79500  Biso   1.000  O
  O58      1.0000 0.11000  0.37600  0.35000  Biso   1.000  O
  O59      1.0000 0.62400  0.73400  0.35000  Biso   1.000  O
  O60      1.0000 0.26600  0.89000  0.35000  Biso   1.000  O
  O61      1.0000 0.37600  0.11000  0.65000  Biso   1.000  O
  O62      1.0000 0.73400  0.62400  0.65000  Biso   1.000  O
  O63      1.0000 0.89000  0.26600  0.65000  Biso   1.000  O
  O64      1.0000 0.00200  0.32900  0.23300  Biso   1.000  O
  O65      1.0000 0.67100  0.67300  0.23300  Biso   1.000  O
  O66      1.0000 0.32700  0.99800  0.23300  Biso   1.000  O
  O67      1.0000 0.32900  0.00200  0.76700  Biso   1.000  O
  O68      1.0000 0.67300  0.67100  0.76700  Biso   1.000  O
  O69      1.0000 0.99800  0.32700  0.76700  Biso   1.000  O
  O70      1.0000 0.35900  0.35100  0.28000  Biso   1.000  O
  O71      1.0000 0.64900  0.00800  0.28000  Biso   1.000  O
  O72      1.0000 0.99200  0.64100  0.28000  Biso   1.000  O
  O73      1.0000 0.35100  0.35900  0.72000  Biso   1.000  O
  O74      1.0000 0.00800  0.64900  0.72000  Biso   1.000  O
  O75      1.0000 0.64100  0.99200  0.72000  Biso   1.000  O
  O76      1.0000 0.00000  0.30800  0.00000  Biso   1.000  O
  O77      1.0000 0.69200  0.69200  0.00000  Biso   1.000  O
  O78      1.0000 0.30800  0.00000  0.00000  Biso   1.000  O
  O79      1.0000 0.36100  0.15500  0.01000  Biso   1.000  O
  O80      1.0000 0.84500  0.20600  0.01000  Biso   1.000  O
  O81      1.0000 0.79400  0.63900  0.01000  Biso   1.000  O
  O82      1.0000 0.15500  0.36100  0.99000  Biso   1.000  O
  O83      1.0000 0.20600  0.84500  0.99000  Biso   1.000  O
  O84      1.0000 0.63900  0.79400  0.99000  Biso   1.000  O
  O85      1.0000 0.42000  0.17100  0.31600  Biso   1.000  O
  O86      1.0000 0.82900  0.24900  0.31600  Biso   1.000  O
  O87      1.0000 0.75100  0.58000  0.31600  Biso   1.000  O
  O88      1.0000 0.17100  0.42000  0.68400  Biso   1.000  O
  O89      1.0000 0.24900  0.82900  0.68400  Biso   1.000  O
  O90      1.0000 0.58000  0.75100  0.68400  Biso   1.000  O
  O91      1.0000 0.23500  0.41000  0.40000  Biso   1.000  O
  O92      1.0000 0.59000  0.82500  0.40000  Biso   1.000  O
  O93      1.0000 0.17500  0.76500  0.40000  Biso   1.000  O
  O94      1.0000 0.41000  0.23500  0.60000  Biso   1.000  O
  O95      1.0000 0.82500  0.59000  0.60000  Biso   1.000  O
  O96      1.0000 0.76500  0.17500  0.60000  Biso   1.000  O
