data_image0
_cell_length_a       18.005
_cell_length_b       23.732
_cell_length_c       23.235
_cell_angle_alpha    90
_cell_angle_beta     90.46
_cell_angle_gamma    90

_symmetry_space_group_name_H-M    "P 1"
_symmetry_int_tables_number       1

loop_
  _symmetry_equiv_pos_as_xyz
  'x, y, z'

loop_
  _atom_site_label
  _atom_site_occupancy
  _atom_site_fract_x
  _atom_site_fract_y
  _atom_site_fract_z
  _atom_site_thermal_displace_type
  _atom_site_B_iso_or_equiv
  _atom_site_type_symbol
  Cr1      1.0000 0.50000  0.50000  0.50000  Biso   1.000  Cr
  Cr2      1.0000 0.50000  0.00000  0.00000  Biso   1.000  Cr
  Cr3      1.0000 0.00000  0.50000  0.50000  Biso   1.000  Cr
  Cr4      1.0000 0.00000  0.00000  0.00000  Biso   1.000  Cr
  Cr5      1.0000 0.00741  0.65201  0.85275  Biso   1.000  Cr
  Cr6      1.0000 0.99259  0.15201  0.64725  Biso   1.000  Cr
  Cr7      1.0000 0.99259  0.34799  0.14725  Biso   1.000  Cr
  Cr8      1.0000 0.00741  0.84799  0.35275  Biso   1.000  Cr
  Cu1      1.0000 0.25687  0.55641  0.40108  Biso   1.000  Cu
  Cu2      1.0000 0.74313  0.05641  0.09892  Biso   1.000  Cu
  Cu3      1.0000 0.74313  0.44359  0.59892  Biso   1.000  Cu
  Cu4      1.0000 0.25687  0.94359  0.90108  Biso   1.000  Cu
  Cu5      1.0000 0.12266  0.51431  0.70649  Biso   1.000  Cu
  Cu6      1.0000 0.87734  0.01431  0.79351  Biso   1.000  Cu
  Cu7      1.0000 0.87734  0.48569  0.29351  Biso   1.000  Cu
  Cu8      1.0000 0.12266  0.98569  0.20649  Biso   1.000  Cu
  Cu9      1.0000 0.08781  0.28731  0.49072  Biso   1.000  Cu
  Cu10     1.0000 0.91219  0.78731  0.00928  Biso   1.000  Cu
  Cu11     1.0000 0.91219  0.71269  0.50928  Biso   1.000  Cu
  Cu12     1.0000 0.08781  0.21269  0.99072  Biso   1.000  Cu
  C1       1.0000 0.29770  0.45250  0.33410  Biso   1.000  C
  C2       1.0000 0.70230  0.95250  0.16590  Biso   1.000  C
  C3       1.0000 0.70230  0.54750  0.66590  Biso   1.000  C
  C4       1.0000 0.29770  0.04750  0.83410  Biso   1.000  C
  H1       1.0000 0.34010  0.45250  0.35730  Biso   1.000  H
  H2       1.0000 0.65990  0.95250  0.14270  Biso   1.000  H
  H3       1.0000 0.65990  0.54750  0.64270  Biso   1.000  H
  H4       1.0000 0.34010  0.04750  0.85730  Biso   1.000  H
  C5       1.0000 0.29130  0.40980  0.29370  Biso   1.000  C
  C6       1.0000 0.70870  0.90980  0.20630  Biso   1.000  C
  C7       1.0000 0.70870  0.59020  0.70630  Biso   1.000  C
  C8       1.0000 0.29130  0.09020  0.79370  Biso   1.000  C
  H5       1.0000 0.32870  0.38380  0.28620  Biso   1.000  H
  H6       1.0000 0.67130  0.88380  0.21380  Biso   1.000  H
  H7       1.0000 0.67130  0.61620  0.71380  Biso   1.000  H
  H8       1.0000 0.32870  0.11620  0.78620  Biso   1.000  H
  C9       1.0000 0.23510  0.41010  0.27050  Biso   1.000  C
  C10      1.0000 0.76490  0.91010  0.22950  Biso   1.000  C
  C11      1.0000 0.76490  0.58990  0.72950  Biso   1.000  C
  C12      1.0000 0.23510  0.08990  0.77050  Biso   1.000  C
  H9       1.0000 0.22570  0.37790  0.24890  Biso   1.000  H
  H10      1.0000 0.77430  0.87790  0.25110  Biso   1.000  H
  H11      1.0000 0.77430  0.62210  0.75110  Biso   1.000  H
  H12      1.0000 0.22570  0.12210  0.74890  Biso   1.000  H
  C13      1.0000 0.17910  0.44880  0.26860  Biso   1.000  C
  C14      1.0000 0.82090  0.94880  0.23140  Biso   1.000  C
  C15      1.0000 0.82090  0.55120  0.73140  Biso   1.000  C
  C16      1.0000 0.17910  0.05120  0.76860  Biso   1.000  C
  H13      1.0000 0.13990  0.44570  0.24240  Biso   1.000  H
  H14      1.0000 0.86010  0.94570  0.25760  Biso   1.000  H
  H15      1.0000 0.86010  0.55430  0.75760  Biso   1.000  H
  H16      1.0000 0.13990  0.05430  0.74240  Biso   1.000  H
  C17      1.0000 0.18390  0.49720  0.31170  Biso   1.000  C
  C18      1.0000 0.81610  0.99720  0.18830  Biso   1.000  C
  C19      1.0000 0.81610  0.50280  0.68830  Biso   1.000  C
  C20      1.0000 0.18390  0.00280  0.81170  Biso   1.000  C
  C21      1.0000 0.13500  0.55130  0.32700  Biso   1.000  C
  C22      1.0000 0.86500  0.05130  0.17300  Biso   1.000  C
  C23      1.0000 0.86500  0.44870  0.67300  Biso   1.000  C
  C24      1.0000 0.13500  0.94870  0.82700  Biso   1.000  C
  H17      1.0000 0.11100  0.56570  0.29240  Biso   1.000  H
  H18      1.0000 0.88900  0.06570  0.20760  Biso   1.000  H
  H19      1.0000 0.88900  0.43430  0.70760  Biso   1.000  H
  H20      1.0000 0.11100  0.93430  0.79240  Biso   1.000  H
  H21      1.0000 0.09660  0.54100  0.35410  Biso   1.000  H
  H22      1.0000 0.90340  0.04100  0.14590  Biso   1.000  H
  H23      1.0000 0.90340  0.45900  0.64590  Biso   1.000  H
  H24      1.0000 0.09660  0.95900  0.85410  Biso   1.000  H
  C25      1.0000 0.13750  0.63060  0.38160  Biso   1.000  C
  C26      1.0000 0.86250  0.13060  0.11840  Biso   1.000  C
  C27      1.0000 0.86250  0.36940  0.61840  Biso   1.000  C
  C28      1.0000 0.13750  0.86940  0.88160  Biso   1.000  C
  H25      1.0000 0.10060  0.61100  0.40430  Biso   1.000  H
  H26      1.0000 0.89940  0.11100  0.09570  Biso   1.000  H
  H27      1.0000 0.89940  0.38900  0.59570  Biso   1.000  H
  H28      1.0000 0.10060  0.88900  0.90430  Biso   1.000  H
  H29      1.0000 0.11230  0.65650  0.35580  Biso   1.000  H
  H30      1.0000 0.88770  0.15650  0.14420  Biso   1.000  H
  H31      1.0000 0.88770  0.34350  0.64420  Biso   1.000  H
  H32      1.0000 0.11230  0.84350  0.85580  Biso   1.000  H
  C29      1.0000 0.18860  0.66000  0.41810  Biso   1.000  C
  C30      1.0000 0.81140  0.16000  0.08190  Biso   1.000  C
  C31      1.0000 0.81140  0.34000  0.58190  Biso   1.000  C
  C32      1.0000 0.18860  0.84000  0.91810  Biso   1.000  C
  C33      1.0000 0.17600  0.71570  0.43780  Biso   1.000  C
  C34      1.0000 0.82400  0.21570  0.06220  Biso   1.000  C
  C35      1.0000 0.82400  0.28430  0.56220  Biso   1.000  C
  C36      1.0000 0.17600  0.78430  0.93780  Biso   1.000  C
  H33      1.0000 0.13440  0.73570  0.42560  Biso   1.000  H
  H34      1.0000 0.86560  0.23570  0.07440  Biso   1.000  H
  H35      1.0000 0.86560  0.26430  0.57440  Biso   1.000  H
  H36      1.0000 0.13440  0.76430  0.92560  Biso   1.000  H
  C37      1.0000 0.22210  0.73760  0.47200  Biso   1.000  C
  C38      1.0000 0.77790  0.23760  0.02800  Biso   1.000  C
  C39      1.0000 0.77790  0.26240  0.52800  Biso   1.000  C
  C40      1.0000 0.22210  0.76240  0.97200  Biso   1.000  C
  H37      1.0000 0.21210  0.77410  0.48430  Biso   1.000  H
  H38      1.0000 0.78790  0.27410  0.01570  Biso   1.000  H
  H39      1.0000 0.78790  0.22590  0.51570  Biso   1.000  H
  H40      1.0000 0.21210  0.72590  0.98430  Biso   1.000  H
  C41      1.0000 0.28580  0.71300  0.49310  Biso   1.000  C
  C42      1.0000 0.71420  0.21300  0.00690  Biso   1.000  C
  C43      1.0000 0.71420  0.28700  0.50690  Biso   1.000  C
  C44      1.0000 0.28580  0.78700  0.99310  Biso   1.000  C
  H41      1.0000 0.31760  0.73000  0.51950  Biso   1.000  H
  H42      1.0000 0.68240  0.23000  0.98050  Biso   1.000  H
  H43      1.0000 0.68240  0.27000  0.48050  Biso   1.000  H
  H44      1.0000 0.31760  0.77000  0.01950  Biso   1.000  H
  C45      1.0000 0.29750  0.65600  0.46860  Biso   1.000  C
  C46      1.0000 0.70250  0.15600  0.03140  Biso   1.000  C
  C47      1.0000 0.70250  0.34400  0.53140  Biso   1.000  C
  C48      1.0000 0.29750  0.84400  0.96860  Biso   1.000  C
  H45      1.0000 0.34090  0.63670  0.47800  Biso   1.000  H
  H46      1.0000 0.65910  0.13670  0.02200  Biso   1.000  H
  H47      1.0000 0.65910  0.36330  0.52200  Biso   1.000  H
  H48      1.0000 0.34090  0.86330  0.97800  Biso   1.000  H
  C49      1.0000 0.21430  0.62120  0.69580  Biso   1.000  C
  C50      1.0000 0.78570  0.12120  0.80420  Biso   1.000  C
  C51      1.0000 0.78570  0.37880  0.30420  Biso   1.000  C
  C52      1.0000 0.21430  0.87880  0.19580  Biso   1.000  C
  H49      1.0000 0.18640  0.63460  0.72640  Biso   1.000  H
  H50      1.0000 0.81360  0.13460  0.77360  Biso   1.000  H
  H51      1.0000 0.81360  0.36540  0.27360  Biso   1.000  H
  H52      1.0000 0.18640  0.86540  0.22640  Biso   1.000  H
  C53      1.0000 0.26690  0.65630  0.67410  Biso   1.000  C
  C54      1.0000 0.73310  0.15630  0.82590  Biso   1.000  C
  C55      1.0000 0.73310  0.34370  0.32590  Biso   1.000  C
  C56      1.0000 0.26690  0.84370  0.17410  Biso   1.000  C
  H53      1.0000 0.27260  0.69300  0.68750  Biso   1.000  H
  H54      1.0000 0.72740  0.19300  0.81250  Biso   1.000  H
  H55      1.0000 0.72740  0.30700  0.31250  Biso   1.000  H
  H56      1.0000 0.27260  0.80700  0.18750  Biso   1.000  H
  C57      1.0000 0.31100  0.63490  0.63160  Biso   1.000  C
  C58      1.0000 0.68900  0.13490  0.86840  Biso   1.000  C
  C59      1.0000 0.68900  0.36510  0.36840  Biso   1.000  C
  C60      1.0000 0.31100  0.86510  0.13160  Biso   1.000  C
  H57      1.0000 0.34870  0.65710  0.61660  Biso   1.000  H
  H58      1.0000 0.65130  0.15710  0.88340  Biso   1.000  H
  H59      1.0000 0.65130  0.34290  0.38340  Biso   1.000  H
  H60      1.0000 0.34870  0.84290  0.11660  Biso   1.000  H
  C61      1.0000 0.30050  0.58090  0.61060  Biso   1.000  C
  C62      1.0000 0.69950  0.08090  0.88940  Biso   1.000  C
  C63      1.0000 0.69950  0.41910  0.38940  Biso   1.000  C
  C64      1.0000 0.30050  0.91910  0.11060  Biso   1.000  C
  H61      1.0000 0.33050  0.56710  0.58130  Biso   1.000  H
  H62      1.0000 0.66950  0.06710  0.91870  Biso   1.000  H
  H63      1.0000 0.66950  0.43290  0.41870  Biso   1.000  H
  H64      1.0000 0.33050  0.93290  0.08130  Biso   1.000  H
  C65      1.0000 0.24260  0.54630  0.63450  Biso   1.000  C
  C66      1.0000 0.75740  0.04630  0.86550  Biso   1.000  C
  C67      1.0000 0.75740  0.45370  0.36550  Biso   1.000  C
  C68      1.0000 0.24260  0.95370  0.13450  Biso   1.000  C
  C69      1.0000 0.22380  0.48900  0.61580  Biso   1.000  C
  C70      1.0000 0.77620  0.98900  0.88420  Biso   1.000  C
  C71      1.0000 0.77620  0.51100  0.38420  Biso   1.000  C
  C72      1.0000 0.22380  0.01100  0.11580  Biso   1.000  C
  H65      1.0000 0.18950  0.49040  0.58340  Biso   1.000  H
  H66      1.0000 0.81050  0.99040  0.91660  Biso   1.000  H
  H67      1.0000 0.81050  0.50960  0.41660  Biso   1.000  H
  H68      1.0000 0.18950  0.00960  0.08340  Biso   1.000  H
  H69      1.0000 0.26820  0.46930  0.60390  Biso   1.000  H
  H70      1.0000 0.73180  0.96930  0.89610  Biso   1.000  H
  H71      1.0000 0.73180  0.53070  0.39610  Biso   1.000  H
  H72      1.0000 0.26820  0.03070  0.10390  Biso   1.000  H
  C73      1.0000 0.14560  0.41180  0.64950  Biso   1.000  C
  C74      1.0000 0.85440  0.91180  0.85050  Biso   1.000  C
  C75      1.0000 0.85440  0.58820  0.35050  Biso   1.000  C
  C76      1.0000 0.14560  0.08820  0.14950  Biso   1.000  C
  H73      1.0000 0.17770  0.37960  0.64290  Biso   1.000  H
  H74      1.0000 0.82230  0.87960  0.85710  Biso   1.000  H
  H75      1.0000 0.82230  0.62040  0.35710  Biso   1.000  H
  H76      1.0000 0.17770  0.12040  0.14290  Biso   1.000  H
  H77      1.0000 0.11790  0.41930  0.61440  Biso   1.000  H
  H78      1.0000 0.88210  0.91930  0.88560  Biso   1.000  H
  H79      1.0000 0.88210  0.58070  0.38560  Biso   1.000  H
  H80      1.0000 0.11790  0.08070  0.11440  Biso   1.000  H
  C77      1.0000 0.09230  0.39860  0.69780  Biso   1.000  C
  C78      1.0000 0.90770  0.89860  0.80220  Biso   1.000  C
  C79      1.0000 0.90770  0.60140  0.30220  Biso   1.000  C
  C80      1.0000 0.09230  0.10140  0.19780  Biso   1.000  C
  C81      1.0000 0.06500  0.34590  0.70230  Biso   1.000  C
  C82      1.0000 0.93500  0.84590  0.79770  Biso   1.000  C
  C83      1.0000 0.93500  0.65410  0.29770  Biso   1.000  C
  C84      1.0000 0.06500  0.15410  0.20230  Biso   1.000  C
  H81      1.0000 0.07880  0.31650  0.67830  Biso   1.000  H
  H82      1.0000 0.92120  0.81650  0.82170  Biso   1.000  H
  H83      1.0000 0.92120  0.68350  0.32170  Biso   1.000  H
  H84      1.0000 0.07880  0.18350  0.17830  Biso   1.000  H
  C85      1.0000 0.01520  0.34020  0.74560  Biso   1.000  C
  C86      1.0000 0.98480  0.84020  0.75440  Biso   1.000  C
  C87      1.0000 0.98480  0.65980  0.25440  Biso   1.000  C
  C88      1.0000 0.01520  0.15980  0.24560  Biso   1.000  C
  H85      1.0000 0.99380  0.30480  0.74950  Biso   1.000  H
  H86      1.0000 0.00620  0.80480  0.75050  Biso   1.000  H
  H87      1.0000 0.00620  0.69520  0.25050  Biso   1.000  H
  H88      1.0000 0.99380  0.19520  0.24950  Biso   1.000  H
  C89      1.0000 0.99110  0.38270  0.78660  Biso   1.000  C
  C90      1.0000 0.00890  0.88270  0.71340  Biso   1.000  C
  C91      1.0000 0.00890  0.61730  0.21340  Biso   1.000  C
  C92      1.0000 0.99110  0.11730  0.28660  Biso   1.000  C
  H89      1.0000 0.95880  0.37610  0.81690  Biso   1.000  H
  H90      1.0000 0.04120  0.87610  0.68310  Biso   1.000  H
  H91      1.0000 0.04120  0.62390  0.18310  Biso   1.000  H
  H92      1.0000 0.95880  0.12390  0.31690  Biso   1.000  H
  C93      1.0000 0.02420  0.43560  0.77360  Biso   1.000  C
  C94      1.0000 0.97580  0.93560  0.72640  Biso   1.000  C
  C95      1.0000 0.97580  0.56440  0.22640  Biso   1.000  C
  C96      1.0000 0.02420  0.06440  0.27360  Biso   1.000  C
  H93      1.0000 0.01120  0.46670  0.79570  Biso   1.000  H
  H94      1.0000 0.98880  0.96670  0.70430  Biso   1.000  H
  H95      1.0000 0.98880  0.53330  0.20430  Biso   1.000  H
  H96      1.0000 0.01120  0.03330  0.29570  Biso   1.000  H
  C97      1.0000 0.21900  0.28470  0.56910  Biso   1.000  C
  C98      1.0000 0.78100  0.78470  0.93090  Biso   1.000  C
  C99      1.0000 0.78100  0.71530  0.43090  Biso   1.000  C
  C100     1.0000 0.21900  0.21530  0.06910  Biso   1.000  C
  H97      1.0000 0.18970  0.25880  0.58860  Biso   1.000  H
  H98      1.0000 0.81030  0.75880  0.91140  Biso   1.000  H
  H99      1.0000 0.81030  0.74120  0.41140  Biso   1.000  H
  H100     1.0000 0.18970  0.24120  0.08860  Biso   1.000  H
  C101     1.0000 0.28650  0.29570  0.59220  Biso   1.000  C
  C102     1.0000 0.71350  0.79570  0.90780  Biso   1.000  C
  C103     1.0000 0.71350  0.70430  0.40780  Biso   1.000  C
  C104     1.0000 0.28650  0.20430  0.09220  Biso   1.000  C
  H101     1.0000 0.30660  0.27840  0.62470  Biso   1.000  H
  H102     1.0000 0.69340  0.77840  0.87530  Biso   1.000  H
  H103     1.0000 0.69340  0.72160  0.37530  Biso   1.000  H
  H104     1.0000 0.30660  0.22160  0.12470  Biso   1.000  H
  C105     1.0000 0.31760  0.33310  0.56290  Biso   1.000  C
  C106     1.0000 0.68240  0.83310  0.93710  Biso   1.000  C
  C107     1.0000 0.68240  0.66690  0.43710  Biso   1.000  C
  C108     1.0000 0.31760  0.16690  0.06290  Biso   1.000  C
  H105     1.0000 0.36240  0.34530  0.57870  Biso   1.000  H
  H106     1.0000 0.63760  0.84530  0.92130  Biso   1.000  H
  H107     1.0000 0.63760  0.65470  0.42130  Biso   1.000  H
  H108     1.0000 0.36240  0.15470  0.07870  Biso   1.000  H
  C109     1.0000 0.29870  0.36070  0.51030  Biso   1.000  C
  C110     1.0000 0.70130  0.86070  0.98970  Biso   1.000  C
  C111     1.0000 0.70130  0.63930  0.48970  Biso   1.000  C
  C112     1.0000 0.29870  0.13930  0.01030  Biso   1.000  C
  H109     1.0000 0.32970  0.38640  0.49200  Biso   1.000  H
  H110     1.0000 0.67030  0.88640  0.00800  Biso   1.000  H
  H111     1.0000 0.67030  0.61360  0.50800  Biso   1.000  H
  H112     1.0000 0.32970  0.11360  0.99200  Biso   1.000  H
  C113     1.0000 0.22630  0.34470  0.48830  Biso   1.000  C
  C114     1.0000 0.77370  0.84470  0.01170  Biso   1.000  C
  C115     1.0000 0.77370  0.65530  0.51170  Biso   1.000  C
  C116     1.0000 0.22630  0.15530  0.98830  Biso   1.000  C
  C117     1.0000 0.18420  0.36360  0.43570  Biso   1.000  C
  C118     1.0000 0.81580  0.86360  0.06430  Biso   1.000  C
  C119     1.0000 0.81580  0.63640  0.56430  Biso   1.000  C
  C120     1.0000 0.18420  0.13640  0.93570  Biso   1.000  C
  H113     1.0000 0.15850  0.39860  0.44380  Biso   1.000  H
  H114     1.0000 0.84150  0.89860  0.05620  Biso   1.000  H
  H115     1.0000 0.84150  0.60140  0.55620  Biso   1.000  H
  H116     1.0000 0.15850  0.10140  0.94380  Biso   1.000  H
  H117     1.0000 0.21860  0.37040  0.40450  Biso   1.000  H
  H118     1.0000 0.78140  0.87040  0.09550  Biso   1.000  H
  H119     1.0000 0.78140  0.62960  0.59550  Biso   1.000  H
  H120     1.0000 0.21860  0.12960  0.90450  Biso   1.000  H
  C121     1.0000 0.07110  0.34220  0.38310  Biso   1.000  C
  C122     1.0000 0.92890  0.84220  0.11690  Biso   1.000  C
  C123     1.0000 0.92890  0.65780  0.61690  Biso   1.000  C
  C124     1.0000 0.07110  0.15780  0.88310  Biso   1.000  C
  H121     1.0000 0.08720  0.34590  0.34360  Biso   1.000  H
  H122     1.0000 0.91280  0.84590  0.15640  Biso   1.000  H
  H123     1.0000 0.91280  0.65410  0.65640  Biso   1.000  H
  H124     1.0000 0.08720  0.15410  0.84360  Biso   1.000  H
  H125     1.0000 0.05490  0.37900  0.39640  Biso   1.000  H
  H126     1.0000 0.94510  0.87900  0.10360  Biso   1.000  H
  H127     1.0000 0.94510  0.62100  0.60360  Biso   1.000  H
  H128     1.0000 0.05490  0.12100  0.89640  Biso   1.000  H
  C125     1.0000 0.00740  0.30050  0.38660  Biso   1.000  C
  C126     1.0000 0.99260  0.80050  0.11340  Biso   1.000  C
  C127     1.0000 0.99260  0.69950  0.61340  Biso   1.000  C
  C128     1.0000 0.00740  0.19950  0.88660  Biso   1.000  C
  C129     1.0000 0.95480  0.29390  0.34380  Biso   1.000  C
  C130     1.0000 0.04520  0.79390  0.15620  Biso   1.000  C
  C131     1.0000 0.04520  0.70610  0.65620  Biso   1.000  C
  C132     1.0000 0.95480  0.20610  0.84380  Biso   1.000  C
  H129     1.0000 0.95770  0.31380  0.30940  Biso   1.000  H
  H130     1.0000 0.04230  0.81380  0.19060  Biso   1.000  H
  H131     1.0000 0.04230  0.68620  0.69060  Biso   1.000  H
  H132     1.0000 0.95770  0.18620  0.80940  Biso   1.000  H
  C133     1.0000 0.89630  0.25580  0.35410  Biso   1.000  C
  C134     1.0000 0.10370  0.75580  0.14590  Biso   1.000  C
  C135     1.0000 0.10370  0.74420  0.64590  Biso   1.000  C
  C136     1.0000 0.89630  0.24420  0.85410  Biso   1.000  C
  H133     1.0000 0.85760  0.25280  0.32760  Biso   1.000  H
  H134     1.0000 0.14240  0.75280  0.17240  Biso   1.000  H
  H135     1.0000 0.14240  0.74720  0.67240  Biso   1.000  H
  H136     1.0000 0.85760  0.24720  0.82760  Biso   1.000  H
  C137     1.0000 0.89570  0.22320  0.40270  Biso   1.000  C
  C138     1.0000 0.10430  0.72320  0.09730  Biso   1.000  C
  C139     1.0000 0.10430  0.77680  0.59730  Biso   1.000  C
  C140     1.0000 0.89570  0.27680  0.90270  Biso   1.000  C
  H137     1.0000 0.85940  0.19590  0.40840  Biso   1.000  H
  H138     1.0000 0.14060  0.69590  0.09160  Biso   1.000  H
  H139     1.0000 0.14060  0.80410  0.59160  Biso   1.000  H
  H140     1.0000 0.85940  0.30410  0.90840  Biso   1.000  H
  C141     1.0000 0.95080  0.23230  0.44270  Biso   1.000  C
  C142     1.0000 0.04920  0.73230  0.05730  Biso   1.000  C
  C143     1.0000 0.04920  0.76770  0.55730  Biso   1.000  C
  C144     1.0000 0.95080  0.26770  0.94270  Biso   1.000  C
  H141     1.0000 0.95030  0.21130  0.47650  Biso   1.000  H
  H142     1.0000 0.04970  0.71130  0.02350  Biso   1.000  H
  H143     1.0000 0.04970  0.78870  0.52350  Biso   1.000  H
  H144     1.0000 0.95030  0.28870  0.97650  Biso   1.000  H
  C145     1.0000 0.39960  0.51720  0.46240  Biso   1.000  C
  C146     1.0000 0.60040  0.01720  0.03760  Biso   1.000  C
  C147     1.0000 0.60040  0.48280  0.53760  Biso   1.000  C
  C148     1.0000 0.39960  0.98280  0.96240  Biso   1.000  C
  C149     1.0000 0.44710  0.47090  0.57450  Biso   1.000  C
  C150     1.0000 0.55290  0.97090  0.92550  Biso   1.000  C
  C151     1.0000 0.55290  0.52910  0.42550  Biso   1.000  C
  C152     1.0000 0.44710  0.02910  0.07450  Biso   1.000  C
  C153     1.0000 0.50060  0.58210  0.53410  Biso   1.000  C
  C154     1.0000 0.49940  0.08210  0.96590  Biso   1.000  C
  C155     1.0000 0.49940  0.41790  0.46590  Biso   1.000  C
  C156     1.0000 0.50060  0.91790  0.03410  Biso   1.000  C
  C157     1.0000 0.11040  0.51150  0.47590  Biso   1.000  C
  C158     1.0000 0.88960  0.01150  0.02410  Biso   1.000  C
  C159     1.0000 0.88960  0.48850  0.52410  Biso   1.000  C
  C160     1.0000 0.11040  0.98850  0.97590  Biso   1.000  C
  C161     1.0000 0.02710  0.51750  0.58460  Biso   1.000  C
  C162     1.0000 0.97290  0.01750  0.91540  Biso   1.000  C
  C163     1.0000 0.97290  0.48250  0.41540  Biso   1.000  C
  C164     1.0000 0.02710  0.98250  0.08460  Biso   1.000  C
  C165     1.0000 0.02160  0.41610  0.51360  Biso   1.000  C
  C166     1.0000 0.97840  0.91610  0.98640  Biso   1.000  C
  C167     1.0000 0.97840  0.58390  0.48640  Biso   1.000  C
  C168     1.0000 0.02160  0.08390  0.01360  Biso   1.000  C
  C169     1.0000 0.04870  0.59500  0.79470  Biso   1.000  C
  C170     1.0000 0.95130  0.09500  0.70530  Biso   1.000  C
  C171     1.0000 0.95130  0.40500  0.20530  Biso   1.000  C
  C172     1.0000 0.04870  0.90500  0.29470  Biso   1.000  C
  C173     1.0000 0.93540  0.59230  0.87740  Biso   1.000  C
  C174     1.0000 0.06460  0.09230  0.62260  Biso   1.000  C
  C175     1.0000 0.06460  0.40770  0.12260  Biso   1.000  C
  C176     1.0000 0.93540  0.90770  0.37740  Biso   1.000  C
  C177     1.0000 0.93150  0.68310  0.79450  Biso   1.000  C
  C178     1.0000 0.06850  0.18310  0.70550  Biso   1.000  C
  C179     1.0000 0.06850  0.31690  0.20550  Biso   1.000  C
  C180     1.0000 0.93150  0.81690  0.29450  Biso   1.000  C
  C181     1.0000 0.08280  0.70930  0.81970  Biso   1.000  C
  C182     1.0000 0.91720  0.20930  0.68030  Biso   1.000  C
  C183     1.0000 0.91720  0.29070  0.18030  Biso   1.000  C
  C184     1.0000 0.08280  0.79070  0.31970  Biso   1.000  C
  C185     1.0000 0.08190  0.62850  0.91500  Biso   1.000  C
  C186     1.0000 0.91810  0.12850  0.58500  Biso   1.000  C
  C187     1.0000 0.91810  0.37150  0.08500  Biso   1.000  C
  C188     1.0000 0.08190  0.87150  0.41500  Biso   1.000  C
  C189     1.0000 0.03310  0.20750  0.58970  Biso   1.000  C
  C190     1.0000 0.96690  0.70750  0.91030  Biso   1.000  C
  C191     1.0000 0.96690  0.79250  0.41030  Biso   1.000  C
  C192     1.0000 0.03310  0.29250  0.08970  Biso   1.000  C
  N1       1.0000 0.24970  0.49240  0.34260  Biso   1.000  N
  N2       1.0000 0.75030  0.99240  0.15740  Biso   1.000  N
  N3       1.0000 0.75030  0.50760  0.65740  Biso   1.000  N
  N4       1.0000 0.24970  0.00760  0.84260  Biso   1.000  N
  N5       1.0000 0.18020  0.59250  0.35080  Biso   1.000  N
  N6       1.0000 0.81980  0.09250  0.14920  Biso   1.000  N
  N7       1.0000 0.81980  0.40750  0.64920  Biso   1.000  N
  N8       1.0000 0.18020  0.90750  0.85080  Biso   1.000  N
  H145     1.0000 0.22760  0.59420  0.34700  Biso   1.000  H
  H146     1.0000 0.77240  0.09420  0.15300  Biso   1.000  H
  H147     1.0000 0.77240  0.40580  0.65300  Biso   1.000  H
  H148     1.0000 0.22760  0.90580  0.84700  Biso   1.000  H
  N9       1.0000 0.25150  0.63290  0.43580  Biso   1.000  N
  N10      1.0000 0.74850  0.13290  0.06420  Biso   1.000  N
  N11      1.0000 0.74850  0.36710  0.56420  Biso   1.000  N
  N12      1.0000 0.25150  0.86710  0.93580  Biso   1.000  N
  N13      1.0000 0.19880  0.56850  0.67690  Biso   1.000  N
  N14      1.0000 0.80120  0.06850  0.82310  Biso   1.000  N
  N15      1.0000 0.80120  0.43150  0.32310  Biso   1.000  N
  N16      1.0000 0.19880  0.93150  0.17690  Biso   1.000  N
  N17      1.0000 0.18970  0.45980  0.66410  Biso   1.000  N
  N18      1.0000 0.81030  0.95980  0.83590  Biso   1.000  N
  N19      1.0000 0.81030  0.54020  0.33590  Biso   1.000  N
  N20      1.0000 0.18970  0.04020  0.16410  Biso   1.000  N
  H149     1.0000 0.19570  0.47070  0.69910  Biso   1.000  H
  H150     1.0000 0.80430  0.97070  0.80090  Biso   1.000  H
  H151     1.0000 0.80430  0.52930  0.30090  Biso   1.000  H
  H152     1.0000 0.19570  0.02930  0.19910  Biso   1.000  H
  N21      1.0000 0.07400  0.44290  0.73040  Biso   1.000  N
  N22      1.0000 0.92600  0.94290  0.76960  Biso   1.000  N
  N23      1.0000 0.92600  0.55710  0.26960  Biso   1.000  N
  N24      1.0000 0.07400  0.05710  0.23040  Biso   1.000  N
  N25      1.0000 0.19000  0.30690  0.52140  Biso   1.000  N
  N26      1.0000 0.81000  0.80690  0.97860  Biso   1.000  N
  N27      1.0000 0.81000  0.69310  0.47860  Biso   1.000  N
  N28      1.0000 0.19000  0.19310  0.02140  Biso   1.000  N
  N29      1.0000 0.13260  0.32210  0.41920  Biso   1.000  N
  N30      1.0000 0.86740  0.82210  0.08080  Biso   1.000  N
  N31      1.0000 0.86740  0.67790  0.58080  Biso   1.000  N
  N32      1.0000 0.13260  0.17790  0.91920  Biso   1.000  N
  H153     1.0000 0.13690  0.28740  0.42950  Biso   1.000  H
  H154     1.0000 0.86310  0.78740  0.07050  Biso   1.000  H
  H155     1.0000 0.86310  0.71260  0.57050  Biso   1.000  H
  H156     1.0000 0.13690  0.21260  0.92950  Biso   1.000  H
  N33      1.0000 0.00390  0.26910  0.43550  Biso   1.000  N
  N34      1.0000 0.99610  0.76910  0.06450  Biso   1.000  N
  N35      1.0000 0.99610  0.73090  0.56450  Biso   1.000  N
  N36      1.0000 0.00390  0.23090  0.93550  Biso   1.000  N
  N37      1.0000 0.34610  0.52970  0.44150  Biso   1.000  N
  N38      1.0000 0.65390  0.02970  0.05850  Biso   1.000  N
  N39      1.0000 0.65390  0.47030  0.55850  Biso   1.000  N
  N40      1.0000 0.34610  0.97030  0.94150  Biso   1.000  N
  N41      1.0000 0.41850  0.45380  0.61460  Biso   1.000  N
  N42      1.0000 0.58150  0.95380  0.88540  Biso   1.000  N
  N43      1.0000 0.58150  0.54620  0.38540  Biso   1.000  N
  N44      1.0000 0.41850  0.04620  0.11460  Biso   1.000  N
  N45      1.0000 0.49920  0.62520  0.55130  Biso   1.000  N
  N46      1.0000 0.50080  0.12520  0.94870  Biso   1.000  N
  N47      1.0000 0.50080  0.37480  0.44870  Biso   1.000  N
  N48      1.0000 0.49920  0.87480  0.05130  Biso   1.000  N
  N49      1.0000 0.16930  0.51930  0.46090  Biso   1.000  N
  N50      1.0000 0.83070  0.01930  0.03910  Biso   1.000  N
  N51      1.0000 0.83070  0.48070  0.53910  Biso   1.000  N
  N52      1.0000 0.16930  0.98070  0.96090  Biso   1.000  N
  N53      1.0000 0.04530  0.52550  0.63150  Biso   1.000  N
  N54      1.0000 0.95470  0.02550  0.86850  Biso   1.000  N
  N55      1.0000 0.95470  0.47450  0.36850  Biso   1.000  N
  N56      1.0000 0.04530  0.97450  0.13150  Biso   1.000  N
  N57      1.0000 0.03550  0.37000  0.52050  Biso   1.000  N
  N58      1.0000 0.96450  0.87000  0.97950  Biso   1.000  N
  N59      1.0000 0.96450  0.63000  0.47950  Biso   1.000  N
  N60      1.0000 0.03550  0.13000  0.02050  Biso   1.000  N
  N61      1.0000 0.07530  0.56380  0.76140  Biso   1.000  N
  N62      1.0000 0.92470  0.06380  0.73860  Biso   1.000  N
  N63      1.0000 0.92470  0.43620  0.23860  Biso   1.000  N
  N64      1.0000 0.07530  0.93620  0.26140  Biso   1.000  N
  N65      1.0000 0.89770  0.55530  0.88810  Biso   1.000  N
  N66      1.0000 0.10230  0.05530  0.61190  Biso   1.000  N
  N67      1.0000 0.10230  0.44470  0.11190  Biso   1.000  N
  N68      1.0000 0.89770  0.94470  0.38810  Biso   1.000  N
  N69      1.0000 0.89080  0.70210  0.76470  Biso   1.000  N
  N70      1.0000 0.10920  0.20210  0.73530  Biso   1.000  N
  N71      1.0000 0.10920  0.29790  0.23530  Biso   1.000  N
  N72      1.0000 0.89080  0.79790  0.26470  Biso   1.000  N
  N73      1.0000 0.12510  0.73860  0.79950  Biso   1.000  N
  N74      1.0000 0.87490  0.23860  0.70050  Biso   1.000  N
  N75      1.0000 0.87490  0.26140  0.20050  Biso   1.000  N
  N76      1.0000 0.12510  0.76140  0.29950  Biso   1.000  N
  N77      1.0000 0.12330  0.61770  0.95110  Biso   1.000  N
  N78      1.0000 0.87670  0.11770  0.54890  Biso   1.000  N
  N79      1.0000 0.87670  0.38230  0.04890  Biso   1.000  N
  N80      1.0000 0.12330  0.88230  0.45110  Biso   1.000  N
  N81      1.0000 0.05430  0.23740  0.55350  Biso   1.000  N
  N82      1.0000 0.94570  0.73740  0.94650  Biso   1.000  N
  N83      1.0000 0.94570  0.76260  0.44650  Biso   1.000  N
  N84      1.0000 0.05430  0.26260  0.05350  Biso   1.000  N
  O1       1.0000 0.81880  0.74180  0.16520  Biso   1.000  O
  O2       1.0000 0.18120  0.24180  0.33480  Biso   1.000  O
  O3       1.0000 0.18120  0.25820  0.83480  Biso   1.000  O
  O4       1.0000 0.81880  0.75820  0.66520  Biso   1.000  O
  O5       1.0000 0.23220  0.82010  0.76560  Biso   1.000  O
  O6       1.0000 0.76780  0.32010  0.73440  Biso   1.000  O
  O7       1.0000 0.76780  0.17990  0.23440  Biso   1.000  O
  O8       1.0000 0.23220  0.67990  0.26560  Biso   1.000  O
  O9       1.0000 0.10150  0.43160  0.92520  Biso   1.000  O
  O10      1.0000 0.89850  0.93160  0.57480  Biso   1.000  O
  O11      1.0000 0.89850  0.56840  0.07480  Biso   1.000  O
  O12      1.0000 0.10150  0.06840  0.42520  Biso   1.000  O
  O13      1.0000 0.32970  0.43260  0.71460  Biso   1.000  O
  O14      1.0000 0.67030  0.93260  0.78540  Biso   1.000  O
  O15      1.0000 0.67030  0.56740  0.28540  Biso   1.000  O
  O16      1.0000 0.32970  0.06740  0.21460  Biso   1.000  O
  O17      1.0000 0.22840  0.60380  0.04200  Biso   1.000  O
  O18      1.0000 0.77160  0.10380  0.45800  Biso   1.000  O
  O19      1.0000 0.77160  0.39620  0.95800  Biso   1.000  O
  O20      1.0000 0.22840  0.89620  0.54200  Biso   1.000  O
