data_image0
_cell_length_a       9.389
_cell_length_b       12.435
_cell_length_c       6.764
_cell_angle_alpha    90
_cell_angle_beta     128.486
_cell_angle_gamma    90

_symmetry_space_group_name_H-M    "P 1"
_symmetry_int_tables_number       1

loop_
  _symmetry_equiv_pos_as_xyz
  'x, y, z'

loop_
  _atom_site_label
  _atom_site_occupancy
  _atom_site_fract_x
  _atom_site_fract_y
  _atom_site_fract_z
  _atom_site_thermal_displace_type
  _atom_site_B_iso_or_equiv
  _atom_site_type_symbol
  Cu1      1.0000 0.00000  0.00000  0.00000  Biso   1.000  Cu
  Cu2      1.0000 0.00000  0.00000  0.50000  Biso   1.000  Cu
  Cu3      1.0000 0.50000  0.50000  0.00000  Biso   1.000  Cu
  Cu4      1.0000 0.50000  0.50000  0.50000  Biso   1.000  Cu
  Cl1      1.0000 0.76990  0.06683  0.99580  Biso   1.000  Cl
  Cl2      1.0000 0.23010  0.06683  0.50420  Biso   1.000  Cl
  Cl3      1.0000 0.26990  0.56683  0.99580  Biso   1.000  Cl
  Cl4      1.0000 0.73010  0.56683  0.50420  Biso   1.000  Cl
  Cl5      1.0000 0.23010  0.93317  0.00420  Biso   1.000  Cl
  Cl6      1.0000 0.76990  0.93317  0.49580  Biso   1.000  Cl
  Cl7      1.0000 0.73010  0.43317  0.00420  Biso   1.000  Cl
  Cl8      1.0000 0.26990  0.43317  0.49580  Biso   1.000  Cl
  N1       1.0000 0.01250  0.14180  0.85900  Biso   1.000  N
  N2       1.0000 0.98750  0.14180  0.64100  Biso   1.000  N
  N3       1.0000 0.51250  0.64180  0.85900  Biso   1.000  N
  N4       1.0000 0.48750  0.64180  0.64100  Biso   1.000  N
  N5       1.0000 0.98750  0.85820  0.14100  Biso   1.000  N
  N6       1.0000 0.01250  0.85820  0.35900  Biso   1.000  N
  N7       1.0000 0.48750  0.35820  0.14100  Biso   1.000  N
  N8       1.0000 0.51250  0.35820  0.35900  Biso   1.000  N
  C1       1.0000 0.02580  0.23370  0.96800  Biso   1.000  C
  C2       1.0000 0.97420  0.23370  0.53200  Biso   1.000  C
  C3       1.0000 0.52580  0.73370  0.96800  Biso   1.000  C
  C4       1.0000 0.47420  0.73370  0.53200  Biso   1.000  C
  C5       1.0000 0.97420  0.76630  0.03200  Biso   1.000  C
  C6       1.0000 0.02580  0.76630  0.46800  Biso   1.000  C
  C7       1.0000 0.47420  0.26630  0.03200  Biso   1.000  C
  C8       1.0000 0.52580  0.26630  0.46800  Biso   1.000  C
  H1       1.0000 0.04260  0.23240  0.11870  Biso   1.000  H
  H2       1.0000 0.95740  0.23240  0.38130  Biso   1.000  H
  H3       1.0000 0.54260  0.73240  0.11870  Biso   1.000  H
  H4       1.0000 0.45740  0.73240  0.38130  Biso   1.000  H
  H5       1.0000 0.95740  0.76760  0.88130  Biso   1.000  H
  H6       1.0000 0.04260  0.76760  0.61870  Biso   1.000  H
  H7       1.0000 0.45740  0.26760  0.88130  Biso   1.000  H
  H8       1.0000 0.54260  0.26760  0.61870  Biso   1.000  H
  C9       1.0000 0.01540  0.33190  0.86290  Biso   1.000  C
  C10      1.0000 0.98460  0.33190  0.63710  Biso   1.000  C
  C11      1.0000 0.51540  0.83190  0.86290  Biso   1.000  C
  C12      1.0000 0.48460  0.83190  0.63710  Biso   1.000  C
  C13      1.0000 0.98460  0.66810  0.13710  Biso   1.000  C
  C14      1.0000 0.01540  0.66810  0.36290  Biso   1.000  C
  C15      1.0000 0.48460  0.16810  0.13710  Biso   1.000  C
  C16      1.0000 0.51540  0.16810  0.36290  Biso   1.000  C
  H9       1.0000 0.02890  0.39610  0.94370  Biso   1.000  H
  H10      1.0000 0.97110  0.39610  0.55630  Biso   1.000  H
  H11      1.0000 0.52890  0.89610  0.94370  Biso   1.000  H
  H12      1.0000 0.47110  0.89610  0.55630  Biso   1.000  H
  H13      1.0000 0.97110  0.60390  0.05630  Biso   1.000  H
  H14      1.0000 0.02890  0.60390  0.44370  Biso   1.000  H
  H15      1.0000 0.47110  0.10390  0.05630  Biso   1.000  H
  H16      1.0000 0.52890  0.10390  0.44370  Biso   1.000  H
