data_image0
_cell_length_a       9.7002
_cell_length_b       12.605
_cell_length_c       6.9372
_cell_angle_alpha    90
_cell_angle_beta     127.913
_cell_angle_gamma    90

_symmetry_space_group_name_H-M    "P 1"
_symmetry_int_tables_number       1

loop_
  _symmetry_equiv_pos_as_xyz
  'x, y, z'

loop_
  _atom_site_label
  _atom_site_occupancy
  _atom_site_fract_x
  _atom_site_fract_y
  _atom_site_fract_z
  _atom_site_thermal_displace_type
  _atom_site_B_iso_or_equiv
  _atom_site_type_symbol
  Cu1      1.0000 0.00000  0.00000  0.50000  Biso   1.000  Cu
  Cu2      1.0000 0.00000  0.00000  0.00000  Biso   1.000  Cu
  Cu3      1.0000 0.50000  0.50000  0.50000  Biso   1.000  Cu
  Cu4      1.0000 0.50000  0.50000  0.00000  Biso   1.000  Cu
  Br1      1.0000 0.23854  0.07085  0.51045  Biso   1.000  Br
  Br2      1.0000 0.76146  0.07085  0.98955  Biso   1.000  Br
  Br3      1.0000 0.73854  0.57085  0.51045  Biso   1.000  Br
  Br4      1.0000 0.26146  0.57085  0.98955  Biso   1.000  Br
  Br5      1.0000 0.76146  0.92915  0.48955  Biso   1.000  Br
  Br6      1.0000 0.23854  0.92915  0.01045  Biso   1.000  Br
  Br7      1.0000 0.26146  0.42915  0.48955  Biso   1.000  Br
  Br8      1.0000 0.73854  0.42915  0.01045  Biso   1.000  Br
  N1       1.0000 0.98860  0.13800  0.64340  Biso   1.000  N
  N2       1.0000 0.01140  0.13800  0.85660  Biso   1.000  N
  N3       1.0000 0.48860  0.63800  0.64340  Biso   1.000  N
  N4       1.0000 0.51140  0.63800  0.85660  Biso   1.000  N
  N5       1.0000 0.01140  0.86200  0.35660  Biso   1.000  N
  N6       1.0000 0.98860  0.86200  0.14340  Biso   1.000  N
  N7       1.0000 0.51140  0.36200  0.35660  Biso   1.000  N
  N8       1.0000 0.48860  0.36200  0.14340  Biso   1.000  N
  C1       1.0000 0.97370  0.22960  0.53910  Biso   1.000  C
  C2       1.0000 0.02630  0.22960  0.96090  Biso   1.000  C
  C3       1.0000 0.47370  0.72960  0.53910  Biso   1.000  C
  C4       1.0000 0.52630  0.72960  0.96090  Biso   1.000  C
  C5       1.0000 0.02630  0.77040  0.46090  Biso   1.000  C
  C6       1.0000 0.97370  0.77040  0.03910  Biso   1.000  C
  C7       1.0000 0.52630  0.27040  0.46090  Biso   1.000  C
  C8       1.0000 0.47370  0.27040  0.03910  Biso   1.000  C
  H1       1.0000 0.95500  0.22850  0.39060  Biso   1.000  H
  H2       1.0000 0.04500  0.22850  0.10940  Biso   1.000  H
  H3       1.0000 0.45500  0.72850  0.39060  Biso   1.000  H
  H4       1.0000 0.54500  0.72850  0.10940  Biso   1.000  H
  H5       1.0000 0.04500  0.77150  0.60940  Biso   1.000  H
  H6       1.0000 0.95500  0.77150  0.89060  Biso   1.000  H
  H7       1.0000 0.54500  0.27150  0.60940  Biso   1.000  H
  H8       1.0000 0.45500  0.27150  0.89060  Biso   1.000  H
  C9       1.0000 0.98430  0.32610  0.63850  Biso   1.000  C
  C10      1.0000 0.01570  0.32610  0.86150  Biso   1.000  C
  C11      1.0000 0.48430  0.82610  0.63850  Biso   1.000  C
  C12      1.0000 0.51570  0.82610  0.86150  Biso   1.000  C
  C13      1.0000 0.01570  0.67390  0.36150  Biso   1.000  C
  C14      1.0000 0.98430  0.67390  0.13850  Biso   1.000  C
  C15      1.0000 0.51570  0.17390  0.36150  Biso   1.000  C
  C16      1.0000 0.48430  0.17390  0.13850  Biso   1.000  C
  H9       1.0000 0.97090  0.38910  0.55890  Biso   1.000  H
  H10      1.0000 0.02910  0.38910  0.94110  Biso   1.000  H
  H11      1.0000 0.47090  0.88910  0.55890  Biso   1.000  H
  H12      1.0000 0.52910  0.88910  0.94110  Biso   1.000  H
  H13      1.0000 0.02910  0.61090  0.44110  Biso   1.000  H
  H14      1.0000 0.97090  0.61090  0.05890  Biso   1.000  H
  H15      1.0000 0.52910  0.11090  0.44110  Biso   1.000  H
  H16      1.0000 0.47090  0.11090  0.05890  Biso   1.000  H
