data_image0
_cell_length_a       7.5721
_cell_length_b       10.7215
_cell_length_c       12.9266
_cell_angle_alpha    90
_cell_angle_beta     90.013
_cell_angle_gamma    90

_symmetry_space_group_name_H-M    "P 1"
_symmetry_int_tables_number       1

loop_
  _symmetry_equiv_pos_as_xyz
  'x, y, z'

loop_
  _atom_site_label
  _atom_site_occupancy
  _atom_site_fract_x
  _atom_site_fract_y
  _atom_site_fract_z
  _atom_site_thermal_displace_type
  _atom_site_B_iso_or_equiv
  _atom_site_type_symbol
  Fe1      1.0000 0.00000  0.00000  0.00000  Biso   1.000  Fe
  Fe2      1.0000 0.50000  0.50000  0.50000  Biso   1.000  Fe
  Cu1      1.0000 0.51006  0.76890  0.18078  Biso   1.000  Cu
  Cu2      1.0000 0.98994  0.26890  0.31922  Biso   1.000  Cu
  Cu3      1.0000 0.48994  0.23110  0.81922  Biso   1.000  Cu
  Cu4      1.0000 0.01006  0.73110  0.68078  Biso   1.000  Cu
  N1       1.0000 0.56130  0.61760  0.09060  Biso   1.000  N
  N2       1.0000 0.93870  0.11760  0.40940  Biso   1.000  N
  N3       1.0000 0.43870  0.38240  0.90940  Biso   1.000  N
  N4       1.0000 0.06130  0.88240  0.59060  Biso   1.000  N
  H1       1.0000 0.53650  0.54970  0.12890  Biso   1.000  H
  H2       1.0000 0.96350  0.04970  0.37110  Biso   1.000  H
  H3       1.0000 0.46350  0.45030  0.87110  Biso   1.000  H
  H4       1.0000 0.03650  0.95030  0.62890  Biso   1.000  H
  H5       1.0000 0.48260  0.61890  0.03850  Biso   1.000  H
  H6       1.0000 0.01740  0.11890  0.46150  Biso   1.000  H
  H7       1.0000 0.51740  0.38110  0.96150  Biso   1.000  H
  H8       1.0000 0.98260  0.88110  0.53850  Biso   1.000  H
  N5       1.0000 0.03590  0.42340  0.23670  Biso   1.000  N
  N6       1.0000 0.46410  0.92340  0.26330  Biso   1.000  N
  N7       1.0000 0.96410  0.57660  0.76330  Biso   1.000  N
  N8       1.0000 0.53590  0.07660  0.73670  Biso   1.000  N
  H9       1.0000 0.04600  0.48870  0.28010  Biso   1.000  H
  H10      1.0000 0.45400  0.98870  0.21990  Biso   1.000  H
  H11      1.0000 0.95400  0.51130  0.71990  Biso   1.000  H
  H12      1.0000 0.54600  0.01130  0.78010  Biso   1.000  H
  H13      1.0000 0.13920  0.41500  0.20300  Biso   1.000  H
  H14      1.0000 0.36080  0.91500  0.29700  Biso   1.000  H
  H15      1.0000 0.86080  0.58500  0.79700  Biso   1.000  H
  H16      1.0000 0.63920  0.08500  0.70300  Biso   1.000  H
  N9       1.0000 0.26980  0.81200  0.08790  Biso   1.000  N
  N10      1.0000 0.23020  0.31200  0.41210  Biso   1.000  N
  N11      1.0000 0.73020  0.18800  0.91210  Biso   1.000  N
  N12      1.0000 0.76980  0.68800  0.58790  Biso   1.000  N
  N13      1.0000 0.69630  0.86410  0.10450  Biso   1.000  N
  N14      1.0000 0.80370  0.36410  0.39550  Biso   1.000  N
  N15      1.0000 0.30370  0.13590  0.89550  Biso   1.000  N
  N16      1.0000 0.19630  0.63590  0.60450  Biso   1.000  N
  N17      1.0000 0.97020  0.83860  0.80380  Biso   1.000  N
  N18      1.0000 0.52980  0.33860  0.69620  Biso   1.000  N
  N19      1.0000 0.02980  0.16140  0.19620  Biso   1.000  N
  N20      1.0000 0.47020  0.66140  0.30380  Biso   1.000  N
  C1       1.0000 0.73950  0.59600  0.04280  Biso   1.000  C
  C2       1.0000 0.76050  0.09600  0.45720  Biso   1.000  C
  C3       1.0000 0.26050  0.40400  0.95720  Biso   1.000  C
  C4       1.0000 0.23950  0.90400  0.54280  Biso   1.000  C
  H17      1.0000 0.77020  0.66760  0.00060  Biso   1.000  H
  H18      1.0000 0.72980  0.16760  0.49940  Biso   1.000  H
  H19      1.0000 0.22980  0.33240  0.99940  Biso   1.000  H
  H20      1.0000 0.27020  0.83240  0.50060  Biso   1.000  H
  H21      1.0000 0.73320  0.52380  0.99780  Biso   1.000  H
  H22      1.0000 0.76680  0.02380  0.50220  Biso   1.000  H
  H23      1.0000 0.26680  0.47620  0.00220  Biso   1.000  H
  H24      1.0000 0.23320  0.97620  0.49780  Biso   1.000  H
  C5       1.0000 0.88350  0.57530  0.12230  Biso   1.000  C
  C6       1.0000 0.61650  0.07530  0.37770  Biso   1.000  C
  C7       1.0000 0.11650  0.42470  0.87770  Biso   1.000  C
  C8       1.0000 0.38350  0.92470  0.62230  Biso   1.000  C
  H25      1.0000 0.99650  0.59680  0.09180  Biso   1.000  H
  H26      1.0000 0.50350  0.09680  0.40820  Biso   1.000  H
  H27      1.0000 0.00350  0.40320  0.90820  Biso   1.000  H
  H28      1.0000 0.49650  0.90320  0.59180  Biso   1.000  H
  H29      1.0000 0.86370  0.63070  0.18040  Biso   1.000  H
  H30      1.0000 0.63630  0.13070  0.31960  Biso   1.000  H
  H31      1.0000 0.13630  0.36930  0.81960  Biso   1.000  H
  H32      1.0000 0.36370  0.86930  0.68040  Biso   1.000  H
  C9       1.0000 0.89090  0.45030  0.15890  Biso   1.000  C
  C10      1.0000 0.60910  0.95030  0.34110  Biso   1.000  C
  C11      1.0000 0.10910  0.54970  0.84110  Biso   1.000  C
  C12      1.0000 0.39090  0.04970  0.65890  Biso   1.000  C
  H33      1.0000 0.90660  0.39530  0.10000  Biso   1.000  H
  H34      1.0000 0.59340  0.89530  0.40000  Biso   1.000  H
  H35      1.0000 0.09340  0.60470  0.90000  Biso   1.000  H
  H36      1.0000 0.40660  0.10470  0.60000  Biso   1.000  H
  H37      1.0000 0.77820  0.43000  0.19040  Biso   1.000  H
  H38      1.0000 0.72180  0.93000  0.30960  Biso   1.000  H
  H39      1.0000 0.22180  0.57000  0.80960  Biso   1.000  H
  H40      1.0000 0.27820  0.07000  0.69040  Biso   1.000  H
  C13      1.0000 0.16570  0.88100  0.05610  Biso   1.000  C
  C14      1.0000 0.33430  0.38100  0.44390  Biso   1.000  C
  C15      1.0000 0.83430  0.11900  0.94390  Biso   1.000  C
  C16      1.0000 0.66570  0.61900  0.55610  Biso   1.000  C
  C17      1.0000 0.81250  0.91490  0.06480  Biso   1.000  C
  C18      1.0000 0.68750  0.41490  0.43520  Biso   1.000  C
  C19      1.0000 0.18750  0.08510  0.93520  Biso   1.000  C
  C20      1.0000 0.31250  0.58510  0.56480  Biso   1.000  C
  C21      1.0000 0.97710  0.89780  0.87830  Biso   1.000  C
  C22      1.0000 0.52290  0.39780  0.62170  Biso   1.000  C
  C23      1.0000 0.02290  0.10220  0.12170  Biso   1.000  C
  C24      1.0000 0.47710  0.60220  0.37830  Biso   1.000  C
  O1       1.0000 0.49410  0.14600  0.11100  Biso   1.000  O
  O2       1.0000 0.00590  0.64600  0.38900  Biso   1.000  O
  O3       1.0000 0.50590  0.85400  0.88900  Biso   1.000  O
  O4       1.0000 0.99410  0.35400  0.61100  Biso   1.000  O
  O5       1.0000 0.06910  0.88110  0.30870  Biso   1.000  O
  O6       1.0000 0.43090  0.38110  0.19130  Biso   1.000  O
  O7       1.0000 0.93090  0.11890  0.69130  Biso   1.000  O
  O8       1.0000 0.56910  0.61890  0.80870  Biso   1.000  O
  H41      1.0000 0.57100  0.14900  0.06700  Biso   1.000  H
  H42      1.0000 0.92900  0.64900  0.43300  Biso   1.000  H
  H43      1.0000 0.42900  0.85100  0.93300  Biso   1.000  H
  H44      1.0000 0.07100  0.35100  0.56700  Biso   1.000  H
  H45      1.0000 0.06100  0.80900  0.33000  Biso   1.000  H
  H46      1.0000 0.43900  0.30900  0.17000  Biso   1.000  H
  H47      1.0000 0.93900  0.19100  0.67000  Biso   1.000  H
  H48      1.0000 0.56100  0.69100  0.83000  Biso   1.000  H
  H49      1.0000 0.40100  0.13300  0.08000  Biso   1.000  H
  H50      1.0000 0.09900  0.63300  0.42000  Biso   1.000  H
  H51      1.0000 0.59900  0.86700  0.92000  Biso   1.000  H
  H52      1.0000 0.90100  0.36700  0.58000  Biso   1.000  H
  H53      1.0000 0.06400  0.87700  0.24630  Biso   1.000  H
  H54      1.0000 0.43600  0.37700  0.25370  Biso   1.000  H
  H55      1.0000 0.93600  0.12300  0.75370  Biso   1.000  H
  H56      1.0000 0.56400  0.62300  0.74630  Biso   1.000  H
