data_image0
_cell_length_a       7.1317
_cell_length_b       7.3981
_cell_length_c       7.5302
_cell_angle_alpha    91.46
_cell_angle_beta     109.14
_cell_angle_gamma    111.31

_symmetry_space_group_name_H-M    "P 1"
_symmetry_int_tables_number       1

loop_
  _symmetry_equiv_pos_as_xyz
  'x, y, z'

loop_
  _atom_site_label
  _atom_site_occupancy
  _atom_site_fract_x
  _atom_site_fract_y
  _atom_site_fract_z
  _atom_site_thermal_displace_type
  _atom_site_B_iso_or_equiv
  _atom_site_type_symbol
  Cu1      1.0000 0.00000  0.50000  0.00000  Biso   1.000  Cu
  O1       1.0000 0.28480  0.68820  0.16900  Biso   1.000  O
  O2       1.0000 0.71520  0.31180  0.83100  Biso   1.000  O
  O3       1.0000 0.34370  0.68890  0.89700  Biso   1.000  O
  O4       1.0000 0.65630  0.31110  0.10300  Biso   1.000  O
  O5       1.0000 0.91640  0.71600  0.92128  Biso   1.000  O
  O6       1.0000 0.08360  0.28400  0.07872  Biso   1.000  O
  N1       1.0000 0.71880  0.82440  0.37640  Biso   1.000  N
  N2       1.0000 0.28120  0.17560  0.62360  Biso   1.000  N
  C1       1.0000 0.40520  0.73410  0.07080  Biso   1.000  C
  C2       1.0000 0.59480  0.26590  0.92920  Biso   1.000  C
  C3       1.0000 0.64410  0.85910  0.17870  Biso   1.000  C
  C4       1.0000 0.35590  0.14090  0.82130  Biso   1.000  C
  H1       1.0000 0.72830  0.82960  0.11260  Biso   1.000  H
  H2       1.0000 0.27170  0.17040  0.88740  Biso   1.000  H
  H3       1.0000 0.66860  0.99700  0.17930  Biso   1.000  H
  H4       1.0000 0.33140  0.00300  0.82070  Biso   1.000  H
  C5       1.0000 0.73320  0.94440  0.52340  Biso   1.000  C
  C6       1.0000 0.26680  0.05560  0.47660  Biso   1.000  C
  H5       1.0000 0.69920  0.05350  0.49910  Biso   1.000  H
  H6       1.0000 0.30080  0.94650  0.50090  Biso   1.000  H
  C7       1.0000 0.76490  0.66420  0.40990  Biso   1.000  C
  C8       1.0000 0.23510  0.33580  0.59010  Biso   1.000  C
  H7       1.0000 0.75140  0.58070  0.30800  Biso   1.000  H
  H8       1.0000 0.24860  0.41930  0.69200  Biso   1.000  H
  C9       1.0000 0.83080  0.62160  0.58940  Biso   1.000  C
  C10      1.0000 0.16920  0.37840  0.41060  Biso   1.000  C
  H9       1.0000 0.86320  0.51100  0.60800  Biso   1.000  H
  H10      1.0000 0.13680  0.48900  0.39200  Biso   1.000  H
  C11      1.0000 0.85040  0.74460  0.74830  Biso   1.000  C
  C12      1.0000 0.14960  0.25540  0.25170  Biso   1.000  C
  C13      1.0000 0.79630  0.90950  0.70590  Biso   1.000  C
  C14      1.0000 0.20370  0.09050  0.29410  Biso   1.000  C
  H11      1.0000 0.80410  0.99450  0.80370  Biso   1.000  H
  H12      1.0000 0.19590  0.00550  0.19630  Biso   1.000  H
