data_image0
_cell_length_a       38.819
_cell_length_b       38.819
_cell_length_c       7.7932
_cell_angle_alpha    90
_cell_angle_beta     90
_cell_angle_gamma    120

_symmetry_space_group_name_H-M    "P 1"
_symmetry_int_tables_number       1

loop_
  _symmetry_equiv_pos_as_xyz
  'x, y, z'

loop_
  _atom_site_label
  _atom_site_occupancy
  _atom_site_fract_x
  _atom_site_fract_y
  _atom_site_fract_z
  _atom_site_thermal_displace_type
  _atom_site_B_iso_or_equiv
  _atom_site_type_symbol
  Cu1      1.0000 0.66667  0.63467  0.83333  Biso   1.000  Cu
  Cu2      1.0000 0.36533  0.03200  0.83333  Biso   1.000  Cu
  Cu3      1.0000 0.96800  0.33333  0.83333  Biso   1.000  Cu
  Cu4      1.0000 0.63467  0.66667  0.16667  Biso   1.000  Cu
  Cu5      1.0000 0.03200  0.36533  0.16667  Biso   1.000  Cu
  Cu6      1.0000 0.33333  0.96800  0.16667  Biso   1.000  Cu
  Cu7      1.0000 0.30134  0.00000  0.50000  Biso   1.000  Cu
  Cu8      1.0000 0.69867  0.69866  0.50000  Biso   1.000  Cu
  Cu9      1.0000 1.00000  0.30133  0.50000  Biso   1.000  Cu
  Cu10     1.0000 0.33333  0.36533  0.16667  Biso   1.000  Cu
  Cu11     1.0000 0.63467  0.96800  0.16667  Biso   1.000  Cu
  Cu12     1.0000 0.03200  0.66667  0.16667  Biso   1.000  Cu
  Cu13     1.0000 0.36533  0.33333  0.83333  Biso   1.000  Cu
  Cu14     1.0000 0.96800  0.63467  0.83333  Biso   1.000  Cu
  Cu15     1.0000 0.66667  0.03200  0.83333  Biso   1.000  Cu
  Cu16     1.0000 1.00000  0.69866  0.50000  Biso   1.000  Cu
  Cu17     1.0000 0.30134  0.30133  0.50000  Biso   1.000  Cu
  Cu18     1.0000 0.69867  0.00000  0.50000  Biso   1.000  Cu
  Cl1      1.0000 0.72512  0.66667  0.66667  Biso   1.000  Cl
  Cl2      1.0000 0.33333  0.05845  0.66667  Biso   1.000  Cl
  Cl3      1.0000 0.94155  0.27488  0.66667  Biso   1.000  Cl
  Cl4      1.0000 0.66667  0.72512  0.33333  Biso   1.000  Cl
  Cl5      1.0000 0.05845  0.33333  0.33333  Biso   1.000  Cl
  Cl6      1.0000 0.27488  0.94155  0.33333  Biso   1.000  Cl
  Cl7      1.0000 0.39179  0.00000  0.00000  Biso   1.000  Cl
  Cl8      1.0000 1.00000  0.39178  0.00000  Biso   1.000  Cl
  Cl9      1.0000 0.60822  0.60821  0.00000  Biso   1.000  Cl
  Cl10     1.0000 0.27488  0.33333  0.33333  Biso   1.000  Cl
  Cl11     1.0000 0.66667  0.94155  0.33333  Biso   1.000  Cl
  Cl12     1.0000 0.05845  0.72512  0.33333  Biso   1.000  Cl
  Cl13     1.0000 0.33333  0.27488  0.66667  Biso   1.000  Cl
  Cl14     1.0000 0.94155  0.66667  0.66667  Biso   1.000  Cl
  Cl15     1.0000 0.72512  0.05845  0.66667  Biso   1.000  Cl
  Cl16     1.0000 1.00000  0.60821  0.00000  Biso   1.000  Cl
  Cl17     1.0000 0.60822  0.00000  0.00000  Biso   1.000  Cl
  Cl18     1.0000 0.39179  0.39178  0.00000  Biso   1.000  Cl
  N1       1.0000 0.64300  0.64300  0.50000  Biso   1.000  N
  N2       1.0000 0.35700  0.00000  0.50000  Biso   1.000  N
  N3       1.0000 0.00000  0.35700  0.50000  Biso   1.000  N
  N4       1.0000 0.30967  0.97633  0.83333  Biso   1.000  N
  N5       1.0000 0.02367  0.33333  0.83333  Biso   1.000  N
  N6       1.0000 0.66667  0.69033  0.83333  Biso   1.000  N
  N7       1.0000 0.97633  0.30967  0.16667  Biso   1.000  N
  N8       1.0000 0.69033  0.66667  0.16667  Biso   1.000  N
  N9       1.0000 0.33333  0.02367  0.16667  Biso   1.000  N
  N10      1.0000 0.35700  0.35700  0.50000  Biso   1.000  N
  N11      1.0000 0.64300  0.00000  0.50000  Biso   1.000  N
  N12      1.0000 0.00000  0.64300  0.50000  Biso   1.000  N
  N13      1.0000 0.02367  0.69033  0.83333  Biso   1.000  N
  N14      1.0000 0.30967  0.33333  0.83333  Biso   1.000  N
  N15      1.0000 0.66667  0.97633  0.83333  Biso   1.000  N
  N16      1.0000 0.69033  0.02367  0.16667  Biso   1.000  N
  N17      1.0000 0.97633  0.66667  0.16667  Biso   1.000  N
  N18      1.0000 0.33333  0.30967  0.16667  Biso   1.000  N
  N19      1.0000 0.62950  0.61770  0.63300  Biso   1.000  N
  N20      1.0000 0.38230  0.01180  0.63300  Biso   1.000  N
  N21      1.0000 0.98820  0.37050  0.63300  Biso   1.000  N
  N22      1.0000 0.61770  0.62950  0.36700  Biso   1.000  N
  N23      1.0000 0.01180  0.38230  0.36700  Biso   1.000  N
  N24      1.0000 0.37050  0.98820  0.36700  Biso   1.000  N
  N25      1.0000 0.29617  0.95103  0.96633  Biso   1.000  N
  N26      1.0000 0.04897  0.34513  0.96633  Biso   1.000  N
  N27      1.0000 0.65487  0.70383  0.96633  Biso   1.000  N
  N28      1.0000 0.28437  0.96283  0.70033  Biso   1.000  N
  N29      1.0000 0.67847  0.71563  0.70033  Biso   1.000  N
  N30      1.0000 0.03717  0.32153  0.70033  Biso   1.000  N
  N31      1.0000 0.96283  0.28437  0.29967  Biso   1.000  N
  N32      1.0000 0.71563  0.67847  0.29967  Biso   1.000  N
  N33      1.0000 0.32153  0.03717  0.29967  Biso   1.000  N
  N34      1.0000 0.95103  0.29617  0.03367  Biso   1.000  N
  N35      1.0000 0.34513  0.04897  0.03367  Biso   1.000  N
  N36      1.0000 0.70383  0.65487  0.03367  Biso   1.000  N
  N37      1.0000 0.37050  0.38230  0.36700  Biso   1.000  N
  N38      1.0000 0.61770  0.98820  0.36700  Biso   1.000  N
  N39      1.0000 0.01180  0.62950  0.36700  Biso   1.000  N
  N40      1.0000 0.38230  0.37050  0.63300  Biso   1.000  N
  N41      1.0000 0.98820  0.61770  0.63300  Biso   1.000  N
  N42      1.0000 0.62950  0.01180  0.63300  Biso   1.000  N
  N43      1.0000 0.03717  0.71563  0.70033  Biso   1.000  N
  N44      1.0000 0.28437  0.32153  0.70033  Biso   1.000  N
  N45      1.0000 0.67847  0.96283  0.70033  Biso   1.000  N
  N46      1.0000 0.04897  0.70383  0.96633  Biso   1.000  N
  N47      1.0000 0.65487  0.95103  0.96633  Biso   1.000  N
  N48      1.0000 0.29617  0.34513  0.96633  Biso   1.000  N
  N49      1.0000 0.70383  0.04897  0.03367  Biso   1.000  N
  N50      1.0000 0.95103  0.65487  0.03367  Biso   1.000  N
  N51      1.0000 0.34513  0.29617  0.03367  Biso   1.000  N
  N52      1.0000 0.71563  0.03717  0.29967  Biso   1.000  N
  N53      1.0000 0.32153  0.28437  0.29967  Biso   1.000  N
  N54      1.0000 0.96283  0.67847  0.29967  Biso   1.000  N
  C1       1.0000 0.59360  0.58700  0.58800  Biso   1.000  C
  C2       1.0000 0.41300  0.00660  0.58800  Biso   1.000  C
  C3       1.0000 0.99340  0.40640  0.58800  Biso   1.000  C
  C4       1.0000 0.58700  0.59360  0.41200  Biso   1.000  C
  C5       1.0000 0.00660  0.41300  0.41200  Biso   1.000  C
  C6       1.0000 0.40640  0.99340  0.41200  Biso   1.000  C
  C7       1.0000 0.26027  0.92033  0.92133  Biso   1.000  C
  C8       1.0000 0.07967  0.33993  0.92133  Biso   1.000  C
  C9       1.0000 0.66007  0.73973  0.92133  Biso   1.000  C
  C10      1.0000 0.25367  0.92693  0.74533  Biso   1.000  C
  C11      1.0000 0.67327  0.74633  0.74533  Biso   1.000  C
  C12      1.0000 0.07307  0.32673  0.74533  Biso   1.000  C
  C13      1.0000 0.92693  0.25367  0.25467  Biso   1.000  C
  C14      1.0000 0.74633  0.67327  0.25467  Biso   1.000  C
  C15      1.0000 0.32673  0.07307  0.25467  Biso   1.000  C
  C16      1.0000 0.92033  0.26027  0.07867  Biso   1.000  C
  C17      1.0000 0.33993  0.07967  0.07867  Biso   1.000  C
  C18      1.0000 0.73973  0.66007  0.07867  Biso   1.000  C
  C19      1.0000 0.40640  0.41300  0.41200  Biso   1.000  C
  C20      1.0000 0.58700  0.99340  0.41200  Biso   1.000  C
  C21      1.0000 0.00660  0.59360  0.41200  Biso   1.000  C
  C22      1.0000 0.41300  0.40640  0.58800  Biso   1.000  C
  C23      1.0000 0.99340  0.58700  0.58800  Biso   1.000  C
  C24      1.0000 0.59360  0.00660  0.58800  Biso   1.000  C
  C25      1.0000 0.07307  0.74633  0.74533  Biso   1.000  C
  C26      1.0000 0.25367  0.32673  0.74533  Biso   1.000  C
  C27      1.0000 0.67327  0.92693  0.74533  Biso   1.000  C
  C28      1.0000 0.07967  0.73973  0.92133  Biso   1.000  C
  C29      1.0000 0.66007  0.92033  0.92133  Biso   1.000  C
  C30      1.0000 0.26027  0.33993  0.92133  Biso   1.000  C
  C31      1.0000 0.73973  0.07967  0.07867  Biso   1.000  C
  C32      1.0000 0.92033  0.66007  0.07867  Biso   1.000  C
  C33      1.0000 0.33993  0.26027  0.07867  Biso   1.000  C
  C34      1.0000 0.74633  0.07307  0.25467  Biso   1.000  C
  C35      1.0000 0.32673  0.25367  0.25467  Biso   1.000  C
  C36      1.0000 0.92693  0.67327  0.25467  Biso   1.000  C
  C37      1.0000 0.56780  0.55360  0.67400  Biso   1.000  C
  C38      1.0000 0.44640  0.01420  0.67400  Biso   1.000  C
  C39      1.0000 0.98580  0.43220  0.67400  Biso   1.000  C
  C40      1.0000 0.55360  0.56780  0.32600  Biso   1.000  C
  C41      1.0000 0.01420  0.44640  0.32600  Biso   1.000  C
  C42      1.0000 0.43220  0.98580  0.32600  Biso   1.000  C
  C43      1.0000 0.23447  0.88693  0.00733  Biso   1.000  C
  C44      1.0000 0.11307  0.34753  0.00733  Biso   1.000  C
  C45      1.0000 0.65247  0.76553  0.00733  Biso   1.000  C
  C46      1.0000 0.22027  0.90113  0.65933  Biso   1.000  C
  C47      1.0000 0.68087  0.77973  0.65933  Biso   1.000  C
  C48      1.0000 0.09887  0.31913  0.65933  Biso   1.000  C
  C49      1.0000 0.90113  0.22027  0.34067  Biso   1.000  C
  C50      1.0000 0.77973  0.68087  0.34067  Biso   1.000  C
  C51      1.0000 0.31913  0.09887  0.34067  Biso   1.000  C
  C52      1.0000 0.88693  0.23447  0.99267  Biso   1.000  C
  C53      1.0000 0.34753  0.11307  0.99267  Biso   1.000  C
  C54      1.0000 0.76553  0.65247  0.99267  Biso   1.000  C
  C55      1.0000 0.43220  0.44640  0.32600  Biso   1.000  C
  C56      1.0000 0.55360  0.98580  0.32600  Biso   1.000  C
  C57      1.0000 0.01420  0.56780  0.32600  Biso   1.000  C
  C58      1.0000 0.44640  0.43220  0.67400  Biso   1.000  C
  C59      1.0000 0.98580  0.55360  0.67400  Biso   1.000  C
  C60      1.0000 0.56780  0.01420  0.67400  Biso   1.000  C
  C61      1.0000 0.09887  0.77973  0.65933  Biso   1.000  C
  C62      1.0000 0.22027  0.31913  0.65933  Biso   1.000  C
  C63      1.0000 0.68087  0.90113  0.65933  Biso   1.000  C
  C64      1.0000 0.11307  0.76553  0.00733  Biso   1.000  C
  C65      1.0000 0.65247  0.88693  0.00733  Biso   1.000  C
  C66      1.0000 0.23447  0.34753  0.00733  Biso   1.000  C
  C67      1.0000 0.76553  0.11307  0.99267  Biso   1.000  C
  C68      1.0000 0.88693  0.65247  0.99267  Biso   1.000  C
  C69      1.0000 0.34753  0.23447  0.99267  Biso   1.000  C
  C70      1.0000 0.77973  0.09887  0.34067  Biso   1.000  C
  C71      1.0000 0.31913  0.22027  0.34067  Biso   1.000  C
  C72      1.0000 0.90113  0.68087  0.34067  Biso   1.000  C
  H1       1.0000 0.57437  0.54871  0.78254  Biso   1.000  H
  H2       1.0000 0.45129  0.02566  0.78254  Biso   1.000  H
  H3       1.0000 0.97434  0.42563  0.78254  Biso   1.000  H
  H4       1.0000 0.54871  0.57437  0.21746  Biso   1.000  H
  H5       1.0000 0.02566  0.45129  0.21746  Biso   1.000  H
  H6       1.0000 0.42563  0.97434  0.21746  Biso   1.000  H
  H7       1.0000 0.24104  0.88204  0.11587  Biso   1.000  H
  H8       1.0000 0.11796  0.35899  0.11587  Biso   1.000  H
  H9       1.0000 0.64101  0.75896  0.11587  Biso   1.000  H
  H10      1.0000 0.21538  0.90770  0.55079  Biso   1.000  H
  H11      1.0000 0.69233  0.78462  0.55079  Biso   1.000  H
  H12      1.0000 0.09230  0.30767  0.55079  Biso   1.000  H
  H13      1.0000 0.90770  0.21538  0.44921  Biso   1.000  H
  H14      1.0000 0.78462  0.69233  0.44921  Biso   1.000  H
  H15      1.0000 0.30767  0.09230  0.44921  Biso   1.000  H
  H16      1.0000 0.88204  0.24104  0.88413  Biso   1.000  H
  H17      1.0000 0.35899  0.11796  0.88413  Biso   1.000  H
  H18      1.0000 0.75896  0.64101  0.88413  Biso   1.000  H
  H19      1.0000 0.42563  0.45129  0.21746  Biso   1.000  H
  H20      1.0000 0.54871  0.97434  0.21746  Biso   1.000  H
  H21      1.0000 0.02566  0.57437  0.21746  Biso   1.000  H
  H22      1.0000 0.45129  0.42563  0.78254  Biso   1.000  H
  H23      1.0000 0.97434  0.54871  0.78254  Biso   1.000  H
  H24      1.0000 0.57437  0.02566  0.78254  Biso   1.000  H
  H25      1.0000 0.09230  0.78462  0.55079  Biso   1.000  H
  H26      1.0000 0.21538  0.30767  0.55079  Biso   1.000  H
  H27      1.0000 0.69233  0.90770  0.55079  Biso   1.000  H
  H28      1.0000 0.11796  0.75896  0.11587  Biso   1.000  H
  H29      1.0000 0.64101  0.88204  0.11587  Biso   1.000  H
  H30      1.0000 0.24104  0.35899  0.11587  Biso   1.000  H
  H31      1.0000 0.75896  0.11796  0.88413  Biso   1.000  H
  H32      1.0000 0.88204  0.64101  0.88413  Biso   1.000  H
  H33      1.0000 0.35899  0.24104  0.88413  Biso   1.000  H
  H34      1.0000 0.78462  0.09230  0.44921  Biso   1.000  H
  H35      1.0000 0.30767  0.21538  0.44921  Biso   1.000  H
  H36      1.0000 0.90770  0.69233  0.44921  Biso   1.000  H
  C73      1.0000 0.53340  0.52780  0.60400  Biso   1.000  C
  C74      1.0000 0.47220  0.00560  0.60400  Biso   1.000  C
  C75      1.0000 0.99440  0.46660  0.60400  Biso   1.000  C
  C76      1.0000 0.52780  0.53340  0.39600  Biso   1.000  C
  C77      1.0000 0.00560  0.47220  0.39600  Biso   1.000  C
  C78      1.0000 0.46660  0.99440  0.39600  Biso   1.000  C
  C79      1.0000 0.20007  0.86113  0.93733  Biso   1.000  C
  C80      1.0000 0.13887  0.33893  0.93733  Biso   1.000  C
  C81      1.0000 0.66107  0.79993  0.93733  Biso   1.000  C
  C82      1.0000 0.19447  0.86673  0.72933  Biso   1.000  C
  C83      1.0000 0.67227  0.80553  0.72933  Biso   1.000  C
  C84      1.0000 0.13327  0.32773  0.72933  Biso   1.000  C
  C85      1.0000 0.86673  0.19447  0.27067  Biso   1.000  C
  C86      1.0000 0.80553  0.67227  0.27067  Biso   1.000  C
  C87      1.0000 0.32773  0.13327  0.27067  Biso   1.000  C
  C88      1.0000 0.86113  0.20007  0.06267  Biso   1.000  C
  C89      1.0000 0.33893  0.13887  0.06267  Biso   1.000  C
  C90      1.0000 0.79993  0.66107  0.06267  Biso   1.000  C
  C91      1.0000 0.46660  0.47220  0.39600  Biso   1.000  C
  C92      1.0000 0.52780  0.99440  0.39600  Biso   1.000  C
  C93      1.0000 0.00560  0.53340  0.39600  Biso   1.000  C
  C94      1.0000 0.47220  0.46660  0.60400  Biso   1.000  C
  C95      1.0000 0.99440  0.52780  0.60400  Biso   1.000  C
  C96      1.0000 0.53340  0.00560  0.60400  Biso   1.000  C
  C97      1.0000 0.13327  0.80553  0.72933  Biso   1.000  C
  C98      1.0000 0.19447  0.32773  0.72933  Biso   1.000  C
  C99      1.0000 0.67227  0.86673  0.72933  Biso   1.000  C
  C100     1.0000 0.13887  0.79993  0.93733  Biso   1.000  C
  C101     1.0000 0.66107  0.86113  0.93733  Biso   1.000  C
  C102     1.0000 0.20007  0.33893  0.93733  Biso   1.000  C
  C103     1.0000 0.79993  0.13887  0.06267  Biso   1.000  C
  C104     1.0000 0.86113  0.66107  0.06267  Biso   1.000  C
  C105     1.0000 0.33893  0.20007  0.06267  Biso   1.000  C
  C106     1.0000 0.80553  0.13327  0.27067  Biso   1.000  C
  C107     1.0000 0.32773  0.19447  0.27067  Biso   1.000  C
  C108     1.0000 0.86673  0.67227  0.27067  Biso   1.000  C
  O1       1.0000 0.50690  0.49310  0.69000  Biso   1.000  O
  O2       1.0000 0.50690  0.01380  0.69000  Biso   1.000  O
  O3       1.0000 0.98620  0.49310  0.69000  Biso   1.000  O
  O4       1.0000 0.49310  0.50690  0.31000  Biso   1.000  O
  O5       1.0000 0.01380  0.50690  0.31000  Biso   1.000  O
  O6       1.0000 0.49310  0.98620  0.31000  Biso   1.000  O
  O7       1.0000 0.17357  0.82643  0.02333  Biso   1.000  O
  O8       1.0000 0.17357  0.34713  0.02333  Biso   1.000  O
  O9       1.0000 0.65287  0.82643  0.02333  Biso   1.000  O
  O10      1.0000 0.15977  0.84023  0.64333  Biso   1.000  O
  O11      1.0000 0.68047  0.84023  0.64333  Biso   1.000  O
  O12      1.0000 0.15977  0.31953  0.64333  Biso   1.000  O
  O13      1.0000 0.84023  0.15977  0.35667  Biso   1.000  O
  O14      1.0000 0.84023  0.68047  0.35667  Biso   1.000  O
  O15      1.0000 0.31953  0.15977  0.35667  Biso   1.000  O
  O16      1.0000 0.82643  0.17357  0.97667  Biso   1.000  O
  O17      1.0000 0.34713  0.17357  0.97667  Biso   1.000  O
  O18      1.0000 0.82643  0.65287  0.97667  Biso   1.000  O
  N55      1.0000 0.63350  0.61370  0.61400  Biso   1.000  N
  N56      1.0000 0.38630  0.01980  0.61400  Biso   1.000  N
  N57      1.0000 0.98020  0.36650  0.61400  Biso   1.000  N
  N58      1.0000 0.61370  0.63350  0.38600  Biso   1.000  N
  N59      1.0000 0.01980  0.38630  0.38600  Biso   1.000  N
  N60      1.0000 0.36650  0.98020  0.38600  Biso   1.000  N
  N61      1.0000 0.30017  0.94703  0.94733  Biso   1.000  N
  N62      1.0000 0.05297  0.35313  0.94733  Biso   1.000  N
  N63      1.0000 0.64687  0.69983  0.94733  Biso   1.000  N
  N64      1.0000 0.28037  0.96683  0.71933  Biso   1.000  N
  N65      1.0000 0.68647  0.71963  0.71933  Biso   1.000  N
  N66      1.0000 0.03317  0.31353  0.71933  Biso   1.000  N
  N67      1.0000 0.96683  0.28037  0.28067  Biso   1.000  N
  N68      1.0000 0.71963  0.68647  0.28067  Biso   1.000  N
  N69      1.0000 0.31353  0.03317  0.28067  Biso   1.000  N
  N70      1.0000 0.94703  0.30017  0.05267  Biso   1.000  N
  N71      1.0000 0.35313  0.05297  0.05267  Biso   1.000  N
  N72      1.0000 0.69983  0.64687  0.05267  Biso   1.000  N
  N73      1.0000 0.36650  0.38630  0.38600  Biso   1.000  N
  N74      1.0000 0.61370  0.98020  0.38600  Biso   1.000  N
  N75      1.0000 0.01980  0.63350  0.38600  Biso   1.000  N
  N76      1.0000 0.38630  0.36650  0.61400  Biso   1.000  N
  N77      1.0000 0.98020  0.61370  0.61400  Biso   1.000  N
  N78      1.0000 0.63350  0.01980  0.61400  Biso   1.000  N
  N79      1.0000 0.03317  0.71963  0.71933  Biso   1.000  N
  N80      1.0000 0.28037  0.31353  0.71933  Biso   1.000  N
  N81      1.0000 0.68647  0.96683  0.71933  Biso   1.000  N
  N82      1.0000 0.05297  0.69983  0.94733  Biso   1.000  N
  N83      1.0000 0.64687  0.94703  0.94733  Biso   1.000  N
  N84      1.0000 0.30017  0.35313  0.94733  Biso   1.000  N
  N85      1.0000 0.69983  0.05297  0.05267  Biso   1.000  N
  N86      1.0000 0.94703  0.64687  0.05267  Biso   1.000  N
  N87      1.0000 0.35313  0.30017  0.05267  Biso   1.000  N
  N88      1.0000 0.71963  0.03317  0.28067  Biso   1.000  N
  N89      1.0000 0.31353  0.28037  0.28067  Biso   1.000  N
  N90      1.0000 0.96683  0.68647  0.28067  Biso   1.000  N
  C109     1.0000 0.59740  0.58350  0.57000  Biso   1.000  C
  C110     1.0000 0.41650  0.01390  0.57000  Biso   1.000  C
  C111     1.0000 0.98610  0.40260  0.57000  Biso   1.000  C
  C112     1.0000 0.58350  0.59740  0.43000  Biso   1.000  C
  C113     1.0000 0.01390  0.41650  0.43000  Biso   1.000  C
  C114     1.0000 0.40260  0.98610  0.43000  Biso   1.000  C
  C115     1.0000 0.26407  0.91683  0.90333  Biso   1.000  C
  C116     1.0000 0.08317  0.34723  0.90333  Biso   1.000  C
  C117     1.0000 0.65277  0.73593  0.90333  Biso   1.000  C
  C118     1.0000 0.25017  0.93073  0.76333  Biso   1.000  C
  C119     1.0000 0.68057  0.74983  0.76333  Biso   1.000  C
  C120     1.0000 0.06927  0.31943  0.76333  Biso   1.000  C
  C121     1.0000 0.93073  0.25017  0.23667  Biso   1.000  C
  C122     1.0000 0.74983  0.68057  0.23667  Biso   1.000  C
  C123     1.0000 0.31943  0.06927  0.23667  Biso   1.000  C
  C124     1.0000 0.91683  0.26407  0.09667  Biso   1.000  C
  C125     1.0000 0.34723  0.08317  0.09667  Biso   1.000  C
  C126     1.0000 0.73593  0.65277  0.09667  Biso   1.000  C
  C127     1.0000 0.40260  0.41650  0.43000  Biso   1.000  C
  C128     1.0000 0.58350  0.98610  0.43000  Biso   1.000  C
  C129     1.0000 0.01390  0.59740  0.43000  Biso   1.000  C
  C130     1.0000 0.41650  0.40260  0.57000  Biso   1.000  C
  C131     1.0000 0.98610  0.58350  0.57000  Biso   1.000  C
  C132     1.0000 0.59740  0.01390  0.57000  Biso   1.000  C
  C133     1.0000 0.06927  0.74983  0.76333  Biso   1.000  C
  C134     1.0000 0.25017  0.31943  0.76333  Biso   1.000  C
  C135     1.0000 0.68057  0.93073  0.76333  Biso   1.000  C
  C136     1.0000 0.08317  0.73593  0.90333  Biso   1.000  C
  C137     1.0000 0.65277  0.91683  0.90333  Biso   1.000  C
  C138     1.0000 0.26407  0.34723  0.90333  Biso   1.000  C
  C139     1.0000 0.73593  0.08317  0.09667  Biso   1.000  C
  C140     1.0000 0.91683  0.65277  0.09667  Biso   1.000  C
  C141     1.0000 0.34723  0.26407  0.09667  Biso   1.000  C
  C142     1.0000 0.74983  0.06927  0.23667  Biso   1.000  C
  C143     1.0000 0.31943  0.25017  0.23667  Biso   1.000  C
  C144     1.0000 0.93073  0.68057  0.23667  Biso   1.000  C
  C145     1.0000 0.57350  0.54750  0.64300  Biso   1.000  C
  C146     1.0000 0.45250  0.02600  0.64300  Biso   1.000  C
  C147     1.0000 0.97400  0.42650  0.64300  Biso   1.000  C
  C148     1.0000 0.54750  0.57350  0.35700  Biso   1.000  C
  C149     1.0000 0.02600  0.45250  0.35700  Biso   1.000  C
  C150     1.0000 0.42650  0.97400  0.35700  Biso   1.000  C
  C151     1.0000 0.24017  0.88083  0.97633  Biso   1.000  C
  C152     1.0000 0.11917  0.35933  0.97633  Biso   1.000  C
  C153     1.0000 0.64067  0.75983  0.97633  Biso   1.000  C
  C154     1.0000 0.21417  0.90683  0.69033  Biso   1.000  C
  C155     1.0000 0.69267  0.78583  0.69033  Biso   1.000  C
  C156     1.0000 0.09317  0.30733  0.69033  Biso   1.000  C
  C157     1.0000 0.90683  0.21417  0.30967  Biso   1.000  C
  C158     1.0000 0.78583  0.69267  0.30967  Biso   1.000  C
  C159     1.0000 0.30733  0.09317  0.30967  Biso   1.000  C
  C160     1.0000 0.88083  0.24017  0.02367  Biso   1.000  C
  C161     1.0000 0.35933  0.11917  0.02367  Biso   1.000  C
  C162     1.0000 0.75983  0.64067  0.02367  Biso   1.000  C
  C163     1.0000 0.42650  0.45250  0.35700  Biso   1.000  C
  C164     1.0000 0.54750  0.97400  0.35700  Biso   1.000  C
  C165     1.0000 0.02600  0.57350  0.35700  Biso   1.000  C
  C166     1.0000 0.45250  0.42650  0.64300  Biso   1.000  C
  C167     1.0000 0.97400  0.54750  0.64300  Biso   1.000  C
  C168     1.0000 0.57350  0.02600  0.64300  Biso   1.000  C
  C169     1.0000 0.09317  0.78583  0.69033  Biso   1.000  C
  C170     1.0000 0.21417  0.30733  0.69033  Biso   1.000  C
  C171     1.0000 0.69267  0.90683  0.69033  Biso   1.000  C
  C172     1.0000 0.11917  0.75983  0.97633  Biso   1.000  C
  C173     1.0000 0.64067  0.88083  0.97633  Biso   1.000  C
  C174     1.0000 0.24017  0.35933  0.97633  Biso   1.000  C
  C175     1.0000 0.75983  0.11917  0.02367  Biso   1.000  C
  C176     1.0000 0.88083  0.64067  0.02367  Biso   1.000  C
  C177     1.0000 0.35933  0.24017  0.02367  Biso   1.000  C
  C178     1.0000 0.78583  0.09317  0.30967  Biso   1.000  C
  C179     1.0000 0.30733  0.21417  0.30967  Biso   1.000  C
  C180     1.0000 0.90683  0.69267  0.30967  Biso   1.000  C
  H37      1.0000 0.58065  0.53987  0.74400  Biso   1.000  H
  H38      1.0000 0.46013  0.04078  0.74400  Biso   1.000  H
  H39      1.0000 0.95922  0.41935  0.74400  Biso   1.000  H
  H40      1.0000 0.53987  0.58065  0.25600  Biso   1.000  H
  H41      1.0000 0.04078  0.46013  0.25600  Biso   1.000  H
  H42      1.0000 0.41935  0.95922  0.25600  Biso   1.000  H
  H43      1.0000 0.24732  0.87320  0.07733  Biso   1.000  H
  H44      1.0000 0.12680  0.37411  0.07733  Biso   1.000  H
  H45      1.0000 0.62589  0.75268  0.07733  Biso   1.000  H
  H46      1.0000 0.20654  0.91398  0.58933  Biso   1.000  H
  H47      1.0000 0.70745  0.79346  0.58933  Biso   1.000  H
  H48      1.0000 0.08602  0.29255  0.58933  Biso   1.000  H
  H49      1.0000 0.91398  0.20654  0.41067  Biso   1.000  H
  H50      1.0000 0.79346  0.70745  0.41067  Biso   1.000  H
  H51      1.0000 0.29255  0.08602  0.41067  Biso   1.000  H
  H52      1.0000 0.87320  0.24732  0.92267  Biso   1.000  H
  H53      1.0000 0.37411  0.12680  0.92267  Biso   1.000  H
  H54      1.0000 0.75268  0.62589  0.92267  Biso   1.000  H
  H55      1.0000 0.41935  0.46013  0.25600  Biso   1.000  H
  H56      1.0000 0.53987  0.95922  0.25600  Biso   1.000  H
  H57      1.0000 0.04078  0.58065  0.25600  Biso   1.000  H
  H58      1.0000 0.46013  0.41935  0.74400  Biso   1.000  H
  H59      1.0000 0.95922  0.53987  0.74400  Biso   1.000  H
  H60      1.0000 0.58065  0.04078  0.74400  Biso   1.000  H
  H61      1.0000 0.08602  0.79346  0.58933  Biso   1.000  H
  H62      1.0000 0.20654  0.29255  0.58933  Biso   1.000  H
  H63      1.0000 0.70745  0.91398  0.58933  Biso   1.000  H
  H64      1.0000 0.12680  0.75268  0.07733  Biso   1.000  H
  H65      1.0000 0.62589  0.87320  0.07733  Biso   1.000  H
  H66      1.0000 0.24732  0.37411  0.07733  Biso   1.000  H
  H67      1.0000 0.75268  0.12680  0.92267  Biso   1.000  H
  H68      1.0000 0.87320  0.62589  0.92267  Biso   1.000  H
  H69      1.0000 0.37411  0.24732  0.92267  Biso   1.000  H
  H70      1.0000 0.79346  0.08602  0.41067  Biso   1.000  H
  H71      1.0000 0.29255  0.20654  0.41067  Biso   1.000  H
  H72      1.0000 0.91398  0.70745  0.41067  Biso   1.000  H
  C181     1.0000 0.53920  0.52380  0.56400  Biso   1.000  C
  C182     1.0000 0.47620  0.01540  0.56400  Biso   1.000  C
  C183     1.0000 0.98460  0.46080  0.56400  Biso   1.000  C
  C184     1.0000 0.52380  0.53920  0.43600  Biso   1.000  C
  C185     1.0000 0.01540  0.47620  0.43600  Biso   1.000  C
  C186     1.0000 0.46080  0.98460  0.43600  Biso   1.000  C
  C187     1.0000 0.20587  0.85713  0.89733  Biso   1.000  C
  C188     1.0000 0.14287  0.34873  0.89733  Biso   1.000  C
  C189     1.0000 0.65127  0.79413  0.89733  Biso   1.000  C
  C190     1.0000 0.19047  0.87253  0.76933  Biso   1.000  C
  C191     1.0000 0.68207  0.80953  0.76933  Biso   1.000  C
  C192     1.0000 0.12747  0.31793  0.76933  Biso   1.000  C
  C193     1.0000 0.87253  0.19047  0.23067  Biso   1.000  C
  C194     1.0000 0.80953  0.68207  0.23067  Biso   1.000  C
  C195     1.0000 0.31793  0.12747  0.23067  Biso   1.000  C
  C196     1.0000 0.85713  0.20587  0.10267  Biso   1.000  C
  C197     1.0000 0.34873  0.14287  0.10267  Biso   1.000  C
  C198     1.0000 0.79413  0.65127  0.10267  Biso   1.000  C
  C199     1.0000 0.46080  0.47620  0.43600  Biso   1.000  C
  C200     1.0000 0.52380  0.98460  0.43600  Biso   1.000  C
  C201     1.0000 0.01540  0.53920  0.43600  Biso   1.000  C
  C202     1.0000 0.47620  0.46080  0.56400  Biso   1.000  C
  C203     1.0000 0.98460  0.52380  0.56400  Biso   1.000  C
  C204     1.0000 0.53920  0.01540  0.56400  Biso   1.000  C
  C205     1.0000 0.12747  0.80953  0.76933  Biso   1.000  C
  C206     1.0000 0.19047  0.31793  0.76933  Biso   1.000  C
  C207     1.0000 0.68207  0.87253  0.76933  Biso   1.000  C
  C208     1.0000 0.14287  0.79413  0.89733  Biso   1.000  C
  C209     1.0000 0.65127  0.85713  0.89733  Biso   1.000  C
  C210     1.0000 0.20587  0.34873  0.89733  Biso   1.000  C
  C211     1.0000 0.79413  0.14287  0.10267  Biso   1.000  C
  C212     1.0000 0.85713  0.65127  0.10267  Biso   1.000  C
  C213     1.0000 0.34873  0.20587  0.10267  Biso   1.000  C
  C214     1.0000 0.80953  0.12747  0.23067  Biso   1.000  C
  C215     1.0000 0.31793  0.19047  0.23067  Biso   1.000  C
  C216     1.0000 0.87253  0.68207  0.23067  Biso   1.000  C
  O19      1.0000 0.51430  0.48570  0.62700  Biso   1.000  O
  O20      1.0000 0.51430  0.02860  0.62700  Biso   1.000  O
  O21      1.0000 0.97140  0.48570  0.62700  Biso   1.000  O
  O22      1.0000 0.48570  0.51430  0.37300  Biso   1.000  O
  O23      1.0000 0.02860  0.51430  0.37300  Biso   1.000  O
  O24      1.0000 0.48570  0.97140  0.37300  Biso   1.000  O
  O25      1.0000 0.18097  0.81903  0.96033  Biso   1.000  O
  O26      1.0000 0.18097  0.36193  0.96033  Biso   1.000  O
  O27      1.0000 0.63807  0.81903  0.96033  Biso   1.000  O
  O28      1.0000 0.15237  0.84763  0.70633  Biso   1.000  O
  O29      1.0000 0.69527  0.84763  0.70633  Biso   1.000  O
  O30      1.0000 0.15237  0.30473  0.70633  Biso   1.000  O
  O31      1.0000 0.84763  0.15237  0.29367  Biso   1.000  O
  O32      1.0000 0.84763  0.69527  0.29367  Biso   1.000  O
  O33      1.0000 0.30473  0.15237  0.29367  Biso   1.000  O
  O34      1.0000 0.81903  0.18097  0.03967  Biso   1.000  O
  O35      1.0000 0.36193  0.18097  0.03967  Biso   1.000  O
  O36      1.0000 0.81903  0.63807  0.03967  Biso   1.000  O
