data_image0
_cell_length_a       37.82
_cell_length_b       37.82
_cell_length_c       8.0074
_cell_angle_alpha    90
_cell_angle_beta     90
_cell_angle_gamma    120

_symmetry_space_group_name_H-M    "P 1"
_symmetry_int_tables_number       1

loop_
  _symmetry_equiv_pos_as_xyz
  'x, y, z'

loop_
  _atom_site_label
  _atom_site_occupancy
  _atom_site_fract_x
  _atom_site_fract_y
  _atom_site_fract_z
  _atom_site_thermal_displace_type
  _atom_site_B_iso_or_equiv
  _atom_site_type_symbol
  Cu1      1.0000 0.36722  0.03389  0.83333  Biso   1.000  Cu
  Cu2      1.0000 0.96611  0.33333  0.83333  Biso   1.000  Cu
  Cu3      1.0000 0.66667  0.63278  0.83333  Biso   1.000  Cu
  Cu4      1.0000 0.03389  0.36722  0.16667  Biso   1.000  Cu
  Cu5      1.0000 0.33333  0.96611  0.16667  Biso   1.000  Cu
  Cu6      1.0000 0.63278  0.66667  0.16667  Biso   1.000  Cu
  Cu7      1.0000 0.70056  0.70055  0.50000  Biso   1.000  Cu
  Cu8      1.0000 1.00000  0.29944  0.50000  Biso   1.000  Cu
  Cu9      1.0000 0.29945  0.00000  0.50000  Biso   1.000  Cu
  Cu10     1.0000 0.63278  0.96611  0.16667  Biso   1.000  Cu
  Cu11     1.0000 0.03389  0.66667  0.16667  Biso   1.000  Cu
  Cu12     1.0000 0.33333  0.36722  0.16667  Biso   1.000  Cu
  Cu13     1.0000 0.96611  0.63278  0.83333  Biso   1.000  Cu
  Cu14     1.0000 0.66667  0.03389  0.83333  Biso   1.000  Cu
  Cu15     1.0000 0.36722  0.33333  0.83333  Biso   1.000  Cu
  Cu16     1.0000 0.29945  0.29944  0.50000  Biso   1.000  Cu
  Cu17     1.0000 0.70056  0.00000  0.50000  Biso   1.000  Cu
  Cu18     1.0000 1.00000  0.70055  0.50000  Biso   1.000  Cu
  Cl1      1.0000 0.39410  0.00000  0.00000  Biso   1.000  Cl
  Cl2      1.0000 0.00000  0.39410  0.00000  Biso   1.000  Cl
  Cl3      1.0000 0.60590  0.60590  0.00000  Biso   1.000  Cl
  Cl4      1.0000 0.06077  0.33333  0.33333  Biso   1.000  Cl
  Cl5      1.0000 0.66667  0.72743  0.33333  Biso   1.000  Cl
  Cl6      1.0000 0.27257  0.93923  0.33333  Biso   1.000  Cl
  Cl7      1.0000 0.72743  0.66667  0.66667  Biso   1.000  Cl
  Cl8      1.0000 0.33333  0.06077  0.66667  Biso   1.000  Cl
  Cl9      1.0000 0.93923  0.27257  0.66667  Biso   1.000  Cl
  Cl10     1.0000 0.60590  0.00000  0.00000  Biso   1.000  Cl
  Cl11     1.0000 0.00000  0.60590  0.00000  Biso   1.000  Cl
  Cl12     1.0000 0.39410  0.39410  0.00000  Biso   1.000  Cl
  Cl13     1.0000 0.27257  0.33333  0.33333  Biso   1.000  Cl
  Cl14     1.0000 0.66667  0.93923  0.33333  Biso   1.000  Cl
  Cl15     1.0000 0.06077  0.72743  0.33333  Biso   1.000  Cl
  Cl16     1.0000 0.93923  0.66667  0.66667  Biso   1.000  Cl
  Cl17     1.0000 0.33333  0.27257  0.66667  Biso   1.000  Cl
  Cl18     1.0000 0.72743  0.06077  0.66667  Biso   1.000  Cl
  O1       1.0000 0.41610  0.08280  0.83333  Biso   1.000  O
  O2       1.0000 0.91720  0.33330  0.83333  Biso   1.000  O
  O3       1.0000 0.66670  0.58390  0.83333  Biso   1.000  O
  O4       1.0000 0.08280  0.41610  0.16667  Biso   1.000  O
  O5       1.0000 0.33330  0.91720  0.16667  Biso   1.000  O
  O6       1.0000 0.58390  0.66670  0.16667  Biso   1.000  O
  O7       1.0000 0.74947  0.74943  0.50000  Biso   1.000  O
  O8       1.0000 0.99997  0.25053  0.50000  Biso   1.000  O
  O9       1.0000 0.25057  0.00003  0.50000  Biso   1.000  O
  O10      1.0000 0.58390  0.91720  0.16667  Biso   1.000  O
  O11      1.0000 0.08280  0.66670  0.16667  Biso   1.000  O
  O12      1.0000 0.33330  0.41610  0.16667  Biso   1.000  O
  O13      1.0000 0.91720  0.58390  0.83333  Biso   1.000  O
  O14      1.0000 0.66670  0.08280  0.83333  Biso   1.000  O
  O15      1.0000 0.41610  0.33330  0.83333  Biso   1.000  O
  O16      1.0000 0.25057  0.25053  0.50000  Biso   1.000  O
  O17      1.0000 0.74947  0.00003  0.50000  Biso   1.000  O
  O18      1.0000 0.99997  0.74943  0.50000  Biso   1.000  O
  N1       1.0000 0.31290  0.97960  0.83333  Biso   1.000  N
  N2       1.0000 0.02040  0.33330  0.83333  Biso   1.000  N
  N3       1.0000 0.66670  0.68710  0.83333  Biso   1.000  N
  N4       1.0000 0.97960  0.31290  0.16667  Biso   1.000  N
  N5       1.0000 0.33330  0.02040  0.16667  Biso   1.000  N
  N6       1.0000 0.68710  0.66670  0.16667  Biso   1.000  N
  N7       1.0000 0.64627  0.64623  0.50000  Biso   1.000  N
  N8       1.0000 0.99997  0.35373  0.50000  Biso   1.000  N
  N9       1.0000 0.35377  0.00003  0.50000  Biso   1.000  N
  N10      1.0000 0.68710  0.02040  0.16667  Biso   1.000  N
  N11      1.0000 0.97960  0.66670  0.16667  Biso   1.000  N
  N12      1.0000 0.33330  0.31290  0.16667  Biso   1.000  N
  N13      1.0000 0.02040  0.68710  0.83333  Biso   1.000  N
  N14      1.0000 0.66670  0.97960  0.83333  Biso   1.000  N
  N15      1.0000 0.31290  0.33330  0.83333  Biso   1.000  N
  N16      1.0000 0.35377  0.35373  0.50000  Biso   1.000  N
  N17      1.0000 0.64627  0.00003  0.50000  Biso   1.000  N
  N18      1.0000 0.99997  0.64623  0.50000  Biso   1.000  N
  N19      1.0000 0.28540  0.96860  0.72100  Biso   1.000  N
  N20      1.0000 0.03140  0.31680  0.72100  Biso   1.000  N
  N21      1.0000 0.68320  0.71460  0.72100  Biso   1.000  N
  N22      1.0000 0.96860  0.28540  0.27900  Biso   1.000  N
  N23      1.0000 0.31680  0.03140  0.27900  Biso   1.000  N
  N24      1.0000 0.71460  0.68320  0.27900  Biso   1.000  N
  N25      1.0000 0.95207  0.30193  0.05433  Biso   1.000  N
  N26      1.0000 0.69807  0.65013  0.05433  Biso   1.000  N
  N27      1.0000 0.34987  0.04793  0.05433  Biso   1.000  N
  N28      1.0000 0.63527  0.61873  0.61233  Biso   1.000  N
  N29      1.0000 0.98347  0.36473  0.61233  Biso   1.000  N
  N30      1.0000 0.38127  0.01653  0.61233  Biso   1.000  N
  N31      1.0000 0.61873  0.63527  0.38767  Biso   1.000  N
  N32      1.0000 0.36473  0.98347  0.38767  Biso   1.000  N
  N33      1.0000 0.01653  0.38127  0.38767  Biso   1.000  N
  N34      1.0000 0.30193  0.95207  0.94567  Biso   1.000  N
  N35      1.0000 0.65013  0.69807  0.94567  Biso   1.000  N
  N36      1.0000 0.04793  0.34987  0.94567  Biso   1.000  N
  N37      1.0000 0.71460  0.03140  0.27900  Biso   1.000  N
  N38      1.0000 0.96860  0.68320  0.27900  Biso   1.000  N
  N39      1.0000 0.31680  0.28540  0.27900  Biso   1.000  N
  N40      1.0000 0.03140  0.71460  0.72100  Biso   1.000  N
  N41      1.0000 0.68320  0.96860  0.72100  Biso   1.000  N
  N42      1.0000 0.28540  0.31680  0.72100  Biso   1.000  N
  N43      1.0000 0.38127  0.36473  0.61233  Biso   1.000  N
  N44      1.0000 0.63527  0.01653  0.61233  Biso   1.000  N
  N45      1.0000 0.98347  0.61873  0.61233  Biso   1.000  N
  N46      1.0000 0.69807  0.04793  0.05433  Biso   1.000  N
  N47      1.0000 0.34987  0.30193  0.05433  Biso   1.000  N
  N48      1.0000 0.95207  0.65013  0.05433  Biso   1.000  N
  N49      1.0000 0.04793  0.69807  0.94567  Biso   1.000  N
  N50      1.0000 0.30193  0.34987  0.94567  Biso   1.000  N
  N51      1.0000 0.65013  0.95207  0.94567  Biso   1.000  N
  N52      1.0000 0.36473  0.38127  0.38767  Biso   1.000  N
  N53      1.0000 0.01653  0.63527  0.38767  Biso   1.000  N
  N54      1.0000 0.61873  0.98347  0.38767  Biso   1.000  N
  C1       1.0000 0.25190  0.93390  0.76600  Biso   1.000  C
  C2       1.0000 0.06610  0.31800  0.76600  Biso   1.000  C
  C3       1.0000 0.68200  0.74810  0.76600  Biso   1.000  C
  C4       1.0000 0.93390  0.25190  0.23400  Biso   1.000  C
  C5       1.0000 0.31800  0.06610  0.23400  Biso   1.000  C
  C6       1.0000 0.74810  0.68200  0.23400  Biso   1.000  C
  C7       1.0000 0.91857  0.26723  0.09933  Biso   1.000  C
  C8       1.0000 0.73277  0.65133  0.09933  Biso   1.000  C
  C9       1.0000 0.34867  0.08143  0.09933  Biso   1.000  C
  C10      1.0000 0.60057  0.58523  0.56733  Biso   1.000  C
  C11      1.0000 0.98467  0.39943  0.56733  Biso   1.000  C
  C12      1.0000 0.41477  0.01533  0.56733  Biso   1.000  C
  C13      1.0000 0.58523  0.60057  0.43267  Biso   1.000  C
  C14      1.0000 0.39943  0.98467  0.43267  Biso   1.000  C
  C15      1.0000 0.01533  0.41477  0.43267  Biso   1.000  C
  C16      1.0000 0.26723  0.91857  0.90067  Biso   1.000  C
  C17      1.0000 0.65133  0.73277  0.90067  Biso   1.000  C
  C18      1.0000 0.08143  0.34867  0.90067  Biso   1.000  C
  C19      1.0000 0.74810  0.06610  0.23400  Biso   1.000  C
  C20      1.0000 0.93390  0.68200  0.23400  Biso   1.000  C
  C21      1.0000 0.31800  0.25190  0.23400  Biso   1.000  C
  C22      1.0000 0.06610  0.74810  0.76600  Biso   1.000  C
  C23      1.0000 0.68200  0.93390  0.76600  Biso   1.000  C
  C24      1.0000 0.25190  0.31800  0.76600  Biso   1.000  C
  C25      1.0000 0.41477  0.39943  0.56733  Biso   1.000  C
  C26      1.0000 0.60057  0.01533  0.56733  Biso   1.000  C
  C27      1.0000 0.98467  0.58523  0.56733  Biso   1.000  C
  C28      1.0000 0.73277  0.08143  0.09933  Biso   1.000  C
  C29      1.0000 0.34867  0.26723  0.09933  Biso   1.000  C
  C30      1.0000 0.91857  0.65133  0.09933  Biso   1.000  C
  C31      1.0000 0.08143  0.73277  0.90067  Biso   1.000  C
  C32      1.0000 0.26723  0.34867  0.90067  Biso   1.000  C
  C33      1.0000 0.65133  0.91857  0.90067  Biso   1.000  C
  C34      1.0000 0.39943  0.41477  0.43267  Biso   1.000  C
  C35      1.0000 0.01533  0.60057  0.43267  Biso   1.000  C
  C36      1.0000 0.58523  0.98467  0.43267  Biso   1.000  C
  C37      1.0000 0.21370  0.90820  0.69600  Biso   1.000  C
  C38      1.0000 0.09180  0.30550  0.69600  Biso   1.000  C
  C39      1.0000 0.69450  0.78630  0.69600  Biso   1.000  C
  C40      1.0000 0.90820  0.21370  0.30400  Biso   1.000  C
  C41      1.0000 0.30550  0.09180  0.30400  Biso   1.000  C
  C42      1.0000 0.78630  0.69450  0.30400  Biso   1.000  C
  C43      1.0000 0.88037  0.24153  0.02933  Biso   1.000  C
  C44      1.0000 0.75847  0.63883  0.02933  Biso   1.000  C
  C45      1.0000 0.36117  0.11963  0.02933  Biso   1.000  C
  C46      1.0000 0.57487  0.54703  0.63733  Biso   1.000  C
  C47      1.0000 0.97217  0.42513  0.63733  Biso   1.000  C
  C48      1.0000 0.45297  0.02783  0.63733  Biso   1.000  C
  C49      1.0000 0.54703  0.57487  0.36267  Biso   1.000  C
  C50      1.0000 0.42513  0.97217  0.36267  Biso   1.000  C
  C51      1.0000 0.02783  0.45297  0.36267  Biso   1.000  C
  C52      1.0000 0.24153  0.88037  0.97067  Biso   1.000  C
  C53      1.0000 0.63883  0.75847  0.97067  Biso   1.000  C
  C54      1.0000 0.11963  0.36117  0.97067  Biso   1.000  C
  C55      1.0000 0.78630  0.09180  0.30400  Biso   1.000  C
  C56      1.0000 0.90820  0.69450  0.30400  Biso   1.000  C
  C57      1.0000 0.30550  0.21370  0.30400  Biso   1.000  C
  C58      1.0000 0.09180  0.78630  0.69600  Biso   1.000  C
  C59      1.0000 0.69450  0.90820  0.69600  Biso   1.000  C
  C60      1.0000 0.21370  0.30550  0.69600  Biso   1.000  C
  C61      1.0000 0.45297  0.42513  0.63733  Biso   1.000  C
  C62      1.0000 0.57487  0.02783  0.63733  Biso   1.000  C
  C63      1.0000 0.97217  0.54703  0.63733  Biso   1.000  C
  C64      1.0000 0.75847  0.11963  0.02933  Biso   1.000  C
  C65      1.0000 0.36117  0.24153  0.02933  Biso   1.000  C
  C66      1.0000 0.88037  0.63883  0.02933  Biso   1.000  C
  C67      1.0000 0.11963  0.75847  0.97067  Biso   1.000  C
  C68      1.0000 0.24153  0.36117  0.97067  Biso   1.000  C
  C69      1.0000 0.63883  0.88037  0.97067  Biso   1.000  C
  C70      1.0000 0.42513  0.45297  0.36267  Biso   1.000  C
  C71      1.0000 0.02783  0.57487  0.36267  Biso   1.000  C
  C72      1.0000 0.54703  0.97217  0.36267  Biso   1.000  C
  H1       1.0000 0.20566  0.91389  0.59149  Biso   1.000  H
  H2       1.0000 0.08611  0.29177  0.59149  Biso   1.000  H
  H3       1.0000 0.70823  0.79434  0.59149  Biso   1.000  H
  H4       1.0000 0.91389  0.20566  0.40851  Biso   1.000  H
  H5       1.0000 0.29177  0.08611  0.40851  Biso   1.000  H
  H6       1.0000 0.79434  0.70823  0.40851  Biso   1.000  H
  H7       1.0000 0.87233  0.24722  0.92482  Biso   1.000  H
  H8       1.0000 0.75278  0.62510  0.92482  Biso   1.000  H
  H9       1.0000 0.37490  0.12767  0.92482  Biso   1.000  H
  H10      1.0000 0.58056  0.53899  0.74184  Biso   1.000  H
  H11      1.0000 0.95844  0.41944  0.74184  Biso   1.000  H
  H12      1.0000 0.46101  0.04156  0.74184  Biso   1.000  H
  H13      1.0000 0.53899  0.58056  0.25816  Biso   1.000  H
  H14      1.0000 0.41944  0.95844  0.25816  Biso   1.000  H
  H15      1.0000 0.04156  0.46101  0.25816  Biso   1.000  H
  H16      1.0000 0.24722  0.87233  0.07518  Biso   1.000  H
  H17      1.0000 0.62510  0.75278  0.07518  Biso   1.000  H
  H18      1.0000 0.12767  0.37490  0.07518  Biso   1.000  H
  H19      1.0000 0.79434  0.08611  0.40851  Biso   1.000  H
  H20      1.0000 0.91389  0.70823  0.40851  Biso   1.000  H
  H21      1.0000 0.29177  0.20566  0.40851  Biso   1.000  H
  H22      1.0000 0.08611  0.79434  0.59149  Biso   1.000  H
  H23      1.0000 0.70823  0.91389  0.59149  Biso   1.000  H
  H24      1.0000 0.20566  0.29177  0.59149  Biso   1.000  H
  H25      1.0000 0.46101  0.41944  0.74184  Biso   1.000  H
  H26      1.0000 0.58056  0.04156  0.74184  Biso   1.000  H
  H27      1.0000 0.95844  0.53899  0.74184  Biso   1.000  H
  H28      1.0000 0.75278  0.12767  0.92482  Biso   1.000  H
  H29      1.0000 0.37490  0.24722  0.92482  Biso   1.000  H
  H30      1.0000 0.87233  0.62510  0.92482  Biso   1.000  H
  H31      1.0000 0.12767  0.75278  0.07518  Biso   1.000  H
  H32      1.0000 0.24722  0.37490  0.07518  Biso   1.000  H
  H33      1.0000 0.62510  0.87233  0.07518  Biso   1.000  H
  H34      1.0000 0.41944  0.46101  0.25816  Biso   1.000  H
  H35      1.0000 0.04156  0.58056  0.25816  Biso   1.000  H
  H36      1.0000 0.53899  0.95844  0.25816  Biso   1.000  H
  C73      1.0000 0.18810  0.87360  0.78800  Biso   1.000  C
  C74      1.0000 0.12640  0.31450  0.78800  Biso   1.000  C
  C75      1.0000 0.68550  0.81190  0.78800  Biso   1.000  C
  C76      1.0000 0.87360  0.18810  0.21200  Biso   1.000  C
  C77      1.0000 0.31450  0.12640  0.21200  Biso   1.000  C
  C78      1.0000 0.81190  0.68550  0.21200  Biso   1.000  C
  C79      1.0000 0.85477  0.20693  0.12133  Biso   1.000  C
  C80      1.0000 0.79307  0.64783  0.12133  Biso   1.000  C
  C81      1.0000 0.35217  0.14523  0.12133  Biso   1.000  C
  C82      1.0000 0.54027  0.52143  0.54533  Biso   1.000  C
  C83      1.0000 0.98117  0.45973  0.54533  Biso   1.000  C
  C84      1.0000 0.47857  0.01883  0.54533  Biso   1.000  C
  C85      1.0000 0.52143  0.54027  0.45467  Biso   1.000  C
  C86      1.0000 0.45973  0.98117  0.45467  Biso   1.000  C
  C87      1.0000 0.01883  0.47857  0.45467  Biso   1.000  C
  C88      1.0000 0.20693  0.85477  0.87867  Biso   1.000  C
  C89      1.0000 0.64783  0.79307  0.87867  Biso   1.000  C
  C90      1.0000 0.14523  0.35217  0.87867  Biso   1.000  C
  C91      1.0000 0.81190  0.12640  0.21200  Biso   1.000  C
  C92      1.0000 0.87360  0.68550  0.21200  Biso   1.000  C
  C93      1.0000 0.31450  0.18810  0.21200  Biso   1.000  C
  C94      1.0000 0.12640  0.81190  0.78800  Biso   1.000  C
  C95      1.0000 0.68550  0.87360  0.78800  Biso   1.000  C
  C96      1.0000 0.18810  0.31450  0.78800  Biso   1.000  C
  C97      1.0000 0.47857  0.45973  0.54533  Biso   1.000  C
  C98      1.0000 0.54027  0.01883  0.54533  Biso   1.000  C
  C99      1.0000 0.98117  0.52143  0.54533  Biso   1.000  C
  C100     1.0000 0.79307  0.14523  0.12133  Biso   1.000  C
  C101     1.0000 0.35217  0.20693  0.12133  Biso   1.000  C
  C102     1.0000 0.85477  0.64783  0.12133  Biso   1.000  C
  C103     1.0000 0.14523  0.79307  0.87867  Biso   1.000  C
  C104     1.0000 0.20693  0.35217  0.87867  Biso   1.000  C
  C105     1.0000 0.64783  0.85477  0.87867  Biso   1.000  C
  C106     1.0000 0.45973  0.47857  0.45467  Biso   1.000  C
  C107     1.0000 0.01883  0.54027  0.45467  Biso   1.000  C
  C108     1.0000 0.52143  0.98117  0.45467  Biso   1.000  C
  O19      1.0000 0.14860  0.85140  0.71800  Biso   1.000  O
  O20      1.0000 0.14860  0.29720  0.71800  Biso   1.000  O
  O21      1.0000 0.70280  0.85140  0.71800  Biso   1.000  O
  O22      1.0000 0.85140  0.14860  0.28200  Biso   1.000  O
  O23      1.0000 0.29720  0.14860  0.28200  Biso   1.000  O
  O24      1.0000 0.85140  0.70280  0.28200  Biso   1.000  O
  O25      1.0000 0.81527  0.18473  0.05133  Biso   1.000  O
  O26      1.0000 0.81527  0.63053  0.05133  Biso   1.000  O
  O27      1.0000 0.36947  0.18473  0.05133  Biso   1.000  O
  O28      1.0000 0.51807  0.48193  0.61533  Biso   1.000  O
  O29      1.0000 0.96387  0.48193  0.61533  Biso   1.000  O
  O30      1.0000 0.51807  0.03613  0.61533  Biso   1.000  O
  O31      1.0000 0.48193  0.51807  0.38467  Biso   1.000  O
  O32      1.0000 0.48193  0.96387  0.38467  Biso   1.000  O
  O33      1.0000 0.03613  0.51807  0.38467  Biso   1.000  O
  O34      1.0000 0.18473  0.81527  0.94867  Biso   1.000  O
  O35      1.0000 0.63053  0.81527  0.94867  Biso   1.000  O
  O36      1.0000 0.18473  0.36947  0.94867  Biso   1.000  O
  O37      1.0000 0.40370  0.00000  0.00000  Biso   1.000  O
  O38      1.0000 0.00000  0.40370  0.00000  Biso   1.000  O
  O39      1.0000 0.59630  0.59630  0.00000  Biso   1.000  O
  O40      1.0000 0.07037  0.33333  0.33333  Biso   1.000  O
  O41      1.0000 0.66667  0.73703  0.33333  Biso   1.000  O
  O42      1.0000 0.26297  0.92963  0.33333  Biso   1.000  O
  O43      1.0000 0.73703  0.66667  0.66667  Biso   1.000  O
  O44      1.0000 0.33333  0.07037  0.66667  Biso   1.000  O
  O45      1.0000 0.92963  0.26297  0.66667  Biso   1.000  O
  O46      1.0000 0.59630  0.00000  0.00000  Biso   1.000  O
  O47      1.0000 0.00000  0.59630  0.00000  Biso   1.000  O
  O48      1.0000 0.40370  0.40370  0.00000  Biso   1.000  O
  O49      1.0000 0.26297  0.33333  0.33333  Biso   1.000  O
  O50      1.0000 0.66667  0.92963  0.33333  Biso   1.000  O
  O51      1.0000 0.07037  0.73703  0.33333  Biso   1.000  O
  O52      1.0000 0.92963  0.66667  0.66667  Biso   1.000  O
  O53      1.0000 0.33333  0.26297  0.66667  Biso   1.000  O
  O54      1.0000 0.73703  0.07037  0.66667  Biso   1.000  O
  Cl19     1.0000 0.42606  0.09272  0.83333  Biso   1.000  Cl
  Cl20     1.0000 0.90728  0.33334  0.83333  Biso   1.000  Cl
  Cl21     1.0000 0.66666  0.57394  0.83333  Biso   1.000  Cl
  Cl22     1.0000 0.09272  0.42606  0.16667  Biso   1.000  Cl
  Cl23     1.0000 0.33334  0.90728  0.16667  Biso   1.000  Cl
  Cl24     1.0000 0.57394  0.66666  0.16667  Biso   1.000  Cl
  Cl25     1.0000 0.75939  0.75939  0.50000  Biso   1.000  Cl
  Cl26     1.0000 0.00001  0.24061  0.50000  Biso   1.000  Cl
  Cl27     1.0000 0.24061  0.99999  0.50000  Biso   1.000  Cl
  Cl28     1.0000 0.57394  0.90728  0.16667  Biso   1.000  Cl
  Cl29     1.0000 0.09272  0.66666  0.16667  Biso   1.000  Cl
  Cl30     1.0000 0.33334  0.42606  0.16667  Biso   1.000  Cl
  Cl31     1.0000 0.90728  0.57394  0.83333  Biso   1.000  Cl
  Cl32     1.0000 0.66666  0.09272  0.83333  Biso   1.000  Cl
  Cl33     1.0000 0.42606  0.33334  0.83333  Biso   1.000  Cl
  Cl34     1.0000 0.24061  0.24061  0.50000  Biso   1.000  Cl
  Cl35     1.0000 0.75939  0.99999  0.50000  Biso   1.000  Cl
  Cl36     1.0000 0.00001  0.75939  0.50000  Biso   1.000  Cl
  N55      1.0000 0.28690  0.96770  0.69800  Biso   1.000  N
  N56      1.0000 0.03230  0.31920  0.69800  Biso   1.000  N
  N57      1.0000 0.68080  0.71310  0.69800  Biso   1.000  N
  N58      1.0000 0.96770  0.28690  0.30200  Biso   1.000  N
  N59      1.0000 0.31920  0.03230  0.30200  Biso   1.000  N
  N60      1.0000 0.71310  0.68080  0.30200  Biso   1.000  N
  N61      1.0000 0.95357  0.30103  0.03133  Biso   1.000  N
  N62      1.0000 0.69897  0.65253  0.03133  Biso   1.000  N
  N63      1.0000 0.34747  0.04643  0.03133  Biso   1.000  N
  N64      1.0000 0.63437  0.62023  0.63533  Biso   1.000  N
  N65      1.0000 0.98587  0.36563  0.63533  Biso   1.000  N
  N66      1.0000 0.37977  0.01413  0.63533  Biso   1.000  N
  N67      1.0000 0.62023  0.63437  0.36467  Biso   1.000  N
  N68      1.0000 0.36563  0.98587  0.36467  Biso   1.000  N
  N69      1.0000 0.01413  0.37977  0.36467  Biso   1.000  N
  N70      1.0000 0.30103  0.95357  0.96867  Biso   1.000  N
  N71      1.0000 0.65253  0.69897  0.96867  Biso   1.000  N
  N72      1.0000 0.04643  0.34747  0.96867  Biso   1.000  N
  N73      1.0000 0.71310  0.03230  0.30200  Biso   1.000  N
  N74      1.0000 0.96770  0.68080  0.30200  Biso   1.000  N
  N75      1.0000 0.31920  0.28690  0.30200  Biso   1.000  N
  N76      1.0000 0.03230  0.71310  0.69800  Biso   1.000  N
  N77      1.0000 0.68080  0.96770  0.69800  Biso   1.000  N
  N78      1.0000 0.28690  0.31920  0.69800  Biso   1.000  N
  N79      1.0000 0.37977  0.36563  0.63533  Biso   1.000  N
  N80      1.0000 0.63437  0.01413  0.63533  Biso   1.000  N
  N81      1.0000 0.98587  0.62023  0.63533  Biso   1.000  N
  N82      1.0000 0.69897  0.04643  0.03133  Biso   1.000  N
  N83      1.0000 0.34747  0.30103  0.03133  Biso   1.000  N
  N84      1.0000 0.95357  0.65253  0.03133  Biso   1.000  N
  N85      1.0000 0.04643  0.69897  0.96867  Biso   1.000  N
  N86      1.0000 0.30103  0.34747  0.96867  Biso   1.000  N
  N87      1.0000 0.65253  0.95357  0.96867  Biso   1.000  N
  N88      1.0000 0.36563  0.37977  0.36467  Biso   1.000  N
  N89      1.0000 0.01413  0.63437  0.36467  Biso   1.000  N
  N90      1.0000 0.62023  0.98587  0.36467  Biso   1.000  N
  C109     1.0000 0.25890  0.92880  0.74300  Biso   1.000  C
  C110     1.0000 0.07120  0.33010  0.74300  Biso   1.000  C
  C111     1.0000 0.66990  0.74110  0.74300  Biso   1.000  C
  C112     1.0000 0.92880  0.25890  0.25700  Biso   1.000  C
  C113     1.0000 0.33010  0.07120  0.25700  Biso   1.000  C
  C114     1.0000 0.74110  0.66990  0.25700  Biso   1.000  C
  C115     1.0000 0.92557  0.26213  0.07633  Biso   1.000  C
  C116     1.0000 0.73787  0.66343  0.07633  Biso   1.000  C
  C117     1.0000 0.33657  0.07443  0.07633  Biso   1.000  C
  C118     1.0000 0.59547  0.59223  0.59033  Biso   1.000  C
  C119     1.0000 0.99677  0.40453  0.59033  Biso   1.000  C
  C120     1.0000 0.40777  0.00323  0.59033  Biso   1.000  C
  C121     1.0000 0.59223  0.59547  0.40967  Biso   1.000  C
  C122     1.0000 0.40453  0.99677  0.40967  Biso   1.000  C
  C123     1.0000 0.00323  0.40777  0.40967  Biso   1.000  C
  C124     1.0000 0.26213  0.92557  0.92367  Biso   1.000  C
  C125     1.0000 0.66343  0.73787  0.92367  Biso   1.000  C
  C126     1.0000 0.07443  0.33657  0.92367  Biso   1.000  C
  C127     1.0000 0.74110  0.07120  0.25700  Biso   1.000  C
  C128     1.0000 0.92880  0.66990  0.25700  Biso   1.000  C
  C129     1.0000 0.33010  0.25890  0.25700  Biso   1.000  C
  C130     1.0000 0.07120  0.74110  0.74300  Biso   1.000  C
  C131     1.0000 0.66990  0.92880  0.74300  Biso   1.000  C
  C132     1.0000 0.25890  0.33010  0.74300  Biso   1.000  C
  C133     1.0000 0.40777  0.40453  0.59033  Biso   1.000  C
  C134     1.0000 0.59547  0.00323  0.59033  Biso   1.000  C
  C135     1.0000 0.99677  0.59223  0.59033  Biso   1.000  C
  C136     1.0000 0.73787  0.07443  0.07633  Biso   1.000  C
  C137     1.0000 0.33657  0.26213  0.07633  Biso   1.000  C
  C138     1.0000 0.92557  0.66343  0.07633  Biso   1.000  C
  C139     1.0000 0.07443  0.73787  0.92367  Biso   1.000  C
  C140     1.0000 0.26213  0.33657  0.92367  Biso   1.000  C
  C141     1.0000 0.66343  0.92557  0.92367  Biso   1.000  C
  C142     1.0000 0.40453  0.40777  0.40967  Biso   1.000  C
  C143     1.0000 0.00323  0.59547  0.40967  Biso   1.000  C
  C144     1.0000 0.59223  0.99677  0.40967  Biso   1.000  C
  C145     1.0000 0.22280  0.90210  0.66000  Biso   1.000  C
  C146     1.0000 0.09790  0.32070  0.66000  Biso   1.000  C
  C147     1.0000 0.67930  0.77720  0.66000  Biso   1.000  C
  C148     1.0000 0.90210  0.22280  0.34000  Biso   1.000  C
  C149     1.0000 0.32070  0.09790  0.34000  Biso   1.000  C
  C150     1.0000 0.77720  0.67930  0.34000  Biso   1.000  C
  C151     1.0000 0.88947  0.23543  0.99333  Biso   1.000  C
  C152     1.0000 0.76457  0.65403  0.99333  Biso   1.000  C
  C153     1.0000 0.34597  0.11053  0.99333  Biso   1.000  C
  C154     1.0000 0.56877  0.55613  0.67333  Biso   1.000  C
  C155     1.0000 0.98737  0.43123  0.67333  Biso   1.000  C
  C156     1.0000 0.44387  0.01263  0.67333  Biso   1.000  C
  C157     1.0000 0.55613  0.56877  0.32667  Biso   1.000  C
  C158     1.0000 0.43123  0.98737  0.32667  Biso   1.000  C
  C159     1.0000 0.01263  0.44387  0.32667  Biso   1.000  C
  C160     1.0000 0.23543  0.88947  0.00667  Biso   1.000  C
  C161     1.0000 0.65403  0.76457  0.00667  Biso   1.000  C
  C162     1.0000 0.11053  0.34597  0.00667  Biso   1.000  C
  C163     1.0000 0.77720  0.09790  0.34000  Biso   1.000  C
  C164     1.0000 0.90210  0.67930  0.34000  Biso   1.000  C
  C165     1.0000 0.32070  0.22280  0.34000  Biso   1.000  C
  C166     1.0000 0.09790  0.77720  0.66000  Biso   1.000  C
  C167     1.0000 0.67930  0.90210  0.66000  Biso   1.000  C
  C168     1.0000 0.22280  0.32070  0.66000  Biso   1.000  C
  C169     1.0000 0.44387  0.43123  0.67333  Biso   1.000  C
  C170     1.0000 0.56877  0.01263  0.67333  Biso   1.000  C
  C171     1.0000 0.98737  0.55613  0.67333  Biso   1.000  C
  C172     1.0000 0.76457  0.11053  0.99333  Biso   1.000  C
  C173     1.0000 0.34597  0.23543  0.99333  Biso   1.000  C
  C174     1.0000 0.88947  0.65403  0.99333  Biso   1.000  C
  C175     1.0000 0.11053  0.76457  0.00667  Biso   1.000  C
  C176     1.0000 0.23543  0.34597  0.00667  Biso   1.000  C
  C177     1.0000 0.65403  0.88947  0.00667  Biso   1.000  C
  C178     1.0000 0.43123  0.44387  0.32667  Biso   1.000  C
  C179     1.0000 0.01263  0.56877  0.32667  Biso   1.000  C
  C180     1.0000 0.55613  0.98737  0.32667  Biso   1.000  C
  H37      1.0000 0.21657  0.90981  0.55588  Biso   1.000  H
  H38      1.0000 0.09019  0.30676  0.55588  Biso   1.000  H
  H39      1.0000 0.69324  0.78343  0.55588  Biso   1.000  H
  H40      1.0000 0.90981  0.21657  0.44412  Biso   1.000  H
  H41      1.0000 0.30676  0.09019  0.44412  Biso   1.000  H
  H42      1.0000 0.78343  0.69324  0.44412  Biso   1.000  H
  H43      1.0000 0.88324  0.24314  0.88921  Biso   1.000  H
  H44      1.0000 0.75686  0.64009  0.88921  Biso   1.000  H
  H45      1.0000 0.35991  0.11676  0.88921  Biso   1.000  H
  H46      1.0000 0.57648  0.54990  0.77745  Biso   1.000  H
  H47      1.0000 0.97343  0.42352  0.77745  Biso   1.000  H
  H48      1.0000 0.45010  0.02657  0.77745  Biso   1.000  H
  H49      1.0000 0.54990  0.57648  0.22255  Biso   1.000  H
  H50      1.0000 0.42352  0.97343  0.22255  Biso   1.000  H
  H51      1.0000 0.02657  0.45010  0.22255  Biso   1.000  H
  H52      1.0000 0.24314  0.88324  0.11079  Biso   1.000  H
  H53      1.0000 0.64009  0.75686  0.11079  Biso   1.000  H
  H54      1.0000 0.11676  0.35991  0.11079  Biso   1.000  H
  H55      1.0000 0.78343  0.09019  0.44412  Biso   1.000  H
  H56      1.0000 0.90981  0.69324  0.44412  Biso   1.000  H
  H57      1.0000 0.30676  0.21657  0.44412  Biso   1.000  H
  H58      1.0000 0.09019  0.78343  0.55588  Biso   1.000  H
  H59      1.0000 0.69324  0.90981  0.55588  Biso   1.000  H
  H60      1.0000 0.21657  0.30676  0.55588  Biso   1.000  H
  H61      1.0000 0.45010  0.42352  0.77745  Biso   1.000  H
  H62      1.0000 0.57648  0.02657  0.77745  Biso   1.000  H
  H63      1.0000 0.97343  0.54990  0.77745  Biso   1.000  H
  H64      1.0000 0.75686  0.11676  0.88921  Biso   1.000  H
  H65      1.0000 0.35991  0.24314  0.88921  Biso   1.000  H
  H66      1.0000 0.88324  0.64009  0.88921  Biso   1.000  H
  H67      1.0000 0.11676  0.75686  0.11079  Biso   1.000  H
  H68      1.0000 0.24314  0.35991  0.11079  Biso   1.000  H
  H69      1.0000 0.64009  0.88324  0.11079  Biso   1.000  H
  H70      1.0000 0.42352  0.45010  0.22255  Biso   1.000  H
  H71      1.0000 0.02657  0.57648  0.22255  Biso   1.000  H
  H72      1.0000 0.54990  0.97343  0.22255  Biso   1.000  H
  C181     1.0000 0.19590  0.86450  0.72900  Biso   1.000  C
  C182     1.0000 0.13550  0.33140  0.72900  Biso   1.000  C
  C183     1.0000 0.66860  0.80410  0.72900  Biso   1.000  C
  C184     1.0000 0.86450  0.19590  0.27100  Biso   1.000  C
  C185     1.0000 0.33140  0.13550  0.27100  Biso   1.000  C
  C186     1.0000 0.80410  0.66860  0.27100  Biso   1.000  C
  C187     1.0000 0.86257  0.19783  0.06233  Biso   1.000  C
  C188     1.0000 0.80217  0.66473  0.06233  Biso   1.000  C
  C189     1.0000 0.33527  0.13743  0.06233  Biso   1.000  C
  C190     1.0000 0.53117  0.52923  0.60433  Biso   1.000  C
  C191     1.0000 0.99807  0.46883  0.60433  Biso   1.000  C
  C192     1.0000 0.47077  0.00193  0.60433  Biso   1.000  C
  C193     1.0000 0.52923  0.53117  0.39567  Biso   1.000  C
  C194     1.0000 0.46883  0.99807  0.39567  Biso   1.000  C
  C195     1.0000 0.00193  0.47077  0.39567  Biso   1.000  C
  C196     1.0000 0.19783  0.86257  0.93767  Biso   1.000  C
  C197     1.0000 0.66473  0.80217  0.93767  Biso   1.000  C
  C198     1.0000 0.13743  0.33527  0.93767  Biso   1.000  C
  C199     1.0000 0.80410  0.13550  0.27100  Biso   1.000  C
  C200     1.0000 0.86450  0.66860  0.27100  Biso   1.000  C
  C201     1.0000 0.33140  0.19590  0.27100  Biso   1.000  C
  C202     1.0000 0.13550  0.80410  0.72900  Biso   1.000  C
  C203     1.0000 0.66860  0.86450  0.72900  Biso   1.000  C
  C204     1.0000 0.19590  0.33140  0.72900  Biso   1.000  C
  C205     1.0000 0.47077  0.46883  0.60433  Biso   1.000  C
  C206     1.0000 0.53117  0.00193  0.60433  Biso   1.000  C
  C207     1.0000 0.99807  0.52923  0.60433  Biso   1.000  C
  C208     1.0000 0.80217  0.13743  0.06233  Biso   1.000  C
  C209     1.0000 0.33527  0.19783  0.06233  Biso   1.000  C
  C210     1.0000 0.86257  0.66473  0.06233  Biso   1.000  C
  C211     1.0000 0.13743  0.80217  0.93767  Biso   1.000  C
  C212     1.0000 0.19783  0.33527  0.93767  Biso   1.000  C
  C213     1.0000 0.66473  0.86257  0.93767  Biso   1.000  C
  C214     1.0000 0.46883  0.47077  0.39567  Biso   1.000  C
  C215     1.0000 0.00193  0.53117  0.39567  Biso   1.000  C
  C216     1.0000 0.52923  0.99807  0.39567  Biso   1.000  C
  O55      1.0000 0.16350  0.83650  0.64400  Biso   1.000  O
  O56      1.0000 0.16350  0.32700  0.64400  Biso   1.000  O
  O57      1.0000 0.67300  0.83650  0.64400  Biso   1.000  O
  O58      1.0000 0.83650  0.16350  0.35600  Biso   1.000  O
  O59      1.0000 0.32700  0.16350  0.35600  Biso   1.000  O
  O60      1.0000 0.83650  0.67300  0.35600  Biso   1.000  O
  O61      1.0000 0.83017  0.16983  0.97733  Biso   1.000  O
  O62      1.0000 0.83017  0.66033  0.97733  Biso   1.000  O
  O63      1.0000 0.33967  0.16983  0.97733  Biso   1.000  O
  O64      1.0000 0.50317  0.49683  0.68933  Biso   1.000  O
  O65      1.0000 0.99367  0.49683  0.68933  Biso   1.000  O
  O66      1.0000 0.50317  0.00633  0.68933  Biso   1.000  O
  O67      1.0000 0.49683  0.50317  0.31067  Biso   1.000  O
  O68      1.0000 0.49683  0.99367  0.31067  Biso   1.000  O
  O69      1.0000 0.00633  0.50317  0.31067  Biso   1.000  O
  O70      1.0000 0.16983  0.83017  0.02267  Biso   1.000  O
  O71      1.0000 0.66033  0.83017  0.02267  Biso   1.000  O
  O72      1.0000 0.16983  0.33967  0.02267  Biso   1.000  O
