data_image0
_cell_length_a       17.412
_cell_length_b       12.913
_cell_length_c       6.5669
_cell_angle_alpha    90
_cell_angle_beta     111.934
_cell_angle_gamma    90

_symmetry_space_group_name_H-M    "P 1"
_symmetry_int_tables_number       1

loop_
  _symmetry_equiv_pos_as_xyz
  'x, y, z'

loop_
  _atom_site_label
  _atom_site_occupancy
  _atom_site_fract_x
  _atom_site_fract_y
  _atom_site_fract_z
  _atom_site_thermal_displace_type
  _atom_site_B_iso_or_equiv
  _atom_site_type_symbol
  Cu1      1.0000 0.25865  0.10754  0.23246  Biso   1.000  Cu
  Cu2      1.0000 0.74135  0.10754  0.76754  Biso   1.000  Cu
  Cu3      1.0000 0.75865  0.60754  0.23246  Biso   1.000  Cu
  Cu4      1.0000 0.24135  0.60754  0.76754  Biso   1.000  Cu
  Cu5      1.0000 0.00000  0.81946  0.00000  Biso   1.000  Cu
  Cu6      1.0000 0.50000  0.31946  0.00000  Biso   1.000  Cu
  O1       1.0000 0.35251  0.00290  0.30360  Biso   1.000  O
  O2       1.0000 0.64749  0.00290  0.69640  Biso   1.000  O
  O3       1.0000 0.85251  0.50290  0.30360  Biso   1.000  O
  O4       1.0000 0.14749  0.50290  0.69640  Biso   1.000  O
  O5       1.0000 0.17706  0.00180  0.01320  Biso   1.000  O
  O6       1.0000 0.82294  0.00180  0.98680  Biso   1.000  O
  O7       1.0000 0.67706  0.50180  0.01320  Biso   1.000  O
  O8       1.0000 0.32294  0.50180  0.98680  Biso   1.000  O
  H1       1.0000 0.20390  0.94850  0.02580  Biso   1.000  H
  H2       1.0000 0.79610  0.94850  0.97420  Biso   1.000  H
  H3       1.0000 0.70390  0.44850  0.02580  Biso   1.000  H
  H4       1.0000 0.29610  0.44850  0.97420  Biso   1.000  H
  H5       1.0000 0.15310  0.01280  0.88160  Biso   1.000  H
  H6       1.0000 0.84690  0.01280  0.11840  Biso   1.000  H
  H7       1.0000 0.65310  0.51280  0.88160  Biso   1.000  H
  H8       1.0000 0.34690  0.51280  0.11840  Biso   1.000  H
  O9       1.0000 0.28520  0.85930  0.15140  Biso   1.000  O
  O10      1.0000 0.71480  0.85930  0.84860  Biso   1.000  O
  O11      1.0000 0.78520  0.35930  0.15140  Biso   1.000  O
  O12      1.0000 0.21480  0.35930  0.84860  Biso   1.000  O
  O13      1.0000 0.27920  0.17030  0.95670  Biso   1.000  O
  O14      1.0000 0.72080  0.17030  0.04330  Biso   1.000  O
  O15      1.0000 0.77920  0.67030  0.95670  Biso   1.000  O
  O16      1.0000 0.22080  0.67030  0.04330  Biso   1.000  O
  H9       1.0000 0.26040  0.22490  0.89560  Biso   1.000  H
  H10      1.0000 0.73960  0.22490  0.10440  Biso   1.000  H
  H11      1.0000 0.76040  0.72490  0.89560  Biso   1.000  H
  H12      1.0000 0.23960  0.72490  0.10440  Biso   1.000  H
  H13      1.0000 0.32600  0.16360  0.95720  Biso   1.000  H
  H14      1.0000 0.67400  0.16360  0.04280  Biso   1.000  H
  H15      1.0000 0.82600  0.66360  0.95720  Biso   1.000  H
  H16      1.0000 0.17400  0.66360  0.04280  Biso   1.000  H
  O17      1.0000 0.56900  0.52090  0.57190  Biso   1.000  O
  O18      1.0000 0.43100  0.52090  0.42810  Biso   1.000  O
  O19      1.0000 0.06900  0.02090  0.57190  Biso   1.000  O
  O20      1.0000 0.93100  0.02090  0.42810  Biso   1.000  O
  O21      1.0000 0.34184  0.21790  0.43160  Biso   1.000  O
  O22      1.0000 0.65816  0.21790  0.56840  Biso   1.000  O
  O23      1.0000 0.84184  0.71790  0.43160  Biso   1.000  O
  O24      1.0000 0.15816  0.71790  0.56840  Biso   1.000  O
  H17      1.0000 0.30570  0.25930  0.42670  Biso   1.000  H
  H18      1.0000 0.69430  0.25930  0.57330  Biso   1.000  H
  H19      1.0000 0.80570  0.75930  0.42670  Biso   1.000  H
  H20      1.0000 0.19430  0.75930  0.57330  Biso   1.000  H
  H21      1.0000 0.36520  0.20010  0.55990  Biso   1.000  H
  H22      1.0000 0.63480  0.20010  0.44010  Biso   1.000  H
  H23      1.0000 0.86520  0.70010  0.55990  Biso   1.000  H
  H24      1.0000 0.13480  0.70010  0.44010  Biso   1.000  H
  O25      1.0000 0.15754  0.19960  0.17030  Biso   1.000  O
  O26      1.0000 0.84246  0.19960  0.82970  Biso   1.000  O
  O27      1.0000 0.65754  0.69960  0.17030  Biso   1.000  O
  O28      1.0000 0.34246  0.69960  0.82970  Biso   1.000  O
  O29      1.0000 0.23440  0.04030  0.50230  Biso   1.000  O
  O30      1.0000 0.76560  0.04030  0.49770  Biso   1.000  O
  O31      1.0000 0.73440  0.54030  0.50230  Biso   1.000  O
  O32      1.0000 0.26560  0.54030  0.49770  Biso   1.000  O
  H25      1.0000 0.21520  0.07150  0.58040  Biso   1.000  H
  H26      1.0000 0.78480  0.07150  0.41960  Biso   1.000  H
  H27      1.0000 0.71520  0.57150  0.58040  Biso   1.000  H
  H28      1.0000 0.28480  0.57150  0.41960  Biso   1.000  H
  H29      1.0000 0.24660  0.98190  0.55230  Biso   1.000  H
  H30      1.0000 0.75340  0.98190  0.44770  Biso   1.000  H
  H31      1.0000 0.74660  0.48190  0.55230  Biso   1.000  H
  H32      1.0000 0.25340  0.48190  0.44770  Biso   1.000  H
  O33      1.0000 0.21593  0.34490  0.34200  Biso   1.000  O
  O34      1.0000 0.78407  0.34490  0.65800  Biso   1.000  O
  O35      1.0000 0.71593  0.84490  0.34200  Biso   1.000  O
  O36      1.0000 0.28407  0.84490  0.65800  Biso   1.000  O
  O37      1.0000 0.91710  0.91540  0.79370  Biso   1.000  O
  O38      1.0000 0.08290  0.91540  0.20630  Biso   1.000  O
  O39      1.0000 0.41710  0.41540  0.79370  Biso   1.000  O
  O40      1.0000 0.58290  0.41540  0.20630  Biso   1.000  O
  H33      1.0000 0.88630  0.94380  0.84480  Biso   1.000  H
  H34      1.0000 0.11370  0.94380  0.15520  Biso   1.000  H
  H35      1.0000 0.38630  0.44380  0.84480  Biso   1.000  H
  H36      1.0000 0.61370  0.44380  0.15520  Biso   1.000  H
  H37      1.0000 0.91200  0.94530  0.67940  Biso   1.000  H
  H38      1.0000 0.08800  0.94530  0.32060  Biso   1.000  H
  H39      1.0000 0.41200  0.44530  0.67940  Biso   1.000  H
  H40      1.0000 0.58800  0.44530  0.32060  Biso   1.000  H
  O41      1.0000 0.06544  0.67510  0.11060  Biso   1.000  O
  O42      1.0000 0.93456  0.67510  0.88940  Biso   1.000  O
  O43      1.0000 0.56544  0.17510  0.11060  Biso   1.000  O
  O44      1.0000 0.43456  0.17510  0.88940  Biso   1.000  O
  O45      1.0000 0.94310  0.82420  0.23640  Biso   1.000  O
  O46      1.0000 0.05690  0.82420  0.76360  Biso   1.000  O
  O47      1.0000 0.44310  0.32420  0.23640  Biso   1.000  O
  O48      1.0000 0.55690  0.32420  0.76360  Biso   1.000  O
  H41      1.0000 0.93150  0.86810  0.30980  Biso   1.000  H
  H42      1.0000 0.06850  0.86810  0.69020  Biso   1.000  H
  H43      1.0000 0.43150  0.36810  0.30980  Biso   1.000  H
  H44      1.0000 0.56850  0.36810  0.69020  Biso   1.000  H
  H45      1.0000 0.93530  0.76720  0.27980  Biso   1.000  H
  H46      1.0000 0.06470  0.76720  0.72020  Biso   1.000  H
  H47      1.0000 0.43530  0.26720  0.27980  Biso   1.000  H
  H48      1.0000 0.56470  0.26720  0.72020  Biso   1.000  H
  C1       1.0000 0.42680  0.84610  0.39320  Biso   1.000  C
  C2       1.0000 0.57320  0.84610  0.60680  Biso   1.000  C
  C3       1.0000 0.92680  0.34610  0.39320  Biso   1.000  C
  C4       1.0000 0.07320  0.34610  0.60680  Biso   1.000  C
  C5       1.0000 0.42720  0.73870  0.39400  Biso   1.000  C
  C6       1.0000 0.57280  0.73870  0.60600  Biso   1.000  C
  C7       1.0000 0.92720  0.23870  0.39400  Biso   1.000  C
  C8       1.0000 0.07280  0.23870  0.60600  Biso   1.000  C
  H49      1.0000 0.37810  0.70290  0.32270  Biso   1.000  H
  H50      1.0000 0.62190  0.70290  0.67730  Biso   1.000  H
  H51      1.0000 0.87810  0.20290  0.32270  Biso   1.000  H
  H52      1.0000 0.12190  0.20290  0.67730  Biso   1.000  H
  C9       1.0000 0.50000  0.68380  0.50000  Biso   1.000  C
  C10      1.0000 0.00000  0.18380  0.50000  Biso   1.000  C
  C11      1.0000 0.50000  0.90000  0.50000  Biso   1.000  C
  C12      1.0000 0.00000  0.40000  0.50000  Biso   1.000  C
  H53      1.0000 0.50000  0.97200  0.50000  Biso   1.000  H
  H54      1.0000 0.00000  0.47200  0.50000  Biso   1.000  H
  C13      1.0000 0.34920  0.90670  0.27660  Biso   1.000  C
  C14      1.0000 0.65080  0.90670  0.72340  Biso   1.000  C
  C15      1.0000 0.84920  0.40670  0.27660  Biso   1.000  C
  C16      1.0000 0.15080  0.40670  0.72340  Biso   1.000  C
  C17      1.0000 0.50000  0.56860  0.50000  Biso   1.000  C
  C18      1.0000 0.00000  0.06860  0.50000  Biso   1.000  C
  C19      1.0000 0.07380  0.34960  0.10480  Biso   1.000  C
  C20      1.0000 0.92620  0.34960  0.89520  Biso   1.000  C
  C21      1.0000 0.57380  0.84960  0.10480  Biso   1.000  C
  C22      1.0000 0.42620  0.84960  0.89520  Biso   1.000  C
  C23      1.0000 0.07300  0.45710  0.10660  Biso   1.000  C
  C24      1.0000 0.92700  0.45710  0.89340  Biso   1.000  C
  C25      1.0000 0.57300  0.95710  0.10660  Biso   1.000  C
  C26      1.0000 0.42700  0.95710  0.89340  Biso   1.000  C
  H55      1.0000 0.12170  0.49340  0.17980  Biso   1.000  H
  H56      1.0000 0.87830  0.49340  0.82020  Biso   1.000  H
  H57      1.0000 0.62170  0.99340  0.17980  Biso   1.000  H
  H58      1.0000 0.37830  0.99340  0.82020  Biso   1.000  H
  C27      1.0000 0.00000  0.51060  0.00000  Biso   1.000  C
  C28      1.0000 0.50000  0.01060  0.00000  Biso   1.000  C
  C29      1.0000 0.00000  0.29600  0.00000  Biso   1.000  C
  C30      1.0000 0.50000  0.79600  0.00000  Biso   1.000  C
  H59      1.0000 0.00000  0.22390  0.00000  Biso   1.000  H
  H60      1.0000 0.50000  0.72390  0.00000  Biso   1.000  H
  C31      1.0000 0.15490  0.29400  0.21430  Biso   1.000  C
  C32      1.0000 0.84510  0.29400  0.78570  Biso   1.000  C
  C33      1.0000 0.65490  0.79400  0.21430  Biso   1.000  C
  C34      1.0000 0.34510  0.79400  0.78570  Biso   1.000  C
  C35      1.0000 0.00000  0.62610  0.00000  Biso   1.000  C
  C36      1.0000 0.50000  0.12610  0.00000  Biso   1.000  C
