data_image0
_cell_length_a       12.3459
_cell_length_b       15.9301
_cell_length_c       14.7454
_cell_angle_alpha    90
_cell_angle_beta     90
_cell_angle_gamma    90

_symmetry_space_group_name_H-M    "P 1"
_symmetry_int_tables_number       1

loop_
  _symmetry_equiv_pos_as_xyz
  'x, y, z'

loop_
  _atom_site_label
  _atom_site_occupancy
  _atom_site_fract_x
  _atom_site_fract_y
  _atom_site_fract_z
  _atom_site_thermal_displace_type
  _atom_site_B_iso_or_equiv
  _atom_site_type_symbol
  Cu1      1.0000 0.58102  0.45945  0.61207  Biso   1.000  Cu
  Cu2      1.0000 0.91898  0.54055  0.11207  Biso   1.000  Cu
  Cu3      1.0000 0.41898  0.95945  0.38793  Biso   1.000  Cu
  Cu4      1.0000 0.08102  0.04055  0.88793  Biso   1.000  Cu
  Cu5      1.0000 0.41898  0.54055  0.38793  Biso   1.000  Cu
  Cu6      1.0000 0.08102  0.45945  0.88793  Biso   1.000  Cu
  Cu7      1.0000 0.58102  0.04055  0.61207  Biso   1.000  Cu
  Cu8      1.0000 0.91898  0.95945  0.11207  Biso   1.000  Cu
  Cu9      1.0000 0.60085  0.25000  0.01260  Biso   1.000  Cu
  Cu10     1.0000 0.89915  0.75000  0.51260  Biso   1.000  Cu
  Cu11     1.0000 0.39915  0.75000  0.98740  Biso   1.000  Cu
  Cu12     1.0000 0.10085  0.25000  0.48740  Biso   1.000  Cu
  Cu13     1.0000 0.32181  0.75000  0.73914  Biso   1.000  Cu
  Cu14     1.0000 0.17819  0.25000  0.23914  Biso   1.000  Cu
  Cu15     1.0000 0.67819  0.25000  0.26086  Biso   1.000  Cu
  Cu16     1.0000 0.82181  0.75000  0.76086  Biso   1.000  Cu
  Co1      1.0000 0.33821  0.25000  0.75976  Biso   1.000  Co
  Co2      1.0000 0.16179  0.75000  0.25976  Biso   1.000  Co
  Co3      1.0000 0.66179  0.75000  0.24024  Biso   1.000  Co
  Co4      1.0000 0.83821  0.25000  0.74024  Biso   1.000  Co
  C1       1.0000 0.42390  0.33270  0.70320  Biso   1.000  C
  C2       1.0000 0.07610  0.66730  0.20320  Biso   1.000  C
  C3       1.0000 0.57610  0.83270  0.29680  Biso   1.000  C
  C4       1.0000 0.92390  0.16730  0.79680  Biso   1.000  C
  C5       1.0000 0.57610  0.66730  0.29680  Biso   1.000  C
  C6       1.0000 0.92390  0.33270  0.79680  Biso   1.000  C
  C7       1.0000 0.42390  0.16730  0.70320  Biso   1.000  C
  C8       1.0000 0.07610  0.83270  0.20320  Biso   1.000  C
  C9       1.0000 0.24990  0.33290  0.81410  Biso   1.000  C
  C10      1.0000 0.25010  0.66710  0.31410  Biso   1.000  C
  C11      1.0000 0.75010  0.83290  0.18590  Biso   1.000  C
  C12      1.0000 0.74990  0.16710  0.68590  Biso   1.000  C
  C13      1.0000 0.75010  0.66710  0.18590  Biso   1.000  C
  C14      1.0000 0.74990  0.33290  0.68590  Biso   1.000  C
  C15      1.0000 0.24990  0.16710  0.81410  Biso   1.000  C
  C16      1.0000 0.25010  0.83290  0.31410  Biso   1.000  C
  C17      1.0000 0.24880  0.25000  0.65680  Biso   1.000  C
  C18      1.0000 0.25120  0.75000  0.15680  Biso   1.000  C
  C19      1.0000 0.75120  0.75000  0.34320  Biso   1.000  C
  C20      1.0000 0.74880  0.25000  0.84320  Biso   1.000  C
  C21      1.0000 0.42940  0.25000  0.86230  Biso   1.000  C
  C22      1.0000 0.07060  0.75000  0.36230  Biso   1.000  C
  C23      1.0000 0.57060  0.75000  0.13770  Biso   1.000  C
  C24      1.0000 0.92940  0.25000  0.63770  Biso   1.000  C
  C25      1.0000 0.43550  0.59190  0.67400  Biso   1.000  C
  C26      1.0000 0.06450  0.40810  0.17400  Biso   1.000  C
  C27      1.0000 0.56450  0.09190  0.32600  Biso   1.000  C
  C28      1.0000 0.93550  0.90810  0.82600  Biso   1.000  C
  C29      1.0000 0.56450  0.40810  0.32600  Biso   1.000  C
  C30      1.0000 0.93550  0.59190  0.82600  Biso   1.000  C
  C31      1.0000 0.43550  0.90810  0.67400  Biso   1.000  C
  C32      1.0000 0.06450  0.09190  0.17400  Biso   1.000  C
  H1       1.0000 0.45680  0.58080  0.73330  Biso   1.000  H
  H2       1.0000 0.04320  0.41920  0.23330  Biso   1.000  H
  H3       1.0000 0.54320  0.08080  0.26670  Biso   1.000  H
  H4       1.0000 0.95680  0.91920  0.76670  Biso   1.000  H
  H5       1.0000 0.54320  0.41920  0.26670  Biso   1.000  H
  H6       1.0000 0.95680  0.58080  0.76670  Biso   1.000  H
  H7       1.0000 0.45680  0.91920  0.73330  Biso   1.000  H
  H8       1.0000 0.04320  0.08080  0.23330  Biso   1.000  H
  C33      1.0000 0.38640  0.25000  0.10910  Biso   1.000  C
  C34      1.0000 0.11360  0.75000  0.60910  Biso   1.000  C
  C35      1.0000 0.61360  0.75000  0.89090  Biso   1.000  C
  C36      1.0000 0.88640  0.25000  0.39090  Biso   1.000  C
  H9       1.0000 0.34660  0.25000  0.05550  Biso   1.000  H
  H10      1.0000 0.15340  0.75000  0.55550  Biso   1.000  H
  H11      1.0000 0.65340  0.75000  0.94450  Biso   1.000  H
  H12      1.0000 0.84660  0.25000  0.44450  Biso   1.000  H
  C37      1.0000 0.75390  0.40830  0.04090  Biso   1.000  C
  C38      1.0000 0.74610  0.59170  0.54090  Biso   1.000  C
  C39      1.0000 0.24610  0.90830  0.95910  Biso   1.000  C
  C40      1.0000 0.25390  0.09170  0.45910  Biso   1.000  C
  C41      1.0000 0.24610  0.59170  0.95910  Biso   1.000  C
  C42      1.0000 0.25390  0.40830  0.45910  Biso   1.000  C
  C43      1.0000 0.75390  0.09170  0.04090  Biso   1.000  C
  C44      1.0000 0.74610  0.90830  0.54090  Biso   1.000  C
  H13      1.0000 0.75480  0.42340  0.98000  Biso   1.000  H
  H14      1.0000 0.74520  0.57660  0.48000  Biso   1.000  H
  H15      1.0000 0.24520  0.92340  0.02000  Biso   1.000  H
  H16      1.0000 0.25480  0.07660  0.52000  Biso   1.000  H
  H17      1.0000 0.24520  0.57660  0.02000  Biso   1.000  H
  H18      1.0000 0.25480  0.42340  0.52000  Biso   1.000  H
  H19      1.0000 0.75480  0.07660  0.98000  Biso   1.000  H
  H20      1.0000 0.74520  0.92340  0.48000  Biso   1.000  H
  N1       1.0000 0.47560  0.38240  0.66720  Biso   1.000  N
  N2       1.0000 0.02440  0.61760  0.16720  Biso   1.000  N
  N3       1.0000 0.52440  0.88240  0.33280  Biso   1.000  N
  N4       1.0000 0.97560  0.11760  0.83280  Biso   1.000  N
  N5       1.0000 0.52440  0.61760  0.33280  Biso   1.000  N
  N6       1.0000 0.97560  0.38240  0.83280  Biso   1.000  N
  N7       1.0000 0.47560  0.11760  0.66720  Biso   1.000  N
  N8       1.0000 0.02440  0.88240  0.16720  Biso   1.000  N
  N9       1.0000 0.19610  0.38250  0.84770  Biso   1.000  N
  N10      1.0000 0.30390  0.61750  0.34770  Biso   1.000  N
  N11      1.0000 0.80390  0.88250  0.15230  Biso   1.000  N
  N12      1.0000 0.69610  0.11750  0.65230  Biso   1.000  N
  N13      1.0000 0.80390  0.61750  0.15230  Biso   1.000  N
  N14      1.0000 0.69610  0.38250  0.65230  Biso   1.000  N
  N15      1.0000 0.19610  0.11750  0.84770  Biso   1.000  N
  N16      1.0000 0.30390  0.88250  0.34770  Biso   1.000  N
  N17      1.0000 0.19940  0.25000  0.59230  Biso   1.000  N
  N18      1.0000 0.30060  0.75000  0.09230  Biso   1.000  N
  N19      1.0000 0.80060  0.75000  0.40770  Biso   1.000  N
  N20      1.0000 0.69940  0.25000  0.90770  Biso   1.000  N
  N21      1.0000 0.48270  0.25000  0.92540  Biso   1.000  N
  N22      1.0000 0.01730  0.75000  0.42540  Biso   1.000  N
  N23      1.0000 0.51730  0.75000  0.07460  Biso   1.000  N
  N24      1.0000 0.98270  0.25000  0.57460  Biso   1.000  N
  N25      1.0000 0.37190  0.65480  0.64950  Biso   1.000  N
  N26      1.0000 0.12810  0.34520  0.14950  Biso   1.000  N
  N27      1.0000 0.62810  0.15480  0.35050  Biso   1.000  N
  N28      1.0000 0.87190  0.84520  0.85050  Biso   1.000  N
  N29      1.0000 0.62810  0.34520  0.35050  Biso   1.000  N
  N30      1.0000 0.87190  0.65480  0.85050  Biso   1.000  N
  N31      1.0000 0.37190  0.84520  0.64950  Biso   1.000  N
  N32      1.0000 0.12810  0.15480  0.14950  Biso   1.000  N
  N33      1.0000 0.36190  0.64770  0.55970  Biso   1.000  N
  N34      1.0000 0.13810  0.35230  0.05970  Biso   1.000  N
  N35      1.0000 0.63810  0.14770  0.44030  Biso   1.000  N
  N36      1.0000 0.86190  0.85230  0.94030  Biso   1.000  N
  N37      1.0000 0.63810  0.35230  0.44030  Biso   1.000  N
  N38      1.0000 0.86190  0.64770  0.94030  Biso   1.000  N
  N39      1.0000 0.36190  0.85230  0.55970  Biso   1.000  N
  N40      1.0000 0.13810  0.14770  0.05970  Biso   1.000  N
  N41      1.0000 0.41760  0.58270  0.52980  Biso   1.000  N
  N42      1.0000 0.08240  0.41730  0.02980  Biso   1.000  N
  N43      1.0000 0.58240  0.08270  0.47020  Biso   1.000  N
  N44      1.0000 0.91760  0.91730  0.97020  Biso   1.000  N
  N45      1.0000 0.58240  0.41730  0.47020  Biso   1.000  N
  N46      1.0000 0.91760  0.58270  0.97020  Biso   1.000  N
  N47      1.0000 0.41760  0.91730  0.52980  Biso   1.000  N
  N48      1.0000 0.08240  0.08270  0.02980  Biso   1.000  N
  N49      1.0000 0.46380  0.54840  0.60520  Biso   1.000  N
  N50      1.0000 0.03620  0.45160  0.10520  Biso   1.000  N
  N51      1.0000 0.53620  0.04840  0.39480  Biso   1.000  N
  N52      1.0000 0.96380  0.95160  0.89480  Biso   1.000  N
  N53      1.0000 0.53620  0.45160  0.39480  Biso   1.000  N
  N54      1.0000 0.96380  0.54840  0.89480  Biso   1.000  N
  N55      1.0000 0.46380  0.95160  0.60520  Biso   1.000  N
  N56      1.0000 0.03620  0.04840  0.10520  Biso   1.000  N
  N57      1.0000 0.49250  0.25000  0.11210  Biso   1.000  N
  N58      1.0000 0.00750  0.75000  0.61210  Biso   1.000  N
  N59      1.0000 0.50750  0.75000  0.88790  Biso   1.000  N
  N60      1.0000 0.99250  0.25000  0.38790  Biso   1.000  N
  N61      1.0000 0.51640  0.25000  0.20170  Biso   1.000  N
  N62      1.0000 0.98360  0.75000  0.70170  Biso   1.000  N
  N63      1.0000 0.48360  0.75000  0.79830  Biso   1.000  N
  N64      1.0000 0.01640  0.25000  0.29830  Biso   1.000  N
  N65      1.0000 0.42660  0.25000  0.24860  Biso   1.000  N
  N66      1.0000 0.07340  0.75000  0.74860  Biso   1.000  N
  N67      1.0000 0.57340  0.75000  0.75140  Biso   1.000  N
  N68      1.0000 0.92660  0.25000  0.25140  Biso   1.000  N
  N69      1.0000 0.34270  0.25000  0.19030  Biso   1.000  N
  N70      1.0000 0.15730  0.75000  0.69030  Biso   1.000  N
  N71      1.0000 0.65730  0.75000  0.80970  Biso   1.000  N
  N72      1.0000 0.84270  0.25000  0.30970  Biso   1.000  N
  N73      1.0000 0.69660  0.34580  0.07560  Biso   1.000  N
  N74      1.0000 0.80340  0.65420  0.57560  Biso   1.000  N
  N75      1.0000 0.30340  0.84580  0.92440  Biso   1.000  N
  N76      1.0000 0.19660  0.15420  0.42440  Biso   1.000  N
  N77      1.0000 0.30340  0.65420  0.92440  Biso   1.000  N
  N78      1.0000 0.19660  0.34580  0.42440  Biso   1.000  N
  N79      1.0000 0.69660  0.15420  0.07560  Biso   1.000  N
  N80      1.0000 0.80340  0.84580  0.57560  Biso   1.000  N
  N81      1.0000 0.71920  0.34500  0.16400  Biso   1.000  N
  N82      1.0000 0.78080  0.65500  0.66400  Biso   1.000  N
  N83      1.0000 0.28080  0.84500  0.83600  Biso   1.000  N
  N84      1.0000 0.21920  0.15500  0.33600  Biso   1.000  N
  N85      1.0000 0.28080  0.65500  0.83600  Biso   1.000  N
  N86      1.0000 0.21920  0.34500  0.33600  Biso   1.000  N
  N87      1.0000 0.71920  0.15500  0.16400  Biso   1.000  N
  N88      1.0000 0.78080  0.84500  0.66400  Biso   1.000  N
  N89      1.0000 0.78720  0.40520  0.18250  Biso   1.000  N
  N90      1.0000 0.71280  0.59480  0.68250  Biso   1.000  N
  N91      1.0000 0.21280  0.90520  0.81750  Biso   1.000  N
  N92      1.0000 0.28720  0.09480  0.31750  Biso   1.000  N
  N93      1.0000 0.21280  0.59480  0.81750  Biso   1.000  N
  N94      1.0000 0.28720  0.40520  0.31750  Biso   1.000  N
  N95      1.0000 0.78720  0.09480  0.18250  Biso   1.000  N
  N96      1.0000 0.71280  0.90520  0.68250  Biso   1.000  N
  N97      1.0000 0.80900  0.44590  0.10530  Biso   1.000  N
  N98      1.0000 0.69100  0.55410  0.60530  Biso   1.000  N
  N99      1.0000 0.19100  0.94590  0.89470  Biso   1.000  N
  N100     1.0000 0.30900  0.05410  0.39470  Biso   1.000  N
  N101     1.0000 0.19100  0.55410  0.89470  Biso   1.000  N
  N102     1.0000 0.30900  0.44590  0.39470  Biso   1.000  N
  N103     1.0000 0.80900  0.05410  0.10530  Biso   1.000  N
  N104     1.0000 0.69100  0.94590  0.60530  Biso   1.000  N
