data_image0
_cell_length_a       26.2639
_cell_length_b       33.4313
_cell_length_c       18.7507
_cell_angle_alpha    90
_cell_angle_beta     90
_cell_angle_gamma    90

_symmetry_space_group_name_H-M    "P 1"
_symmetry_int_tables_number       1

loop_
  _symmetry_equiv_pos_as_xyz
  'x, y, z'

loop_
  _atom_site_label
  _atom_site_occupancy
  _atom_site_fract_x
  _atom_site_fract_y
  _atom_site_fract_z
  _atom_site_thermal_displace_type
  _atom_site_B_iso_or_equiv
  _atom_site_type_symbol
  Cu1      1.0000 0.28715  0.26989  0.53240  Biso   1.000  Cu
  Cu2      1.0000 0.71285  0.73011  0.03240  Biso   1.000  Cu
  Cu3      1.0000 0.71285  0.26989  0.96760  Biso   1.000  Cu
  Cu4      1.0000 0.28715  0.73011  0.46760  Biso   1.000  Cu
  Cu5      1.0000 0.78715  0.76989  0.53240  Biso   1.000  Cu
  Cu6      1.0000 0.21285  0.23011  0.03240  Biso   1.000  Cu
  Cu7      1.0000 0.21285  0.76989  0.96760  Biso   1.000  Cu
  Cu8      1.0000 0.78715  0.23011  0.46760  Biso   1.000  Cu
  Cu9      1.0000 0.71285  0.73011  0.46760  Biso   1.000  Cu
  Cu10     1.0000 0.28715  0.26989  0.96760  Biso   1.000  Cu
  Cu11     1.0000 0.28715  0.73011  0.03240  Biso   1.000  Cu
  Cu12     1.0000 0.71285  0.26989  0.53240  Biso   1.000  Cu
  Cu13     1.0000 0.21285  0.23011  0.46760  Biso   1.000  Cu
  Cu14     1.0000 0.78715  0.76989  0.96760  Biso   1.000  Cu
  Cu15     1.0000 0.78715  0.23011  0.03240  Biso   1.000  Cu
  Cu16     1.0000 0.21285  0.76989  0.53240  Biso   1.000  Cu
  Cu17     1.0000 0.50000  0.07373  0.75000  Biso   1.000  Cu
  Cu18     1.0000 0.50000  0.92627  0.25000  Biso   1.000  Cu
  Cu19     1.0000 0.00000  0.57373  0.75000  Biso   1.000  Cu
  Cu20     1.0000 0.00000  0.42627  0.25000  Biso   1.000  Cu
  Cu21     1.0000 0.50000  0.15372  0.75000  Biso   1.000  Cu
  Cu22     1.0000 0.50000  0.84628  0.25000  Biso   1.000  Cu
  Cu23     1.0000 0.00000  0.65372  0.75000  Biso   1.000  Cu
  Cu24     1.0000 0.00000  0.34628  0.25000  Biso   1.000  Cu
  S1       1.0000 0.34858  0.00000  0.50000  Biso   1.000  S
  S2       1.0000 0.65142  0.00000  0.00000  Biso   1.000  S
  S3       1.0000 0.84858  0.50000  0.50000  Biso   1.000  S
  S4       1.0000 0.15142  0.50000  0.00000  Biso   1.000  S
  S5       1.0000 0.65142  0.00000  0.50000  Biso   1.000  S
  S6       1.0000 0.34858  0.00000  0.00000  Biso   1.000  S
  S7       1.0000 0.15142  0.50000  0.50000  Biso   1.000  S
  S8       1.0000 0.84858  0.50000  0.00000  Biso   1.000  S
  S9       1.0000 0.00000  0.23652  0.71864  Biso   1.000  S
  S10      1.0000 0.00000  0.76348  0.21864  Biso   1.000  S
  S11      1.0000 0.00000  0.23652  0.78136  Biso   1.000  S
  S12      1.0000 0.00000  0.76348  0.28136  Biso   1.000  S
  S13      1.0000 0.50000  0.73652  0.71864  Biso   1.000  S
  S14      1.0000 0.50000  0.26348  0.21864  Biso   1.000  S
  S15      1.0000 0.50000  0.73652  0.78136  Biso   1.000  S
  S16      1.0000 0.50000  0.26348  0.28136  Biso   1.000  S
  O1       1.0000 0.44731  0.14704  0.67723  Biso   1.000  O
  O2       1.0000 0.55269  0.85296  0.17723  Biso   1.000  O
  O3       1.0000 0.55269  0.14704  0.82277  Biso   1.000  O
  O4       1.0000 0.44731  0.85296  0.32277  Biso   1.000  O
  O5       1.0000 0.94731  0.64704  0.67723  Biso   1.000  O
  O6       1.0000 0.05269  0.35296  0.17723  Biso   1.000  O
  O7       1.0000 0.05269  0.64704  0.82277  Biso   1.000  O
  O8       1.0000 0.94731  0.35296  0.32277  Biso   1.000  O
  O9       1.0000 0.55269  0.85296  0.32277  Biso   1.000  O
  O10      1.0000 0.44731  0.14704  0.82277  Biso   1.000  O
  O11      1.0000 0.44731  0.85296  0.17723  Biso   1.000  O
  O12      1.0000 0.55269  0.14704  0.67723  Biso   1.000  O
  O13      1.0000 0.05269  0.35296  0.32277  Biso   1.000  O
  O14      1.0000 0.94731  0.64704  0.82277  Biso   1.000  O
  O15      1.0000 0.94731  0.35296  0.17723  Biso   1.000  O
  O16      1.0000 0.05269  0.64704  0.67723  Biso   1.000  O
  O17      1.0000 0.44758  0.07993  0.67797  Biso   1.000  O
  O18      1.0000 0.55242  0.92007  0.17797  Biso   1.000  O
  O19      1.0000 0.55242  0.07993  0.82203  Biso   1.000  O
  O20      1.0000 0.44758  0.92007  0.32203  Biso   1.000  O
  O21      1.0000 0.94758  0.57993  0.67797  Biso   1.000  O
  O22      1.0000 0.05242  0.42007  0.17797  Biso   1.000  O
  O23      1.0000 0.05242  0.57993  0.82203  Biso   1.000  O
  O24      1.0000 0.94758  0.42007  0.32203  Biso   1.000  O
  O25      1.0000 0.55242  0.92007  0.32203  Biso   1.000  O
  O26      1.0000 0.44758  0.07993  0.82203  Biso   1.000  O
  O27      1.0000 0.44758  0.92007  0.17797  Biso   1.000  O
  O28      1.0000 0.55242  0.07993  0.67797  Biso   1.000  O
  O29      1.0000 0.05242  0.42007  0.32203  Biso   1.000  O
  O30      1.0000 0.94758  0.57993  0.82203  Biso   1.000  O
  O31      1.0000 0.94758  0.42007  0.17797  Biso   1.000  O
  O32      1.0000 0.05242  0.57993  0.67797  Biso   1.000  O
  O33      1.0000 0.31359  0.21643  0.54950  Biso   1.000  O
  O34      1.0000 0.68641  0.78357  0.04950  Biso   1.000  O
  O35      1.0000 0.68641  0.21643  0.95050  Biso   1.000  O
  O36      1.0000 0.31359  0.78357  0.45050  Biso   1.000  O
  O37      1.0000 0.81359  0.71643  0.54950  Biso   1.000  O
  O38      1.0000 0.18641  0.28357  0.04950  Biso   1.000  O
  O39      1.0000 0.18641  0.71643  0.95050  Biso   1.000  O
  O40      1.0000 0.81359  0.28357  0.45050  Biso   1.000  O
  O41      1.0000 0.68641  0.78357  0.45050  Biso   1.000  O
  O42      1.0000 0.31359  0.21643  0.95050  Biso   1.000  O
  O43      1.0000 0.31359  0.78357  0.04950  Biso   1.000  O
  O44      1.0000 0.68641  0.21643  0.54950  Biso   1.000  O
  O45      1.0000 0.18641  0.28357  0.45050  Biso   1.000  O
  O46      1.0000 0.81359  0.71643  0.95050  Biso   1.000  O
  O47      1.0000 0.81359  0.28357  0.04950  Biso   1.000  O
  O48      1.0000 0.18641  0.71643  0.54950  Biso   1.000  O
  O49      1.0000 0.25174  0.18267  0.49481  Biso   1.000  O
  O50      1.0000 0.74826  0.81733  0.99481  Biso   1.000  O
  O51      1.0000 0.74826  0.18267  0.00519  Biso   1.000  O
  O52      1.0000 0.25174  0.81733  0.50519  Biso   1.000  O
  O53      1.0000 0.75174  0.68267  0.49481  Biso   1.000  O
  O54      1.0000 0.24826  0.31733  0.99481  Biso   1.000  O
  O55      1.0000 0.24826  0.68267  0.00519  Biso   1.000  O
  O56      1.0000 0.75174  0.31733  0.50519  Biso   1.000  O
  O57      1.0000 0.74826  0.81733  0.50519  Biso   1.000  O
  O58      1.0000 0.25174  0.18267  0.00519  Biso   1.000  O
  O59      1.0000 0.25174  0.81733  0.99481  Biso   1.000  O
  O60      1.0000 0.74826  0.18267  0.49481  Biso   1.000  O
  O61      1.0000 0.24826  0.31733  0.50519  Biso   1.000  O
  O62      1.0000 0.75174  0.68267  0.00519  Biso   1.000  O
  O63      1.0000 0.75174  0.31733  0.99481  Biso   1.000  O
  O64      1.0000 0.24826  0.68267  0.49481  Biso   1.000  O
  O65      1.0000 0.21650  0.04194  0.52160  Biso   1.000  O
  O66      1.0000 0.78350  0.95806  0.02160  Biso   1.000  O
  O67      1.0000 0.78350  0.04194  0.97840  Biso   1.000  O
  O68      1.0000 0.21650  0.95806  0.47840  Biso   1.000  O
  O69      1.0000 0.71650  0.54194  0.52160  Biso   1.000  O
  O70      1.0000 0.28350  0.45806  0.02160  Biso   1.000  O
  O71      1.0000 0.28350  0.54194  0.97840  Biso   1.000  O
  O72      1.0000 0.71650  0.45806  0.47840  Biso   1.000  O
  O73      1.0000 0.78350  0.95806  0.47840  Biso   1.000  O
  O74      1.0000 0.21650  0.04194  0.97840  Biso   1.000  O
  O75      1.0000 0.21650  0.95806  0.02160  Biso   1.000  O
  O76      1.0000 0.78350  0.04194  0.52160  Biso   1.000  O
  O77      1.0000 0.28350  0.45806  0.47840  Biso   1.000  O
  O78      1.0000 0.71650  0.54194  0.97840  Biso   1.000  O
  O79      1.0000 0.71650  0.45806  0.02160  Biso   1.000  O
  O80      1.0000 0.28350  0.54194  0.52160  Biso   1.000  O
  O81      1.0000 0.18302  0.23088  0.56283  Biso   1.000  O
  O82      1.0000 0.81698  0.76912  0.06283  Biso   1.000  O
  O83      1.0000 0.81698  0.23088  0.93717  Biso   1.000  O
  O84      1.0000 0.18302  0.76912  0.43717  Biso   1.000  O
  O85      1.0000 0.68302  0.73088  0.56283  Biso   1.000  O
  O86      1.0000 0.31698  0.26912  0.06283  Biso   1.000  O
  O87      1.0000 0.31698  0.73088  0.93717  Biso   1.000  O
  O88      1.0000 0.68302  0.26912  0.43717  Biso   1.000  O
  O89      1.0000 0.81698  0.76912  0.43717  Biso   1.000  O
  O90      1.0000 0.18302  0.23088  0.93717  Biso   1.000  O
  O91      1.0000 0.18302  0.76912  0.06283  Biso   1.000  O
  O92      1.0000 0.81698  0.23088  0.56283  Biso   1.000  O
  O93      1.0000 0.31698  0.26912  0.43717  Biso   1.000  O
  O94      1.0000 0.68302  0.73088  0.93717  Biso   1.000  O
  O95      1.0000 0.68302  0.26912  0.06283  Biso   1.000  O
  O96      1.0000 0.31698  0.73088  0.56283  Biso   1.000  O
  O97      1.0000 0.24541  0.26449  0.61829  Biso   1.000  O
  O98      1.0000 0.75459  0.73551  0.11829  Biso   1.000  O
  O99      1.0000 0.75459  0.26449  0.88171  Biso   1.000  O
  O100     1.0000 0.24541  0.73551  0.38171  Biso   1.000  O
  O101     1.0000 0.74541  0.76449  0.61829  Biso   1.000  O
  O102     1.0000 0.25459  0.23551  0.11829  Biso   1.000  O
  O103     1.0000 0.25459  0.76449  0.88171  Biso   1.000  O
  O104     1.0000 0.74541  0.23551  0.38171  Biso   1.000  O
  O105     1.0000 0.75459  0.73551  0.38171  Biso   1.000  O
  O106     1.0000 0.24541  0.26449  0.88171  Biso   1.000  O
  O107     1.0000 0.24541  0.73551  0.11829  Biso   1.000  O
  O108     1.0000 0.75459  0.26449  0.61829  Biso   1.000  O
  O109     1.0000 0.25459  0.23551  0.38171  Biso   1.000  O
  O110     1.0000 0.74541  0.76449  0.88171  Biso   1.000  O
  O111     1.0000 0.74541  0.23551  0.11829  Biso   1.000  O
  O112     1.0000 0.25459  0.76449  0.61829  Biso   1.000  O
  O113     1.0000 0.05610  0.14980  0.82860  Biso   1.000  O
  O114     1.0000 0.94390  0.85020  0.32860  Biso   1.000  O
  O115     1.0000 0.94390  0.14980  0.67140  Biso   1.000  O
  O116     1.0000 0.05610  0.85020  0.17140  Biso   1.000  O
  O117     1.0000 0.55610  0.64980  0.82860  Biso   1.000  O
  O118     1.0000 0.44390  0.35020  0.32860  Biso   1.000  O
  O119     1.0000 0.44390  0.64980  0.67140  Biso   1.000  O
  O120     1.0000 0.55610  0.35020  0.17140  Biso   1.000  O
  O121     1.0000 0.94390  0.85020  0.17140  Biso   1.000  O
  O122     1.0000 0.05610  0.14980  0.67140  Biso   1.000  O
  O123     1.0000 0.05610  0.85020  0.32860  Biso   1.000  O
  O124     1.0000 0.94390  0.14980  0.82860  Biso   1.000  O
  O125     1.0000 0.44390  0.35020  0.17140  Biso   1.000  O
  O126     1.0000 0.55610  0.64980  0.67140  Biso   1.000  O
  O127     1.0000 0.55610  0.35020  0.32860  Biso   1.000  O
  O128     1.0000 0.44390  0.64980  0.82860  Biso   1.000  O
  O129     1.0000 0.50000  0.21753  0.75000  Biso   1.000  O
  O130     1.0000 0.50000  0.78247  0.25000  Biso   1.000  O
  O131     1.0000 0.00000  0.71753  0.75000  Biso   1.000  O
  O132     1.0000 0.00000  0.28247  0.25000  Biso   1.000  O
  O133     1.0000 0.50000  0.01020  0.75000  Biso   1.000  O
  O134     1.0000 0.50000  0.98980  0.25000  Biso   1.000  O
  O135     1.0000 0.00000  0.51020  0.75000  Biso   1.000  O
  O136     1.0000 0.00000  0.48980  0.25000  Biso   1.000  O
  O137     1.0000 0.34797  0.30310  0.57767  Biso   1.000  O
  O138     1.0000 0.65203  0.69690  0.07767  Biso   1.000  O
  O139     1.0000 0.65203  0.30310  0.92233  Biso   1.000  O
  O140     1.0000 0.34797  0.69690  0.42233  Biso   1.000  O
  O141     1.0000 0.84797  0.80310  0.57767  Biso   1.000  O
  O142     1.0000 0.15203  0.19690  0.07767  Biso   1.000  O
  O143     1.0000 0.15203  0.80310  0.92233  Biso   1.000  O
  O144     1.0000 0.84797  0.19690  0.42233  Biso   1.000  O
  O145     1.0000 0.65203  0.69690  0.42233  Biso   1.000  O
  O146     1.0000 0.34797  0.30310  0.92233  Biso   1.000  O
  O147     1.0000 0.34797  0.69690  0.07767  Biso   1.000  O
  O148     1.0000 0.65203  0.30310  0.57767  Biso   1.000  O
  O149     1.0000 0.15203  0.19690  0.42233  Biso   1.000  O
  O150     1.0000 0.84797  0.80310  0.92233  Biso   1.000  O
  O151     1.0000 0.84797  0.19690  0.07767  Biso   1.000  O
  O152     1.0000 0.15203  0.80310  0.57767  Biso   1.000  O
  C1       1.0000 0.30462  0.03552  0.52100  Biso   1.000  C
  C2       1.0000 0.69538  0.96448  0.02100  Biso   1.000  C
  C3       1.0000 0.69538  0.03552  0.97900  Biso   1.000  C
  C4       1.0000 0.30462  0.96448  0.47900  Biso   1.000  C
  C5       1.0000 0.80462  0.53552  0.52100  Biso   1.000  C
  C6       1.0000 0.19538  0.46448  0.02100  Biso   1.000  C
  C7       1.0000 0.19538  0.53552  0.97900  Biso   1.000  C
  C8       1.0000 0.80462  0.46448  0.47900  Biso   1.000  C
  C9       1.0000 0.69538  0.96448  0.47900  Biso   1.000  C
  C10      1.0000 0.30462  0.03552  0.97900  Biso   1.000  C
  C11      1.0000 0.30462  0.96448  0.02100  Biso   1.000  C
  C12      1.0000 0.69538  0.03552  0.52100  Biso   1.000  C
  C13      1.0000 0.19538  0.46448  0.47900  Biso   1.000  C
  C14      1.0000 0.80462  0.53552  0.97900  Biso   1.000  C
  C15      1.0000 0.80462  0.46448  0.02100  Biso   1.000  C
  C16      1.0000 0.19538  0.53552  0.52100  Biso   1.000  C
  C17      1.0000 0.25892  0.01995  0.51120  Biso   1.000  C
  C18      1.0000 0.74108  0.98005  0.01120  Biso   1.000  C
  C19      1.0000 0.74108  0.01995  0.98880  Biso   1.000  C
  C20      1.0000 0.25892  0.98005  0.48880  Biso   1.000  C
  C21      1.0000 0.75892  0.51995  0.51120  Biso   1.000  C
  C22      1.0000 0.24108  0.48005  0.01120  Biso   1.000  C
  C23      1.0000 0.24108  0.51995  0.98880  Biso   1.000  C
  C24      1.0000 0.75892  0.48005  0.48880  Biso   1.000  C
  C25      1.0000 0.74108  0.98005  0.48880  Biso   1.000  C
  C26      1.0000 0.25892  0.01995  0.98880  Biso   1.000  C
  C27      1.0000 0.25892  0.98005  0.01120  Biso   1.000  C
  C28      1.0000 0.74108  0.01995  0.51120  Biso   1.000  C
  C29      1.0000 0.24108  0.48005  0.48880  Biso   1.000  C
  C30      1.0000 0.75892  0.51995  0.98880  Biso   1.000  C
  C31      1.0000 0.75892  0.48005  0.01120  Biso   1.000  C
  C32      1.0000 0.24108  0.51995  0.51120  Biso   1.000  C
  C33      1.0000 0.17100  0.01400  0.53240  Biso   1.000  C
  C34      1.0000 0.82900  0.98600  0.03240  Biso   1.000  C
  C35      1.0000 0.82900  0.01400  0.96760  Biso   1.000  C
  C36      1.0000 0.17100  0.98600  0.46760  Biso   1.000  C
  C37      1.0000 0.67100  0.51400  0.53240  Biso   1.000  C
  C38      1.0000 0.32900  0.48600  0.03240  Biso   1.000  C
  C39      1.0000 0.32900  0.51400  0.96760  Biso   1.000  C
  C40      1.0000 0.67100  0.48600  0.46760  Biso   1.000  C
  C41      1.0000 0.82900  0.98600  0.46760  Biso   1.000  C
  C42      1.0000 0.17100  0.01400  0.96760  Biso   1.000  C
  C43      1.0000 0.17100  0.98600  0.03240  Biso   1.000  C
  C44      1.0000 0.82900  0.01400  0.53240  Biso   1.000  C
  C45      1.0000 0.32900  0.48600  0.46760  Biso   1.000  C
  C46      1.0000 0.67100  0.51400  0.96760  Biso   1.000  C
  C47      1.0000 0.67100  0.48600  0.03240  Biso   1.000  C
  C48      1.0000 0.32900  0.51400  0.53240  Biso   1.000  C
  H1       1.0000 0.17472  0.99882  0.57620  Biso   1.000  H
  H2       1.0000 0.82528  0.00118  0.07620  Biso   1.000  H
  H3       1.0000 0.82528  0.99882  0.92380  Biso   1.000  H
  H4       1.0000 0.17472  0.00118  0.42380  Biso   1.000  H
  H5       1.0000 0.67472  0.49882  0.57620  Biso   1.000  H
  H6       1.0000 0.32528  0.50118  0.07620  Biso   1.000  H
  H7       1.0000 0.32528  0.49882  0.92380  Biso   1.000  H
  H8       1.0000 0.67472  0.50118  0.42380  Biso   1.000  H
  H9       1.0000 0.82528  0.00118  0.42380  Biso   1.000  H
  H10      1.0000 0.17472  0.99882  0.92380  Biso   1.000  H
  H11      1.0000 0.17472  0.00118  0.07620  Biso   1.000  H
  H12      1.0000 0.82528  0.99882  0.57620  Biso   1.000  H
  H13      1.0000 0.32528  0.50118  0.42380  Biso   1.000  H
  H14      1.0000 0.67472  0.49882  0.92380  Biso   1.000  H
  H15      1.0000 0.67472  0.50118  0.07620  Biso   1.000  H
  H16      1.0000 0.32528  0.49882  0.57620  Biso   1.000  H
  H17      1.0000 0.13952  0.02911  0.53466  Biso   1.000  H
  H18      1.0000 0.86048  0.97089  0.03466  Biso   1.000  H
  H19      1.0000 0.86048  0.02911  0.96534  Biso   1.000  H
  H20      1.0000 0.13952  0.97089  0.46534  Biso   1.000  H
  H21      1.0000 0.63952  0.52911  0.53466  Biso   1.000  H
  H22      1.0000 0.36048  0.47089  0.03466  Biso   1.000  H
  H23      1.0000 0.36048  0.52911  0.96534  Biso   1.000  H
  H24      1.0000 0.63952  0.47089  0.46534  Biso   1.000  H
  H25      1.0000 0.86048  0.97089  0.46534  Biso   1.000  H
  H26      1.0000 0.13952  0.02911  0.96534  Biso   1.000  H
  H27      1.0000 0.13952  0.97089  0.03466  Biso   1.000  H
  H28      1.0000 0.86048  0.02911  0.53466  Biso   1.000  H
  H29      1.0000 0.36048  0.47089  0.46534  Biso   1.000  H
  H30      1.0000 0.63952  0.52911  0.96534  Biso   1.000  H
  H31      1.0000 0.63952  0.47089  0.03466  Biso   1.000  H
  H32      1.0000 0.36048  0.52911  0.53466  Biso   1.000  H
  C49      1.0000 0.32193  0.07475  0.54620  Biso   1.000  C
  C50      1.0000 0.67807  0.92525  0.04620  Biso   1.000  C
  C51      1.0000 0.67807  0.07475  0.95380  Biso   1.000  C
  C52      1.0000 0.32193  0.92525  0.45380  Biso   1.000  C
  C53      1.0000 0.82193  0.57475  0.54620  Biso   1.000  C
  C54      1.0000 0.17807  0.42525  0.04620  Biso   1.000  C
  C55      1.0000 0.17807  0.57475  0.95380  Biso   1.000  C
  C56      1.0000 0.82193  0.42525  0.45380  Biso   1.000  C
  C57      1.0000 0.67807  0.92525  0.45380  Biso   1.000  C
  C58      1.0000 0.32193  0.07475  0.95380  Biso   1.000  C
  C59      1.0000 0.32193  0.92525  0.04620  Biso   1.000  C
  C60      1.0000 0.67807  0.07475  0.54620  Biso   1.000  C
  C61      1.0000 0.17807  0.42525  0.45380  Biso   1.000  C
  C62      1.0000 0.82193  0.57475  0.95380  Biso   1.000  C
  C63      1.0000 0.82193  0.42525  0.04620  Biso   1.000  C
  C64      1.0000 0.17807  0.57475  0.54620  Biso   1.000  C
  C65      1.0000 0.29775  0.11021  0.52754  Biso   1.000  C
  C66      1.0000 0.70225  0.88979  0.02754  Biso   1.000  C
  C67      1.0000 0.70225  0.11021  0.97246  Biso   1.000  C
  C68      1.0000 0.29775  0.88979  0.47246  Biso   1.000  C
  C69      1.0000 0.79775  0.61021  0.52754  Biso   1.000  C
  C70      1.0000 0.20225  0.38979  0.02754  Biso   1.000  C
  C71      1.0000 0.20225  0.61021  0.97246  Biso   1.000  C
  C72      1.0000 0.79775  0.38979  0.47246  Biso   1.000  C
  C73      1.0000 0.70225  0.88979  0.47246  Biso   1.000  C
  C74      1.0000 0.29775  0.11021  0.97246  Biso   1.000  C
  C75      1.0000 0.29775  0.88979  0.02754  Biso   1.000  C
  C76      1.0000 0.70225  0.11021  0.52754  Biso   1.000  C
  C77      1.0000 0.20225  0.38979  0.47246  Biso   1.000  C
  C78      1.0000 0.79775  0.61021  0.97246  Biso   1.000  C
  C79      1.0000 0.79775  0.38979  0.02754  Biso   1.000  C
  C80      1.0000 0.20225  0.61021  0.52754  Biso   1.000  C
  H33      1.0000 0.26844  0.10955  0.49973  Biso   1.000  H
  H34      1.0000 0.73156  0.89045  0.99973  Biso   1.000  H
  H35      1.0000 0.73156  0.10955  0.00027  Biso   1.000  H
  H36      1.0000 0.26844  0.89045  0.50027  Biso   1.000  H
  H37      1.0000 0.76844  0.60955  0.49973  Biso   1.000  H
  H38      1.0000 0.23156  0.39045  0.99973  Biso   1.000  H
  H39      1.0000 0.23156  0.60955  0.00027  Biso   1.000  H
  H40      1.0000 0.76844  0.39045  0.50027  Biso   1.000  H
  H41      1.0000 0.73156  0.89045  0.50027  Biso   1.000  H
  H42      1.0000 0.26844  0.10955  0.00027  Biso   1.000  H
  H43      1.0000 0.26844  0.89045  0.99973  Biso   1.000  H
  H44      1.0000 0.73156  0.10955  0.49973  Biso   1.000  H
  H45      1.0000 0.23156  0.39045  0.50027  Biso   1.000  H
  H46      1.0000 0.76844  0.60955  0.00027  Biso   1.000  H
  H47      1.0000 0.76844  0.39045  0.99973  Biso   1.000  H
  H48      1.0000 0.23156  0.60955  0.49973  Biso   1.000  H
  C81      1.0000 0.31736  0.14675  0.55041  Biso   1.000  C
  C82      1.0000 0.68264  0.85325  0.05041  Biso   1.000  C
  C83      1.0000 0.68264  0.14675  0.94959  Biso   1.000  C
  C84      1.0000 0.31736  0.85325  0.44959  Biso   1.000  C
  C85      1.0000 0.81736  0.64675  0.55041  Biso   1.000  C
  C86      1.0000 0.18264  0.35325  0.05041  Biso   1.000  C
  C87      1.0000 0.18264  0.64675  0.94959  Biso   1.000  C
  C88      1.0000 0.81736  0.35325  0.44959  Biso   1.000  C
  C89      1.0000 0.68264  0.85325  0.44959  Biso   1.000  C
  C90      1.0000 0.31736  0.14675  0.94959  Biso   1.000  C
  C91      1.0000 0.31736  0.85325  0.05041  Biso   1.000  C
  C92      1.0000 0.68264  0.14675  0.55041  Biso   1.000  C
  C93      1.0000 0.18264  0.35325  0.44959  Biso   1.000  C
  C94      1.0000 0.81736  0.64675  0.94959  Biso   1.000  C
  C95      1.0000 0.81736  0.35325  0.05041  Biso   1.000  C
  C96      1.0000 0.18264  0.64675  0.55041  Biso   1.000  C
  C97      1.0000 0.36130  0.14814  0.59153  Biso   1.000  C
  C98      1.0000 0.63870  0.85186  0.09153  Biso   1.000  C
  C99      1.0000 0.63870  0.14814  0.90847  Biso   1.000  C
  C100     1.0000 0.36130  0.85186  0.40847  Biso   1.000  C
  C101     1.0000 0.86130  0.64814  0.59153  Biso   1.000  C
  C102     1.0000 0.13870  0.35186  0.09153  Biso   1.000  C
  C103     1.0000 0.13870  0.64814  0.90847  Biso   1.000  C
  C104     1.0000 0.86130  0.35186  0.40847  Biso   1.000  C
  C105     1.0000 0.63870  0.85186  0.40847  Biso   1.000  C
  C106     1.0000 0.36130  0.14814  0.90847  Biso   1.000  C
  C107     1.0000 0.36130  0.85186  0.09153  Biso   1.000  C
  C108     1.0000 0.63870  0.14814  0.59153  Biso   1.000  C
  C109     1.0000 0.13870  0.35186  0.40847  Biso   1.000  C
  C110     1.0000 0.86130  0.64814  0.90847  Biso   1.000  C
  C111     1.0000 0.86130  0.35186  0.09153  Biso   1.000  C
  C112     1.0000 0.13870  0.64814  0.59153  Biso   1.000  C
  H49      1.0000 0.37459  0.17266  0.60578  Biso   1.000  H
  H50      1.0000 0.62541  0.82734  0.10578  Biso   1.000  H
  H51      1.0000 0.62541  0.17266  0.89422  Biso   1.000  H
  H52      1.0000 0.37459  0.82734  0.39422  Biso   1.000  H
  H53      1.0000 0.87459  0.67266  0.60578  Biso   1.000  H
  H54      1.0000 0.12541  0.32734  0.10578  Biso   1.000  H
  H55      1.0000 0.12541  0.67266  0.89422  Biso   1.000  H
  H56      1.0000 0.87459  0.32734  0.39422  Biso   1.000  H
  H57      1.0000 0.62541  0.82734  0.39422  Biso   1.000  H
  H58      1.0000 0.37459  0.17266  0.89422  Biso   1.000  H
  H59      1.0000 0.37459  0.82734  0.10578  Biso   1.000  H
  H60      1.0000 0.62541  0.17266  0.60578  Biso   1.000  H
  H61      1.0000 0.12541  0.32734  0.39422  Biso   1.000  H
  H62      1.0000 0.87459  0.67266  0.89422  Biso   1.000  H
  H63      1.0000 0.87459  0.32734  0.10578  Biso   1.000  H
  H64      1.0000 0.12541  0.67266  0.60578  Biso   1.000  H
  C113     1.0000 0.38534  0.11291  0.61132  Biso   1.000  C
  C114     1.0000 0.61466  0.88709  0.11132  Biso   1.000  C
  C115     1.0000 0.61466  0.11291  0.88868  Biso   1.000  C
  C116     1.0000 0.38534  0.88709  0.38868  Biso   1.000  C
  C117     1.0000 0.88534  0.61291  0.61132  Biso   1.000  C
  C118     1.0000 0.11466  0.38709  0.11132  Biso   1.000  C
  C119     1.0000 0.11466  0.61291  0.88868  Biso   1.000  C
  C120     1.0000 0.88534  0.38709  0.38868  Biso   1.000  C
  C121     1.0000 0.61466  0.88709  0.38868  Biso   1.000  C
  C122     1.0000 0.38534  0.11291  0.88868  Biso   1.000  C
  C123     1.0000 0.38534  0.88709  0.11132  Biso   1.000  C
  C124     1.0000 0.61466  0.11291  0.61132  Biso   1.000  C
  C125     1.0000 0.11466  0.38709  0.38868  Biso   1.000  C
  C126     1.0000 0.88534  0.61291  0.88868  Biso   1.000  C
  C127     1.0000 0.88534  0.38709  0.11132  Biso   1.000  C
  C128     1.0000 0.11466  0.61291  0.61132  Biso   1.000  C
  C129     1.0000 0.36606  0.07656  0.58820  Biso   1.000  C
  C130     1.0000 0.63394  0.92344  0.08820  Biso   1.000  C
  C131     1.0000 0.63394  0.07656  0.91180  Biso   1.000  C
  C132     1.0000 0.36606  0.92344  0.41180  Biso   1.000  C
  C133     1.0000 0.86606  0.57656  0.58820  Biso   1.000  C
  C134     1.0000 0.13394  0.42344  0.08820  Biso   1.000  C
  C135     1.0000 0.13394  0.57656  0.91180  Biso   1.000  C
  C136     1.0000 0.86606  0.42344  0.41180  Biso   1.000  C
  C137     1.0000 0.63394  0.92344  0.41180  Biso   1.000  C
  C138     1.0000 0.36606  0.07656  0.91180  Biso   1.000  C
  C139     1.0000 0.36606  0.92344  0.08820  Biso   1.000  C
  C140     1.0000 0.63394  0.07656  0.58820  Biso   1.000  C
  C141     1.0000 0.13394  0.42344  0.41180  Biso   1.000  C
  C142     1.0000 0.86606  0.57656  0.91180  Biso   1.000  C
  C143     1.0000 0.86606  0.42344  0.08820  Biso   1.000  C
  C144     1.0000 0.13394  0.57656  0.58820  Biso   1.000  C
  H65      1.0000 0.38264  0.05301  0.60075  Biso   1.000  H
  H66      1.0000 0.61736  0.94699  0.10075  Biso   1.000  H
  H67      1.0000 0.61736  0.05301  0.89925  Biso   1.000  H
  H68      1.0000 0.38264  0.94699  0.39925  Biso   1.000  H
  H69      1.0000 0.88264  0.55301  0.60075  Biso   1.000  H
  H70      1.0000 0.11736  0.44699  0.10075  Biso   1.000  H
  H71      1.0000 0.11736  0.55301  0.89925  Biso   1.000  H
  H72      1.0000 0.88264  0.44699  0.39925  Biso   1.000  H
  H73      1.0000 0.61736  0.94699  0.39925  Biso   1.000  H
  H74      1.0000 0.38264  0.05301  0.89925  Biso   1.000  H
  H75      1.0000 0.38264  0.94699  0.10075  Biso   1.000  H
  H76      1.0000 0.61736  0.05301  0.60075  Biso   1.000  H
  H77      1.0000 0.11736  0.44699  0.39925  Biso   1.000  H
  H78      1.0000 0.88264  0.55301  0.89925  Biso   1.000  H
  H79      1.0000 0.88264  0.44699  0.10075  Biso   1.000  H
  H80      1.0000 0.11736  0.55301  0.60075  Biso   1.000  H
  C145     1.0000 0.29203  0.18469  0.52946  Biso   1.000  C
  C146     1.0000 0.70797  0.81531  0.02946  Biso   1.000  C
  C147     1.0000 0.70797  0.18469  0.97054  Biso   1.000  C
  C148     1.0000 0.29203  0.81531  0.47054  Biso   1.000  C
  C149     1.0000 0.79203  0.68469  0.52946  Biso   1.000  C
  C150     1.0000 0.20797  0.31531  0.02946  Biso   1.000  C
  C151     1.0000 0.20797  0.68469  0.97054  Biso   1.000  C
  C152     1.0000 0.79203  0.31531  0.47054  Biso   1.000  C
  C153     1.0000 0.70797  0.81531  0.47054  Biso   1.000  C
  C154     1.0000 0.29203  0.18469  0.97054  Biso   1.000  C
  C155     1.0000 0.29203  0.81531  0.02946  Biso   1.000  C
  C156     1.0000 0.70797  0.18469  0.52946  Biso   1.000  C
  C157     1.0000 0.20797  0.31531  0.47054  Biso   1.000  C
  C158     1.0000 0.79203  0.68469  0.97054  Biso   1.000  C
  C159     1.0000 0.79203  0.31531  0.02946  Biso   1.000  C
  C160     1.0000 0.20797  0.68469  0.52946  Biso   1.000  C
  C161     1.0000 0.43037  0.11333  0.65840  Biso   1.000  C
  C162     1.0000 0.56963  0.88667  0.15840  Biso   1.000  C
  C163     1.0000 0.56963  0.11333  0.84160  Biso   1.000  C
  C164     1.0000 0.43037  0.88667  0.34160  Biso   1.000  C
  C165     1.0000 0.93037  0.61333  0.65840  Biso   1.000  C
  C166     1.0000 0.06963  0.38667  0.15840  Biso   1.000  C
  C167     1.0000 0.06963  0.61333  0.84160  Biso   1.000  C
  C168     1.0000 0.93037  0.38667  0.34160  Biso   1.000  C
  C169     1.0000 0.56963  0.88667  0.34160  Biso   1.000  C
  C170     1.0000 0.43037  0.11333  0.84160  Biso   1.000  C
  C171     1.0000 0.43037  0.88667  0.15840  Biso   1.000  C
  C172     1.0000 0.56963  0.11333  0.65840  Biso   1.000  C
  C173     1.0000 0.06963  0.38667  0.34160  Biso   1.000  C
  C174     1.0000 0.93037  0.61333  0.84160  Biso   1.000  C
  C175     1.0000 0.93037  0.38667  0.15840  Biso   1.000  C
  C176     1.0000 0.06963  0.61333  0.65840  Biso   1.000  C
  C177     1.0000 0.04770  0.20795  0.75000  Biso   1.000  C
  C178     1.0000 0.95230  0.79205  0.25000  Biso   1.000  C
  C179     1.0000 0.95230  0.20795  0.75000  Biso   1.000  C
  C180     1.0000 0.04770  0.79205  0.25000  Biso   1.000  C
  C181     1.0000 0.54770  0.70795  0.75000  Biso   1.000  C
  C182     1.0000 0.45230  0.29205  0.25000  Biso   1.000  C
  C183     1.0000 0.45230  0.70795  0.75000  Biso   1.000  C
  C184     1.0000 0.54770  0.29205  0.25000  Biso   1.000  C
  C185     1.0000 0.02800  0.17710  0.79520  Biso   1.000  C
  C186     1.0000 0.97200  0.82290  0.29520  Biso   1.000  C
  C187     1.0000 0.97200  0.17710  0.70480  Biso   1.000  C
  C188     1.0000 0.02800  0.82290  0.20480  Biso   1.000  C
  C189     1.0000 0.52800  0.67710  0.79520  Biso   1.000  C
  C190     1.0000 0.47200  0.32290  0.29520  Biso   1.000  C
  C191     1.0000 0.47200  0.67710  0.70480  Biso   1.000  C
  C192     1.0000 0.52800  0.32290  0.20480  Biso   1.000  C
  C193     1.0000 0.97200  0.82290  0.20480  Biso   1.000  C
  C194     1.0000 0.02800  0.17710  0.70480  Biso   1.000  C
  C195     1.0000 0.02800  0.82290  0.29520  Biso   1.000  C
  C196     1.0000 0.97200  0.17710  0.79520  Biso   1.000  C
  C197     1.0000 0.47200  0.32290  0.20480  Biso   1.000  C
  C198     1.0000 0.52800  0.67710  0.70480  Biso   1.000  C
  C199     1.0000 0.52800  0.32290  0.29520  Biso   1.000  C
  C200     1.0000 0.47200  0.67710  0.79520  Biso   1.000  C
  C201     1.0000 0.02812  0.12470  0.87410  Biso   1.000  C
  C202     1.0000 0.97188  0.87530  0.37410  Biso   1.000  C
  C203     1.0000 0.97188  0.12470  0.62590  Biso   1.000  C
  C204     1.0000 0.02812  0.87530  0.12590  Biso   1.000  C
  C205     1.0000 0.52812  0.62470  0.87410  Biso   1.000  C
  C206     1.0000 0.47188  0.37530  0.37410  Biso   1.000  C
  C207     1.0000 0.47188  0.62470  0.62590  Biso   1.000  C
  C208     1.0000 0.52812  0.37530  0.12590  Biso   1.000  C
  C209     1.0000 0.97188  0.87530  0.12590  Biso   1.000  C
  C210     1.0000 0.02812  0.12470  0.62590  Biso   1.000  C
  C211     1.0000 0.02812  0.87530  0.37410  Biso   1.000  C
  C212     1.0000 0.97188  0.12470  0.87410  Biso   1.000  C
  C213     1.0000 0.47188  0.37530  0.12590  Biso   1.000  C
  C214     1.0000 0.52812  0.62470  0.62590  Biso   1.000  C
  C215     1.0000 0.52812  0.37530  0.37410  Biso   1.000  C
  C216     1.0000 0.47188  0.62470  0.87410  Biso   1.000  C
  H81      1.0000 0.03889  0.13070  0.92243  Biso   1.000  H
  H82      1.0000 0.96111  0.86930  0.42243  Biso   1.000  H
  H83      1.0000 0.96111  0.13070  0.57757  Biso   1.000  H
  H84      1.0000 0.03889  0.86930  0.07757  Biso   1.000  H
  H85      1.0000 0.53889  0.63070  0.92243  Biso   1.000  H
  H86      1.0000 0.46111  0.36930  0.42243  Biso   1.000  H
  H87      1.0000 0.46111  0.63070  0.57757  Biso   1.000  H
  H88      1.0000 0.53889  0.36930  0.07757  Biso   1.000  H
  H89      1.0000 0.96111  0.86930  0.07757  Biso   1.000  H
  H90      1.0000 0.03889  0.13070  0.57757  Biso   1.000  H
  H91      1.0000 0.03889  0.86930  0.42243  Biso   1.000  H
  H92      1.0000 0.96111  0.13070  0.92243  Biso   1.000  H
  H93      1.0000 0.46111  0.36930  0.07757  Biso   1.000  H
  H94      1.0000 0.53889  0.63070  0.57757  Biso   1.000  H
  H95      1.0000 0.53889  0.36930  0.42243  Biso   1.000  H
  H96      1.0000 0.46111  0.63070  0.92243  Biso   1.000  H
  H97      1.0000 0.03889  0.09750  0.86421  Biso   1.000  H
  H98      1.0000 0.96111  0.90250  0.36421  Biso   1.000  H
  H99      1.0000 0.96111  0.09750  0.63579  Biso   1.000  H
  H100     1.0000 0.03889  0.90250  0.13579  Biso   1.000  H
  H101     1.0000 0.53889  0.59750  0.86421  Biso   1.000  H
  H102     1.0000 0.46111  0.40250  0.36421  Biso   1.000  H
  H103     1.0000 0.46111  0.59750  0.63579  Biso   1.000  H
  H104     1.0000 0.53889  0.40250  0.13579  Biso   1.000  H
  H105     1.0000 0.96111  0.90250  0.13579  Biso   1.000  H
  H106     1.0000 0.03889  0.09750  0.63579  Biso   1.000  H
  H107     1.0000 0.03889  0.90250  0.36421  Biso   1.000  H
  H108     1.0000 0.96111  0.09750  0.86421  Biso   1.000  H
  H109     1.0000 0.46111  0.40250  0.13579  Biso   1.000  H
  H110     1.0000 0.53889  0.59750  0.63579  Biso   1.000  H
  H111     1.0000 0.53889  0.40250  0.36421  Biso   1.000  H
  H112     1.0000 0.46111  0.59750  0.86421  Biso   1.000  H
  C217     1.0000 0.10105  0.21957  0.75000  Biso   1.000  C
  C218     1.0000 0.89895  0.78043  0.25000  Biso   1.000  C
  C219     1.0000 0.89895  0.21957  0.75000  Biso   1.000  C
  C220     1.0000 0.10105  0.78043  0.25000  Biso   1.000  C
  C221     1.0000 0.60105  0.71957  0.75000  Biso   1.000  C
  C222     1.0000 0.39895  0.28043  0.25000  Biso   1.000  C
  C223     1.0000 0.39895  0.71957  0.75000  Biso   1.000  C
  C224     1.0000 0.60105  0.28043  0.25000  Biso   1.000  C
  C225     1.0000 0.12682  0.22685  0.68615  Biso   1.000  C
  C226     1.0000 0.87318  0.77315  0.18615  Biso   1.000  C
  C227     1.0000 0.87318  0.22685  0.81385  Biso   1.000  C
  C228     1.0000 0.12682  0.77315  0.31385  Biso   1.000  C
  C229     1.0000 0.62682  0.72685  0.68615  Biso   1.000  C
  C230     1.0000 0.37318  0.27315  0.18615  Biso   1.000  C
  C231     1.0000 0.37318  0.72685  0.81385  Biso   1.000  C
  C232     1.0000 0.62682  0.27315  0.31385  Biso   1.000  C
  C233     1.0000 0.87318  0.77315  0.31385  Biso   1.000  C
  C234     1.0000 0.12682  0.22685  0.81385  Biso   1.000  C
  C235     1.0000 0.12682  0.77315  0.18615  Biso   1.000  C
  C236     1.0000 0.87318  0.22685  0.68615  Biso   1.000  C
  C237     1.0000 0.37318  0.27315  0.31385  Biso   1.000  C
  C238     1.0000 0.62682  0.72685  0.81385  Biso   1.000  C
  C239     1.0000 0.62682  0.27315  0.18615  Biso   1.000  C
  C240     1.0000 0.37318  0.72685  0.68615  Biso   1.000  C
  H113     1.0000 0.11039  0.22223  0.64299  Biso   1.000  H
  H114     1.0000 0.88961  0.77777  0.14299  Biso   1.000  H
  H115     1.0000 0.88961  0.22223  0.85701  Biso   1.000  H
  H116     1.0000 0.11039  0.77777  0.35701  Biso   1.000  H
  H117     1.0000 0.61039  0.72223  0.64299  Biso   1.000  H
  H118     1.0000 0.38961  0.27777  0.14299  Biso   1.000  H
  H119     1.0000 0.38961  0.72223  0.85701  Biso   1.000  H
  H120     1.0000 0.61039  0.27777  0.35701  Biso   1.000  H
  H121     1.0000 0.88961  0.77777  0.35701  Biso   1.000  H
  H122     1.0000 0.11039  0.22223  0.85701  Biso   1.000  H
  H123     1.0000 0.11039  0.77777  0.14299  Biso   1.000  H
  H124     1.0000 0.88961  0.22223  0.64299  Biso   1.000  H
  H125     1.0000 0.38961  0.27777  0.35701  Biso   1.000  H
  H126     1.0000 0.61039  0.72223  0.85701  Biso   1.000  H
  H127     1.0000 0.61039  0.27777  0.14299  Biso   1.000  H
  H128     1.0000 0.38961  0.72223  0.64299  Biso   1.000  H
  C241     1.0000 0.17667  0.24090  0.68612  Biso   1.000  C
  C242     1.0000 0.82333  0.75910  0.18612  Biso   1.000  C
  C243     1.0000 0.82333  0.24090  0.81388  Biso   1.000  C
  C244     1.0000 0.17667  0.75910  0.31388  Biso   1.000  C
  C245     1.0000 0.67667  0.74090  0.68612  Biso   1.000  C
  C246     1.0000 0.32333  0.25910  0.18612  Biso   1.000  C
  C247     1.0000 0.32333  0.74090  0.81388  Biso   1.000  C
  C248     1.0000 0.67667  0.25910  0.31388  Biso   1.000  C
  C249     1.0000 0.82333  0.75910  0.31388  Biso   1.000  C
  C250     1.0000 0.17667  0.24090  0.81388  Biso   1.000  C
  C251     1.0000 0.17667  0.75910  0.18612  Biso   1.000  C
  C252     1.0000 0.82333  0.24090  0.68612  Biso   1.000  C
  C253     1.0000 0.32333  0.25910  0.31388  Biso   1.000  C
  C254     1.0000 0.67667  0.74090  0.81388  Biso   1.000  C
  C255     1.0000 0.67667  0.25910  0.18612  Biso   1.000  C
  C256     1.0000 0.32333  0.74090  0.68612  Biso   1.000  C
  C257     1.0000 0.20087  0.24852  0.75000  Biso   1.000  C
  C258     1.0000 0.79913  0.75148  0.25000  Biso   1.000  C
  C259     1.0000 0.79913  0.24852  0.75000  Biso   1.000  C
  C260     1.0000 0.20087  0.75148  0.25000  Biso   1.000  C
  C261     1.0000 0.70087  0.74852  0.75000  Biso   1.000  C
  C262     1.0000 0.29913  0.25148  0.25000  Biso   1.000  C
  C263     1.0000 0.29913  0.74852  0.75000  Biso   1.000  C
  C264     1.0000 0.70087  0.25148  0.25000  Biso   1.000  C
  H129     1.0000 0.23374  0.25887  0.75000  Biso   1.000  H
  H130     1.0000 0.76626  0.74113  0.25000  Biso   1.000  H
  H131     1.0000 0.76626  0.25887  0.75000  Biso   1.000  H
  H132     1.0000 0.23374  0.74113  0.25000  Biso   1.000  H
  H133     1.0000 0.73374  0.75887  0.75000  Biso   1.000  H
  H134     1.0000 0.26626  0.24113  0.25000  Biso   1.000  H
  H135     1.0000 0.26626  0.75887  0.75000  Biso   1.000  H
  H136     1.0000 0.73374  0.24113  0.25000  Biso   1.000  H
  C265     1.0000 0.20394  0.24620  0.61685  Biso   1.000  C
  C266     1.0000 0.79606  0.75380  0.11685  Biso   1.000  C
  C267     1.0000 0.79606  0.24620  0.88315  Biso   1.000  C
  C268     1.0000 0.20394  0.75380  0.38315  Biso   1.000  C
  C269     1.0000 0.70394  0.74620  0.61685  Biso   1.000  C
  C270     1.0000 0.29606  0.25380  0.11685  Biso   1.000  C
  C271     1.0000 0.29606  0.74620  0.88315  Biso   1.000  C
  C272     1.0000 0.70394  0.25380  0.38315  Biso   1.000  C
  C273     1.0000 0.79606  0.75380  0.38315  Biso   1.000  C
  C274     1.0000 0.20394  0.24620  0.88315  Biso   1.000  C
  C275     1.0000 0.20394  0.75380  0.11685  Biso   1.000  C
  C276     1.0000 0.79606  0.24620  0.61685  Biso   1.000  C
  C277     1.0000 0.29606  0.25380  0.38315  Biso   1.000  C
  C278     1.0000 0.70394  0.74620  0.88315  Biso   1.000  C
  C279     1.0000 0.70394  0.25380  0.11685  Biso   1.000  C
  C280     1.0000 0.29606  0.74620  0.61685  Biso   1.000  C
