data_image0
_cell_length_a       8.598
_cell_length_b       10.378
_cell_length_c       11.205
_cell_angle_alpha    96.43
_cell_angle_beta     94.34
_cell_angle_gamma    91.16

_symmetry_space_group_name_H-M    "P 1"
_symmetry_int_tables_number       1

loop_
  _symmetry_equiv_pos_as_xyz
  'x, y, z'

loop_
  _atom_site_label
  _atom_site_occupancy
  _atom_site_fract_x
  _atom_site_fract_y
  _atom_site_fract_z
  _atom_site_thermal_displace_type
  _atom_site_B_iso_or_equiv
  _atom_site_type_symbol
  Cu1      1.0000 0.92180  0.26630  0.19670  Biso   1.000  Cu
  Cu2      1.0000 0.07820  0.73370  0.80330  Biso   1.000  Cu
  S1       1.0000 0.71110  0.45270  0.21370  Biso   1.000  S
  S2       1.0000 0.28890  0.54730  0.78630  Biso   1.000  S
  S3       1.0000 0.52010  0.33330  0.21700  Biso   1.000  S
  S4       1.0000 0.47990  0.66670  0.78300  Biso   1.000  S
  O1       1.0000 0.90500  0.28410  0.36820  Biso   1.000  O
  O2       1.0000 0.09500  0.71590  0.63180  Biso   1.000  O
  O3       1.0000 0.81740  0.36970  0.53610  Biso   1.000  O
  O4       1.0000 0.18260  0.63030  0.46390  Biso   1.000  O
  O5       1.0000 0.75820  0.34490  0.52680  Biso   1.000  O
  O6       1.0000 0.24180  0.65510  0.47320  Biso   1.000  O
  O7       1.0000 0.08100  0.40810  0.20360  Biso   1.000  O
  O8       1.0000 0.91900  0.59190  0.79640  Biso   1.000  O
  O9       1.0000 0.22570  0.23810  0.23110  Biso   1.000  O
  O10      1.0000 0.77430  0.76190  0.76890  Biso   1.000  O
  O11      1.0000 0.35990  0.09840  0.41160  Biso   1.000  O
  O12      1.0000 0.64010  0.90160  0.58840  Biso   1.000  O
  O13      1.0000 0.30070  0.10190  0.44520  Biso   1.000  O
  O14      1.0000 0.69930  0.89810  0.55480  Biso   1.000  O
  O15      1.0000 0.06990  0.11620  0.50990  Biso   1.000  O
  O16      1.0000 0.93010  0.88380  0.49010  Biso   1.000  O
  O17      1.0000 0.09450  0.08680  0.48210  Biso   1.000  O
  O18      1.0000 0.90550  0.91320  0.51790  Biso   1.000  O
  O19      1.0000 0.60920  0.15990  0.57310  Biso   1.000  O
  O20      1.0000 0.39080  0.84010  0.42690  Biso   1.000  O
  O21      1.0000 0.53860  0.28500  0.60970  Biso   1.000  O
  O22      1.0000 0.46140  0.71500  0.39030  Biso   1.000  O
  N1       1.0000 0.92980  0.22290  0.01900  Biso   1.000  N
  N2       1.0000 0.07020  0.77710  0.98100  Biso   1.000  N
  N3       1.0000 0.79030  0.10190  0.17400  Biso   1.000  N
  N4       1.0000 0.20970  0.89810  0.82600  Biso   1.000  N
  C1       1.0000 0.83420  0.36930  0.42930  Biso   1.000  C
  C2       1.0000 0.16580  0.63070  0.57070  Biso   1.000  C
  C3       1.0000 0.80030  0.50000  0.36420  Biso   1.000  C
  C4       1.0000 0.19970  0.50000  0.63580  Biso   1.000  C
  C5       1.0000 0.75200  0.46970  0.38880  Biso   1.000  C
  C6       1.0000 0.24800  0.53030  0.61120  Biso   1.000  C
  C7       1.0000 0.70810  0.59400  0.43570  Biso   1.000  C
  C8       1.0000 0.29190  0.40600  0.56430  Biso   1.000  C
  C9       1.0000 0.85110  0.59650  0.42600  Biso   1.000  C
  C10      1.0000 0.14890  0.40350  0.57400  Biso   1.000  C
  C11      1.0000 0.35990  0.44980  0.23180  Biso   1.000  C
  C12      1.0000 0.64010  0.55020  0.76820  Biso   1.000  C
  C13      1.0000 0.35390  0.54280  0.14700  Biso   1.000  C
  C14      1.0000 0.64610  0.45720  0.85300  Biso   1.000  C
  C15      1.0000 0.21100  0.35410  0.22050  Biso   1.000  C
  C16      1.0000 0.78900  0.64590  0.77950  Biso   1.000  C
  C17      1.0000 0.00600  0.29390  0.94690  Biso   1.000  C
  C18      1.0000 0.99400  0.70610  0.05310  Biso   1.000  C
  C19      1.0000 0.00850  0.25500  0.82830  Biso   1.000  C
  C20      1.0000 0.99150  0.74500  0.17170  Biso   1.000  C
  C21      1.0000 0.85190  0.11420  0.97090  Biso   1.000  C
  C22      1.0000 0.14810  0.88580  0.02910  Biso   1.000  C
  C23      1.0000 0.84850  0.07150  0.84990  Biso   1.000  C
  C24      1.0000 0.15150  0.92850  0.15010  Biso   1.000  C
  C25      1.0000 0.92950  0.14510  0.77750  Biso   1.000  C
  C26      1.0000 0.07050  0.85490  0.22250  Biso   1.000  C
  C27      1.0000 0.77110  0.04480  0.05930  Biso   1.000  C
  C28      1.0000 0.22890  0.95520  0.94070  Biso   1.000  C
  C29      1.0000 0.68190  0.93270  0.02730  Biso   1.000  C
  C30      1.0000 0.31810  0.06730  0.97270  Biso   1.000  C
  C31      1.0000 0.61120  0.87650  0.11730  Biso   1.000  C
  C32      1.0000 0.38880  0.12350  0.88270  Biso   1.000  C
  C33      1.0000 0.63010  0.93350  0.23220  Biso   1.000  C
  C34      1.0000 0.36990  0.06650  0.76780  Biso   1.000  C
  C35      1.0000 0.72050  0.04570  0.25830  Biso   1.000  C
  C36      1.0000 0.27950  0.95430  0.74170  Biso   1.000  C
  H1       1.0000 0.89980  0.54460  0.35800  Biso   1.000  H
  H2       1.0000 0.10020  0.45540  0.64200  Biso   1.000  H
  H3       1.0000 0.68640  0.67190  0.38700  Biso   1.000  H
  H4       1.0000 0.31360  0.32810  0.61300  Biso   1.000  H
  H5       1.0000 0.76770  0.61670  0.52070  Biso   1.000  H
  H6       1.0000 0.23230  0.38330  0.47930  Biso   1.000  H
  H7       1.0000 0.59400  0.54340  0.44750  Biso   1.000  H
  H8       1.0000 0.40600  0.45660  0.55250  Biso   1.000  H
  H9       1.0000 0.36770  0.50970  0.31310  Biso   1.000  H
  H10      1.0000 0.63230  0.49030  0.68690  Biso   1.000  H
  H11      1.0000 0.46020  0.59950  0.15960  Biso   1.000  H
  H12      1.0000 0.53980  0.40050  0.84040  Biso   1.000  H
  H13      1.0000 0.25490  0.59820  0.15820  Biso   1.000  H
  H14      1.0000 0.74510  0.40180  0.84180  Biso   1.000  H
  H15      1.0000 0.34660  0.48910  0.05550  Biso   1.000  H
  H16      1.0000 0.65340  0.51090  0.94450  Biso   1.000  H
  H17      1.0000 0.06590  0.38330  0.98490  Biso   1.000  H
  H18      1.0000 0.93410  0.61670  0.01510  Biso   1.000  H
  H19      1.0000 0.07360  0.31170  0.77280  Biso   1.000  H
  H20      1.0000 0.92640  0.68830  0.22720  Biso   1.000  H
  H21      1.0000 0.92970  0.11530  0.68210  Biso   1.000  H
  H22      1.0000 0.07030  0.88470  0.31790  Biso   1.000  H
  H23      1.0000 0.78550  0.98330  0.81240  Biso   1.000  H
  H24      1.0000 0.21450  0.01670  0.18760  Biso   1.000  H
  H25      1.0000 0.66740  0.88950  0.93470  Biso   1.000  H
  H26      1.0000 0.33260  0.11050  0.06530  Biso   1.000  H
  H27      1.0000 0.54160  0.78800  0.09530  Biso   1.000  H
  H28      1.0000 0.45840  0.21200  0.90470  Biso   1.000  H
  H29      1.0000 0.57500  0.89160  0.30280  Biso   1.000  H
  H30      1.0000 0.42500  0.10840  0.69720  Biso   1.000  H
  H31      1.0000 0.73540  0.09010  0.35050  Biso   1.000  H
  H32      1.0000 0.26460  0.90990  0.64950  Biso   1.000  H
