data_image0
_cell_length_a       9.686
_cell_length_b       9.409
_cell_length_c       21.231
_cell_angle_alpha    90
_cell_angle_beta     102
_cell_angle_gamma    90

_symmetry_space_group_name_H-M    "P 1"
_symmetry_int_tables_number       1

loop_
  _symmetry_equiv_pos_as_xyz
  'x, y, z'

loop_
  _atom_site_label
  _atom_site_occupancy
  _atom_site_fract_x
  _atom_site_fract_y
  _atom_site_fract_z
  _atom_site_thermal_displace_type
  _atom_site_B_iso_or_equiv
  _atom_site_type_symbol
  Cu1      1.0000 0.14910  0.41620  0.49390  Biso   1.000  Cu
  Cu2      1.0000 0.35090  0.91620  0.00610  Biso   1.000  Cu
  Cu3      1.0000 0.85090  0.58380  0.50610  Biso   1.000  Cu
  Cu4      1.0000 0.64910  0.08380  0.99390  Biso   1.000  Cu
  S1       1.0000 0.90440  0.15390  0.28300  Biso   1.000  S
  S2       1.0000 0.59560  0.65390  0.21700  Biso   1.000  S
  S3       1.0000 0.09560  0.84610  0.71700  Biso   1.000  S
  S4       1.0000 0.40440  0.34610  0.78300  Biso   1.000  S
  S5       1.0000 0.70560  0.20340  0.29260  Biso   1.000  S
  S6       1.0000 0.79440  0.70340  0.20740  Biso   1.000  S
  S7       1.0000 0.29440  0.79660  0.70740  Biso   1.000  S
  S8       1.0000 0.20560  0.29660  0.79260  Biso   1.000  S
  O1       1.0000 0.04580  0.24050  0.47310  Biso   1.000  O
  O2       1.0000 0.45420  0.74050  0.02690  Biso   1.000  O
  O3       1.0000 0.95420  0.75950  0.52690  Biso   1.000  O
  O4       1.0000 0.54580  0.25950  0.97310  Biso   1.000  O
  O5       1.0000 0.19460  0.14680  0.41710  Biso   1.000  O
  O6       1.0000 0.30540  0.64680  0.08290  Biso   1.000  O
  O7       1.0000 0.80540  0.85320  0.58290  Biso   1.000  O
  O8       1.0000 0.69460  0.35320  0.91710  Biso   1.000  O
  O9       1.0000 0.50430  0.01750  0.06350  Biso   1.000  O
  O10      1.0000 0.99570  0.51750  0.43650  Biso   1.000  O
  O11      1.0000 0.49570  0.98250  0.93650  Biso   1.000  O
  O12      1.0000 0.00430  0.48250  0.56350  Biso   1.000  O
  O13      1.0000 0.37790  0.98520  0.13780  Biso   1.000  O
  O14      1.0000 0.12210  0.48520  0.36220  Biso   1.000  O
  O15      1.0000 0.62210  0.01480  0.86220  Biso   1.000  O
  O16      1.0000 0.87790  0.51480  0.63780  Biso   1.000  O
  O17      1.0000 0.26760  0.38290  0.27540  Biso   1.000  O
  O18      1.0000 0.23240  0.88290  0.22460  Biso   1.000  O
  O19      1.0000 0.73240  0.61710  0.72460  Biso   1.000  O
  O20      1.0000 0.76760  0.11710  0.77540  Biso   1.000  O
  O21      1.0000 0.18900  0.59970  0.18730  Biso   1.000  O
  O22      1.0000 0.31100  0.09970  0.31270  Biso   1.000  O
  O23      1.0000 0.81100  0.40030  0.81270  Biso   1.000  O
  O24      1.0000 0.68900  0.90030  0.68730  Biso   1.000  O
  N1       1.0000 0.31180  0.33120  0.55470  Biso   1.000  N
  N2       1.0000 0.18820  0.83120  0.94530  Biso   1.000  N
  N3       1.0000 0.68820  0.66880  0.44530  Biso   1.000  N
  N4       1.0000 0.81180  0.16880  0.05470  Biso   1.000  N
  N5       1.0000 0.27220  0.58760  0.51150  Biso   1.000  N
  N6       1.0000 0.22780  0.08760  0.98850  Biso   1.000  N
  N7       1.0000 0.72780  0.41240  0.48850  Biso   1.000  N
  N8       1.0000 0.77220  0.91240  0.01150  Biso   1.000  N
  C1       1.0000 0.07930  0.15190  0.43280  Biso   1.000  C
  C2       1.0000 0.42070  0.65190  0.06720  Biso   1.000  C
  C3       1.0000 0.92070  0.84810  0.56720  Biso   1.000  C
  C4       1.0000 0.57930  0.34810  0.93280  Biso   1.000  C
  C5       1.0000 0.96460  0.04320  0.40770  Biso   1.000  C
  C6       1.0000 0.53540  0.54320  0.09230  Biso   1.000  C
  C7       1.0000 0.03540  0.95680  0.59230  Biso   1.000  C
  C8       1.0000 0.46460  0.45680  0.90770  Biso   1.000  C
  C9       1.0000 0.95210  0.00600  0.33770  Biso   1.000  C
  C10      1.0000 0.54790  0.50600  0.16230  Biso   1.000  C
  C11      1.0000 0.04790  0.99400  0.66230  Biso   1.000  C
  C12      1.0000 0.45210  0.49400  0.83770  Biso   1.000  C
  C13      1.0000 0.59060  0.08420  0.23830  Biso   1.000  C
  C14      1.0000 0.90940  0.58420  0.26170  Biso   1.000  C
  C15      1.0000 0.40940  0.91580  0.76170  Biso   1.000  C
  C16      1.0000 0.09060  0.41580  0.73830  Biso   1.000  C
  C17      1.0000 0.60840  0.09080  0.16960  Biso   1.000  C
  C18      1.0000 0.89160  0.59080  0.33040  Biso   1.000  C
  C19      1.0000 0.39160  0.90920  0.83040  Biso   1.000  C
  C20      1.0000 0.10840  0.40920  0.66960  Biso   1.000  C
  C21      1.0000 0.48670  0.02450  0.12220  Biso   1.000  C
  C22      1.0000 0.01330  0.52450  0.37780  Biso   1.000  C
  C23      1.0000 0.51330  0.97550  0.87780  Biso   1.000  C
  C24      1.0000 0.98670  0.47550  0.62220  Biso   1.000  C
  C25      1.0000 0.32050  0.19490  0.57470  Biso   1.000  C
  C26      1.0000 0.17950  0.69490  0.92530  Biso   1.000  C
  C27      1.0000 0.67950  0.80510  0.42530  Biso   1.000  C
  C28      1.0000 0.82050  0.30510  0.07470  Biso   1.000  C
  C29      1.0000 0.43370  0.14530  0.61940  Biso   1.000  C
  C30      1.0000 0.06630  0.64530  0.88060  Biso   1.000  C
  C31      1.0000 0.56630  0.85470  0.38060  Biso   1.000  C
  C32      1.0000 0.93370  0.35470  0.11940  Biso   1.000  C
  C33      1.0000 0.54240  0.23790  0.64420  Biso   1.000  C
  C34      1.0000 0.95760  0.73790  0.85580  Biso   1.000  C
  C35      1.0000 0.45760  0.76210  0.35580  Biso   1.000  C
  C36      1.0000 0.04240  0.26210  0.14420  Biso   1.000  C
  C37      1.0000 0.53540  0.37660  0.62350  Biso   1.000  C
  C38      1.0000 0.96460  0.87660  0.87650  Biso   1.000  C
  C39      1.0000 0.46460  0.62340  0.37650  Biso   1.000  C
  C40      1.0000 0.03540  0.12340  0.12350  Biso   1.000  C
  C41      1.0000 0.41820  0.42010  0.57800  Biso   1.000  C
  C42      1.0000 0.08180  0.92010  0.92200  Biso   1.000  C
  C43      1.0000 0.58180  0.57990  0.42200  Biso   1.000  C
  C44      1.0000 0.91820  0.07990  0.07800  Biso   1.000  C
  C45      1.0000 0.39900  0.56560  0.55230  Biso   1.000  C
  C46      1.0000 0.10100  0.06560  0.94770  Biso   1.000  C
  C47      1.0000 0.60100  0.43440  0.44770  Biso   1.000  C
  C48      1.0000 0.89900  0.93440  0.05230  Biso   1.000  C
  C49      1.0000 0.49700  0.67370  0.56750  Biso   1.000  C
  C50      1.0000 0.00300  0.17370  0.93250  Biso   1.000  C
  C51      1.0000 0.50300  0.32630  0.43250  Biso   1.000  C
  C52      1.0000 0.99700  0.82630  0.06750  Biso   1.000  C
  C53      1.0000 0.46690  0.80660  0.54070  Biso   1.000  C
  C54      1.0000 0.03310  0.30660  0.95930  Biso   1.000  C
  C55      1.0000 0.53310  0.19340  0.45930  Biso   1.000  C
  C56      1.0000 0.96690  0.69340  0.04070  Biso   1.000  C
  C57      1.0000 0.33680  0.82960  0.49950  Biso   1.000  C
  C58      1.0000 0.16320  0.32960  0.00050  Biso   1.000  C
  C59      1.0000 0.66320  0.17040  0.50050  Biso   1.000  C
  C60      1.0000 0.83680  0.67040  0.99950  Biso   1.000  C
  C61      1.0000 0.24300  0.71680  0.48670  Biso   1.000  C
  C62      1.0000 0.25700  0.21680  0.01330  Biso   1.000  C
  C63      1.0000 0.75700  0.28320  0.51330  Biso   1.000  C
  C64      1.0000 0.74300  0.78320  0.98670  Biso   1.000  C
  H1       1.0000 0.19500  0.50000  0.28880  Biso   1.000  H
  H2       1.0000 0.30500  0.00000  0.21120  Biso   1.000  H
  H3       1.0000 0.80500  0.50000  0.71120  Biso   1.000  H
  H4       1.0000 0.69500  0.00000  0.78880  Biso   1.000  H
  H5       1.0000 0.28900  0.28790  0.28730  Biso   1.000  H
  H6       1.0000 0.21100  0.78790  0.21270  Biso   1.000  H
  H7       1.0000 0.71100  0.71210  0.71270  Biso   1.000  H
  H8       1.0000 0.78900  0.21210  0.78730  Biso   1.000  H
  H9       1.0000 0.23720  0.60410  0.14760  Biso   1.000  H
  H10      1.0000 0.26280  0.10410  0.35240  Biso   1.000  H
  H11      1.0000 0.76280  0.39590  0.85240  Biso   1.000  H
  H12      1.0000 0.73720  0.89590  0.64760  Biso   1.000  H
  H13      1.0000 0.22060  0.53140  0.22040  Biso   1.000  H
  H14      1.0000 0.27940  0.03140  0.27960  Biso   1.000  H
  H15      1.0000 0.77940  0.46860  0.77960  Biso   1.000  H
  H16      1.0000 0.72060  0.96860  0.72040  Biso   1.000  H
  H17      1.0000 0.23590  0.12260  0.55500  Biso   1.000  H
  H18      1.0000 0.26410  0.62260  0.94500  Biso   1.000  H
  H19      1.0000 0.76410  0.87740  0.44500  Biso   1.000  H
  H20      1.0000 0.73590  0.37740  0.05500  Biso   1.000  H
  H21      1.0000 0.43770  0.03580  0.63490  Biso   1.000  H
  H22      1.0000 0.06230  0.53580  0.86510  Biso   1.000  H
  H23      1.0000 0.56230  0.96420  0.36510  Biso   1.000  H
  H24      1.0000 0.93770  0.46420  0.13490  Biso   1.000  H
  H25      1.0000 0.63220  0.20140  0.67960  Biso   1.000  H
  H26      1.0000 0.86780  0.70140  0.82040  Biso   1.000  H
  H27      1.0000 0.36780  0.79860  0.32040  Biso   1.000  H
  H28      1.0000 0.13220  0.29860  0.17960  Biso   1.000  H
  H29      1.0000 0.61920  0.45050  0.64220  Biso   1.000  H
  H30      1.0000 0.88080  0.95050  0.85780  Biso   1.000  H
  H31      1.0000 0.38080  0.54950  0.35780  Biso   1.000  H
  H32      1.0000 0.11920  0.04950  0.14220  Biso   1.000  H
  H33      1.0000 0.59650  0.65410  0.60020  Biso   1.000  H
  H34      1.0000 0.90350  0.15410  0.89980  Biso   1.000  H
  H35      1.0000 0.40350  0.34590  0.39980  Biso   1.000  H
  H36      1.0000 0.09650  0.84590  0.10020  Biso   1.000  H
  H37      1.0000 0.54310  0.89160  0.55120  Biso   1.000  H
  H38      1.0000 0.95690  0.39160  0.94880  Biso   1.000  H
  H39      1.0000 0.45690  0.10840  0.44880  Biso   1.000  H
  H40      1.0000 0.04310  0.60840  0.05120  Biso   1.000  H
  H41      1.0000 0.30950  0.93270  0.47810  Biso   1.000  H
  H42      1.0000 0.19050  0.43270  0.02190  Biso   1.000  H
  H43      1.0000 0.69050  0.06730  0.52190  Biso   1.000  H
  H44      1.0000 0.80950  0.56730  0.97810  Biso   1.000  H
  H45      1.0000 0.14180  0.73450  0.45510  Biso   1.000  H
  H46      1.0000 0.35820  0.23450  0.04490  Biso   1.000  H
  H47      1.0000 0.85820  0.26550  0.54490  Biso   1.000  H
  H48      1.0000 0.64180  0.76550  0.95510  Biso   1.000  H
  H49      1.0000 0.86480  0.08620  0.41380  Biso   1.000  H
  H50      1.0000 0.63520  0.58620  0.08620  Biso   1.000  H
  H51      1.0000 0.13520  0.91380  0.58620  Biso   1.000  H
  H52      1.0000 0.36480  0.41380  0.91380  Biso   1.000  H
  H53      1.0000 0.98770  0.94740  0.43590  Biso   1.000  H
  H54      1.0000 0.51230  0.44740  0.06410  Biso   1.000  H
  H55      1.0000 0.01230  0.05260  0.56410  Biso   1.000  H
  H56      1.0000 0.48770  0.55260  0.93590  Biso   1.000  H
  H57      1.0000 0.05260  0.96510  0.33150  Biso   1.000  H
  H58      1.0000 0.44740  0.46510  0.16850  Biso   1.000  H
  H59      1.0000 0.94740  0.03490  0.66850  Biso   1.000  H
  H60      1.0000 0.55260  0.53490  0.83150  Biso   1.000  H
  H61      1.0000 0.87250  0.92470  0.32520  Biso   1.000  H
  H62      1.0000 0.62750  0.42470  0.17480  Biso   1.000  H
  H63      1.0000 0.12750  0.07530  0.67480  Biso   1.000  H
  H64      1.0000 0.37250  0.57530  0.82520  Biso   1.000  H
  H65      1.0000 0.48260  0.11080  0.23940  Biso   1.000  H
  H66      1.0000 0.01740  0.61080  0.26060  Biso   1.000  H
  H67      1.0000 0.51740  0.88920  0.76060  Biso   1.000  H
  H68      1.0000 0.98260  0.38920  0.73940  Biso   1.000  H
  H69      1.0000 0.61250  0.97680  0.25550  Biso   1.000  H
  H70      1.0000 0.88750  0.47680  0.24450  Biso   1.000  H
  H71      1.0000 0.38750  0.02320  0.74450  Biso   1.000  H
  H72      1.0000 0.11250  0.52320  0.75550  Biso   1.000  H
  H73      1.0000 0.61680  0.20100  0.15670  Biso   1.000  H
  H74      1.0000 0.88320  0.70100  0.34330  Biso   1.000  H
  H75      1.0000 0.38320  0.79900  0.84330  Biso   1.000  H
  H76      1.0000 0.11680  0.29900  0.65670  Biso   1.000  H
  H77      1.0000 0.70420  0.03560  0.16610  Biso   1.000  H
  H78      1.0000 0.79580  0.53560  0.33390  Biso   1.000  H
  H79      1.0000 0.29580  0.96440  0.83390  Biso   1.000  H
  H80      1.0000 0.20420  0.46440  0.66610  Biso   1.000  H
