data_image0
_cell_length_a       9.842
_cell_length_b       14.782
_cell_length_c       8.5491
_cell_angle_alpha    90
_cell_angle_beta     102.34
_cell_angle_gamma    90

_symmetry_space_group_name_H-M    "P 1"
_symmetry_int_tables_number       1

loop_
  _symmetry_equiv_pos_as_xyz
  'x, y, z'

loop_
  _atom_site_label
  _atom_site_occupancy
  _atom_site_fract_x
  _atom_site_fract_y
  _atom_site_fract_z
  _atom_site_thermal_displace_type
  _atom_site_B_iso_or_equiv
  _atom_site_type_symbol
  Cu1      1.0000 0.83877  0.96201  0.00021  Biso   1.000  Cu
  Cu2      1.0000 0.16123  0.46201  0.49979  Biso   1.000  Cu
  Cu3      1.0000 0.16123  0.03799  0.99979  Biso   1.000  Cu
  Cu4      1.0000 0.83877  0.53799  0.50021  Biso   1.000  Cu
  O1       1.0000 0.87630  0.84220  0.92990  Biso   1.000  O
  O2       1.0000 0.12370  0.34220  0.57010  Biso   1.000  O
  O3       1.0000 0.12370  0.15780  0.07010  Biso   1.000  O
  O4       1.0000 0.87630  0.65780  0.42990  Biso   1.000  O
  O5       1.0000 0.71600  0.75350  0.00650  Biso   1.000  O
  O6       1.0000 0.28400  0.25350  0.49350  Biso   1.000  O
  O7       1.0000 0.28400  0.24650  0.99350  Biso   1.000  O
  O8       1.0000 0.71600  0.74650  0.50650  Biso   1.000  O
  O9       1.0000 0.17130  0.56070  0.87960  Biso   1.000  O
  O10      1.0000 0.82870  0.06070  0.62040  Biso   1.000  O
  O11      1.0000 0.82870  0.43930  0.12040  Biso   1.000  O
  O12      1.0000 0.17130  0.93930  0.37960  Biso   1.000  O
  O13      1.0000 0.02170  0.53620  0.65110  Biso   1.000  O
  O14      1.0000 0.97830  0.03620  0.84890  Biso   1.000  O
  O15      1.0000 0.97830  0.46380  0.34890  Biso   1.000  O
  O16      1.0000 0.02170  0.96380  0.15110  Biso   1.000  O
  N1       1.0000 0.78460  0.07930  0.08970  Biso   1.000  N
  N2       1.0000 0.21540  0.57930  0.41030  Biso   1.000  N
  N3       1.0000 0.21540  0.92070  0.91030  Biso   1.000  N
  N4       1.0000 0.78460  0.42070  0.58970  Biso   1.000  N
  N5       1.0000 0.65090  0.97720  0.85480  Biso   1.000  N
  N6       1.0000 0.34910  0.47720  0.64520  Biso   1.000  N
  N7       1.0000 0.34910  0.02280  0.14520  Biso   1.000  N
  N8       1.0000 0.65090  0.52280  0.35480  Biso   1.000  N
  C1       1.0000 0.85900  0.12710  0.21160  Biso   1.000  C
  C2       1.0000 0.14100  0.62710  0.28840  Biso   1.000  C
  C3       1.0000 0.14100  0.87290  0.78840  Biso   1.000  C
  C4       1.0000 0.85900  0.37290  0.71160  Biso   1.000  C
  H1       1.0000 0.94370  0.10400  0.26650  Biso   1.000  H
  H2       1.0000 0.05630  0.60400  0.23350  Biso   1.000  H
  H3       1.0000 0.05630  0.89600  0.73350  Biso   1.000  H
  H4       1.0000 0.94370  0.39600  0.76650  Biso   1.000  H
  C5       1.0000 0.81470  0.20910  0.25880  Biso   1.000  C
  C6       1.0000 0.18530  0.70910  0.24120  Biso   1.000  C
  C7       1.0000 0.18530  0.79090  0.74120  Biso   1.000  C
  C8       1.0000 0.81470  0.29090  0.75880  Biso   1.000  C
  H5       1.0000 0.86780  0.24050  0.34480  Biso   1.000  H
  H6       1.0000 0.13220  0.74050  0.15520  Biso   1.000  H
  H7       1.0000 0.13220  0.75950  0.65520  Biso   1.000  H
  H8       1.0000 0.86780  0.25950  0.84480  Biso   1.000  H
  C9       1.0000 0.68840  0.24400  0.17500  Biso   1.000  C
  C10      1.0000 0.31160  0.74400  0.32500  Biso   1.000  C
  C11      1.0000 0.31160  0.75600  0.82500  Biso   1.000  C
  C12      1.0000 0.68840  0.25600  0.67500  Biso   1.000  C
  H9       1.0000 0.65760  0.30010  0.20210  Biso   1.000  H
  H10      1.0000 0.34240  0.80010  0.29790  Biso   1.000  H
  H11      1.0000 0.34240  0.69990  0.79790  Biso   1.000  H
  H12      1.0000 0.65760  0.19990  0.70210  Biso   1.000  H
  C13      1.0000 0.60940  0.19430  0.05090  Biso   1.000  C
  C14      1.0000 0.39060  0.69430  0.44910  Biso   1.000  C
  C15      1.0000 0.39060  0.80570  0.94910  Biso   1.000  C
  C16      1.0000 0.60940  0.30570  0.55090  Biso   1.000  C
  H13      1.0000 0.52390  0.21600  0.99550  Biso   1.000  H
  H14      1.0000 0.47610  0.71600  0.50450  Biso   1.000  H
  H15      1.0000 0.47610  0.78400  0.00450  Biso   1.000  H
  H16      1.0000 0.52390  0.28400  0.49550  Biso   1.000  H
  C17      1.0000 0.65930  0.11200  0.01030  Biso   1.000  C
  C18      1.0000 0.34070  0.61200  0.48970  Biso   1.000  C
  C19      1.0000 0.34070  0.88800  0.98970  Biso   1.000  C
  C20      1.0000 0.65930  0.38800  0.51030  Biso   1.000  C
  C21      1.0000 0.58390  0.05360  0.87990  Biso   1.000  C
  C22      1.0000 0.41610  0.55360  0.62010  Biso   1.000  C
  C23      1.0000 0.41610  0.94640  0.12010  Biso   1.000  C
  C24      1.0000 0.58390  0.44640  0.37990  Biso   1.000  C
  C25      1.0000 0.45310  0.07390  0.78720  Biso   1.000  C
  C26      1.0000 0.54690  0.57390  0.71280  Biso   1.000  C
  C27      1.0000 0.54690  0.92610  0.21280  Biso   1.000  C
  C28      1.0000 0.45310  0.42610  0.28720  Biso   1.000  C
  H17      1.0000 0.40740  0.12680  0.80520  Biso   1.000  H
  H18      1.0000 0.59260  0.62680  0.69480  Biso   1.000  H
  H19      1.0000 0.59260  0.87320  0.19480  Biso   1.000  H
  H20      1.0000 0.40740  0.37320  0.30520  Biso   1.000  H
  C29      1.0000 0.39250  0.01490  0.66890  Biso   1.000  C
  C30      1.0000 0.60750  0.51490  0.83110  Biso   1.000  C
  C31      1.0000 0.60750  0.98510  0.33110  Biso   1.000  C
  C32      1.0000 0.39250  0.48510  0.16890  Biso   1.000  C
  H21      1.0000 0.30460  0.02690  0.60690  Biso   1.000  H
  H22      1.0000 0.69540  0.52690  0.89310  Biso   1.000  H
  H23      1.0000 0.69540  0.97310  0.39310  Biso   1.000  H
  H24      1.0000 0.30460  0.47310  0.10690  Biso   1.000  H
  C33      1.0000 0.46280  0.93750  0.64220  Biso   1.000  C
  C34      1.0000 0.53720  0.43750  0.85780  Biso   1.000  C
  C35      1.0000 0.53720  0.06250  0.35780  Biso   1.000  C
  C36      1.0000 0.46280  0.56250  0.14220  Biso   1.000  C
  H25      1.0000 0.42360  0.89720  0.56160  Biso   1.000  H
  H26      1.0000 0.57640  0.39720  0.93840  Biso   1.000  H
  H27      1.0000 0.57640  0.10280  0.43840  Biso   1.000  H
  H28      1.0000 0.42360  0.60280  0.06160  Biso   1.000  H
  C37      1.0000 0.59190  0.92110  0.73720  Biso   1.000  C
  C38      1.0000 0.40810  0.42110  0.76280  Biso   1.000  C
  C39      1.0000 0.40810  0.07890  0.26280  Biso   1.000  C
  C40      1.0000 0.59190  0.57890  0.23720  Biso   1.000  C
  H29      1.0000 0.63980  0.86930  0.71900  Biso   1.000  H
  H30      1.0000 0.36020  0.36930  0.78100  Biso   1.000  H
  H31      1.0000 0.36020  0.13070  0.28100  Biso   1.000  H
  H32      1.0000 0.63980  0.63070  0.21900  Biso   1.000  H
  C41      1.0000 0.81780  0.76630  0.94770  Biso   1.000  C
  C42      1.0000 0.18220  0.26630  0.55230  Biso   1.000  C
  C43      1.0000 0.18220  0.23370  0.05230  Biso   1.000  C
  C44      1.0000 0.81780  0.73370  0.44770  Biso   1.000  C
  C45      1.0000 0.89100  0.69060  0.88980  Biso   1.000  C
  C46      1.0000 0.10900  0.19060  0.61020  Biso   1.000  C
  C47      1.0000 0.10900  0.30940  0.11020  Biso   1.000  C
  C48      1.0000 0.89100  0.80940  0.38980  Biso   1.000  C
  C49      1.0000 0.95800  0.63310  0.84250  Biso   1.000  C
  C50      1.0000 0.04200  0.13310  0.65750  Biso   1.000  C
  C51      1.0000 0.04200  0.36690  0.15750  Biso   1.000  C
  C52      1.0000 0.95800  0.86690  0.34250  Biso   1.000  C
  C53      1.0000 0.05760  0.57160  0.79010  Biso   1.000  C
  C54      1.0000 0.94240  0.07160  0.70990  Biso   1.000  C
  C55      1.0000 0.94240  0.42840  0.20990  Biso   1.000  C
  C56      1.0000 0.05760  0.92840  0.29010  Biso   1.000  C
