data_image0
_cell_length_a       13.4993
_cell_length_b       8.9437
_cell_length_c       20.9454
_cell_angle_alpha    90
_cell_angle_beta     100.521
_cell_angle_gamma    90

_symmetry_space_group_name_H-M    "P 1"
_symmetry_int_tables_number       1

loop_
  _symmetry_equiv_pos_as_xyz
  'x, y, z'

loop_
  _atom_site_label
  _atom_site_occupancy
  _atom_site_fract_x
  _atom_site_fract_y
  _atom_site_fract_z
  _atom_site_thermal_displace_type
  _atom_site_B_iso_or_equiv
  _atom_site_type_symbol
  Cu1      1.0000 0.21183  0.98289  0.32762  Biso   1.000  Cu
  Cu2      1.0000 0.28817  0.48289  0.17238  Biso   1.000  Cu
  Cu3      1.0000 0.78817  0.01711  0.67238  Biso   1.000  Cu
  Cu4      1.0000 0.71183  0.51711  0.82762  Biso   1.000  Cu
  O1       1.0000 0.15452  0.75200  0.28171  Biso   1.000  O
  O2       1.0000 0.34548  0.25200  0.21829  Biso   1.000  O
  O3       1.0000 0.84548  0.24800  0.71829  Biso   1.000  O
  O4       1.0000 0.65452  0.74800  0.78171  Biso   1.000  O
  O5       1.0000 0.27346  0.61840  0.24560  Biso   1.000  O
  O6       1.0000 0.22654  0.11840  0.25440  Biso   1.000  O
  O7       1.0000 0.72654  0.38160  0.75440  Biso   1.000  O
  O8       1.0000 0.77346  0.88160  0.74560  Biso   1.000  O
  N1       1.0000 0.06888  0.05750  0.31836  Biso   1.000  N
  N2       1.0000 0.43112  0.55750  0.18164  Biso   1.000  N
  N3       1.0000 0.93112  0.94250  0.68164  Biso   1.000  N
  N4       1.0000 0.56888  0.44250  0.81836  Biso   1.000  N
  N5       1.0000 0.22713  0.20810  0.39820  Biso   1.000  N
  N6       1.0000 0.27287  0.70810  0.10180  Biso   1.000  N
  N7       1.0000 0.77287  0.79190  0.60180  Biso   1.000  N
  N8       1.0000 0.72713  0.29190  0.89820  Biso   1.000  N
  N9       1.0000 0.21297  0.89330  0.41738  Biso   1.000  N
  N10      1.0000 0.28703  0.39330  0.08262  Biso   1.000  N
  N11      1.0000 0.78703  0.10670  0.58262  Biso   1.000  N
  N12      1.0000 0.71297  0.60670  0.91738  Biso   1.000  N
  N13      1.0000 0.14094  0.44820  0.17279  Biso   1.000  N
  N14      1.0000 0.35906  0.94820  0.32721  Biso   1.000  N
  N15      1.0000 0.85906  0.55180  0.82721  Biso   1.000  N
  N16      1.0000 0.64094  0.05180  0.67279  Biso   1.000  N
  C1       1.0000 0.98770  0.97420  0.29375  Biso   1.000  C
  C2       1.0000 0.51230  0.47420  0.20625  Biso   1.000  C
  C3       1.0000 0.01230  0.02580  0.70625  Biso   1.000  C
  C4       1.0000 0.48770  0.52580  0.79375  Biso   1.000  C
  H1       1.0000 0.99730  0.87230  0.28360  Biso   1.000  H
  H2       1.0000 0.50270  0.37230  0.21640  Biso   1.000  H
  H3       1.0000 0.00270  0.12770  0.71640  Biso   1.000  H
  H4       1.0000 0.49730  0.62770  0.78360  Biso   1.000  H
  C5       1.0000 0.89090  0.03110  0.28265  Biso   1.000  C
  C6       1.0000 0.60910  0.53110  0.21735  Biso   1.000  C
  C7       1.0000 0.10910  0.96890  0.71735  Biso   1.000  C
  C8       1.0000 0.39090  0.46890  0.78265  Biso   1.000  C
  H5       1.0000 0.83540  0.97070  0.26360  Biso   1.000  H
  H6       1.0000 0.66460  0.47070  0.23640  Biso   1.000  H
  H7       1.0000 0.16460  0.02930  0.73640  Biso   1.000  H
  H8       1.0000 0.33540  0.52930  0.76360  Biso   1.000  H
  C9       1.0000 0.87620  0.17760  0.29972  Biso   1.000  C
  C10      1.0000 0.62380  0.67760  0.20028  Biso   1.000  C
  C11      1.0000 0.12380  0.82240  0.70028  Biso   1.000  C
  C12      1.0000 0.37620  0.32240  0.79972  Biso   1.000  C
  H9       1.0000 0.81040  0.21910  0.29320  Biso   1.000  H
  H10      1.0000 0.68960  0.71910  0.20680  Biso   1.000  H
  H11      1.0000 0.18960  0.78090  0.70680  Biso   1.000  H
  H12      1.0000 0.31040  0.28090  0.79320  Biso   1.000  H
  C13      1.0000 0.95960  0.26340  0.32656  Biso   1.000  C
  C14      1.0000 0.54040  0.76340  0.17344  Biso   1.000  C
  C15      1.0000 0.04040  0.73660  0.67344  Biso   1.000  C
  C16      1.0000 0.45960  0.23660  0.82656  Biso   1.000  C
  H13      1.0000 0.95120  0.36370  0.33950  Biso   1.000  H
  H14      1.0000 0.54880  0.86370  0.16050  Biso   1.000  H
  H15      1.0000 0.04880  0.63630  0.66050  Biso   1.000  H
  H16      1.0000 0.45120  0.13630  0.83950  Biso   1.000  H
  C17      1.0000 0.05500  0.20030  0.33412  Biso   1.000  C
  C18      1.0000 0.44500  0.70030  0.16588  Biso   1.000  C
  C19      1.0000 0.94500  0.79970  0.66588  Biso   1.000  C
  C20      1.0000 0.55500  0.29970  0.83412  Biso   1.000  C
  C21      1.0000 0.14770  0.29510  0.35730  Biso   1.000  C
  C22      1.0000 0.35230  0.79510  0.14270  Biso   1.000  C
  C23      1.0000 0.85230  0.70490  0.64270  Biso   1.000  C
  C24      1.0000 0.64770  0.20490  0.85730  Biso   1.000  C
  H17      1.0000 0.17350  0.33450  0.31930  Biso   1.000  H
  H18      1.0000 0.32650  0.83450  0.18070  Biso   1.000  H
  H19      1.0000 0.82650  0.66550  0.68070  Biso   1.000  H
  H20      1.0000 0.67350  0.16550  0.81930  Biso   1.000  H
  H21      1.0000 0.12920  0.38130  0.38240  Biso   1.000  H
  H22      1.0000 0.37080  0.88130  0.11760  Biso   1.000  H
  H23      1.0000 0.87080  0.61870  0.61760  Biso   1.000  H
  H24      1.0000 0.62920  0.11870  0.88240  Biso   1.000  H
  C25      1.0000 0.19670  0.15070  0.45739  Biso   1.000  C
  C26      1.0000 0.30330  0.65070  0.04261  Biso   1.000  C
  C27      1.0000 0.80330  0.84930  0.54261  Biso   1.000  C
  C28      1.0000 0.69670  0.34930  0.95739  Biso   1.000  C
  H25      1.0000 0.12500  0.17640  0.45600  Biso   1.000  H
  H26      1.0000 0.37500  0.67640  0.04400  Biso   1.000  H
  H27      1.0000 0.87500  0.82360  0.54400  Biso   1.000  H
  H28      1.0000 0.62500  0.32360  0.95600  Biso   1.000  H
  H29      1.0000 0.23650  0.20290  0.49520  Biso   1.000  H
  H30      1.0000 0.26350  0.70290  0.00480  Biso   1.000  H
  H31      1.0000 0.76350  0.79710  0.50480  Biso   1.000  H
  H32      1.0000 0.73650  0.29710  0.99520  Biso   1.000  H
  C29      1.0000 0.20910  0.98440  0.46820  Biso   1.000  C
  C30      1.0000 0.29090  0.48440  0.03180  Biso   1.000  C
  C31      1.0000 0.79090  0.01560  0.53180  Biso   1.000  C
  C32      1.0000 0.70910  0.51560  0.96820  Biso   1.000  C
  C33      1.0000 0.21110  0.92660  0.53035  Biso   1.000  C
  C34      1.0000 0.28890  0.42660  0.96965  Biso   1.000  C
  C35      1.0000 0.78890  0.07340  0.46965  Biso   1.000  C
  C36      1.0000 0.71110  0.57340  0.03035  Biso   1.000  C
  H33      1.0000 0.20880  0.99210  0.56570  Biso   1.000  H
  H34      1.0000 0.29120  0.49210  0.93430  Biso   1.000  H
  H35      1.0000 0.79120  0.00790  0.43430  Biso   1.000  H
  H36      1.0000 0.70880  0.50790  0.06570  Biso   1.000  H
  C37      1.0000 0.21650  0.77550  0.54014  Biso   1.000  C
  C38      1.0000 0.28350  0.27550  0.95986  Biso   1.000  C
  C39      1.0000 0.78350  0.22450  0.45986  Biso   1.000  C
  C40      1.0000 0.71650  0.72450  0.04014  Biso   1.000  C
  H37      1.0000 0.21760  0.73530  0.58230  Biso   1.000  H
  H38      1.0000 0.28240  0.23530  0.91770  Biso   1.000  H
  H39      1.0000 0.78240  0.26470  0.41770  Biso   1.000  H
  H40      1.0000 0.71760  0.76470  0.08230  Biso   1.000  H
  C41      1.0000 0.22020  0.68140  0.48799  Biso   1.000  C
  C42      1.0000 0.27980  0.18140  0.01201  Biso   1.000  C
  C43      1.0000 0.77980  0.31860  0.51201  Biso   1.000  C
  C44      1.0000 0.72020  0.81860  0.98799  Biso   1.000  C
  H41      1.0000 0.22380  0.57610  0.49370  Biso   1.000  H
  H42      1.0000 0.27620  0.07610  0.00630  Biso   1.000  H
  H43      1.0000 0.77620  0.42390  0.50630  Biso   1.000  H
  H44      1.0000 0.72380  0.92390  0.99370  Biso   1.000  H
  C45      1.0000 0.21860  0.74420  0.42773  Biso   1.000  C
  C46      1.0000 0.28140  0.24420  0.07227  Biso   1.000  C
  C47      1.0000 0.78140  0.25580  0.57227  Biso   1.000  C
  C48      1.0000 0.71860  0.75580  0.92773  Biso   1.000  C
  H45      1.0000 0.22150  0.68000  0.39200  Biso   1.000  H
  H46      1.0000 0.27850  0.18000  0.10800  Biso   1.000  H
  H47      1.0000 0.77850  0.32000  0.60800  Biso   1.000  H
  H48      1.0000 0.72150  0.82000  0.89200  Biso   1.000  H
  C49      1.0000 0.32730  0.26710  0.40666  Biso   1.000  C
  C50      1.0000 0.17270  0.76710  0.09334  Biso   1.000  C
  C51      1.0000 0.67270  0.73290  0.59334  Biso   1.000  C
  C52      1.0000 0.82730  0.23290  0.90666  Biso   1.000  C
  C53      1.0000 0.35250  0.38630  0.36956  Biso   1.000  C
  C54      1.0000 0.14750  0.88630  0.13044  Biso   1.000  C
  C55      1.0000 0.64750  0.61370  0.63044  Biso   1.000  C
  C56      1.0000 0.85250  0.11370  0.86956  Biso   1.000  C
  H49      1.0000 0.30110  0.43600  0.34010  Biso   1.000  H
  H50      1.0000 0.19890  0.93600  0.15990  Biso   1.000  H
  H51      1.0000 0.69890  0.56400  0.65990  Biso   1.000  H
  H52      1.0000 0.80110  0.06400  0.84010  Biso   1.000  H
  C57      1.0000 0.45160  0.43300  0.37516  Biso   1.000  C
  C58      1.0000 0.04840  0.93300  0.12484  Biso   1.000  C
  C59      1.0000 0.54840  0.56700  0.62484  Biso   1.000  C
  C60      1.0000 0.95160  0.06700  0.87516  Biso   1.000  C
  H53      1.0000 0.46720  0.51330  0.34900  Biso   1.000  H
  H54      1.0000 0.03280  0.01330  0.15100  Biso   1.000  H
  H55      1.0000 0.53280  0.48670  0.65100  Biso   1.000  H
  H56      1.0000 0.96720  0.98670  0.84900  Biso   1.000  H
  C61      1.0000 0.52790  0.36470  0.41808  Biso   1.000  C
  C62      1.0000 0.97210  0.86470  0.08192  Biso   1.000  C
  C63      1.0000 0.47210  0.63530  0.58192  Biso   1.000  C
  C64      1.0000 0.02790  0.13530  0.91808  Biso   1.000  C
  H57      1.0000 0.59570  0.39730  0.42190  Biso   1.000  H
  H58      1.0000 0.90430  0.89730  0.07810  Biso   1.000  H
  H59      1.0000 0.40430  0.60270  0.57810  Biso   1.000  H
  H60      1.0000 0.09570  0.10270  0.92190  Biso   1.000  H
  C65      1.0000 0.50310  0.24670  0.45579  Biso   1.000  C
  C66      1.0000 0.99690  0.74670  0.04421  Biso   1.000  C
  C67      1.0000 0.49690  0.75330  0.54421  Biso   1.000  C
  C68      1.0000 0.00310  0.25330  0.95579  Biso   1.000  C
  H61      1.0000 0.55480  0.19890  0.48570  Biso   1.000  H
  H62      1.0000 0.94520  0.69890  0.01430  Biso   1.000  H
  H63      1.0000 0.44520  0.80110  0.51430  Biso   1.000  H
  H64      1.0000 0.05480  0.30110  0.98570  Biso   1.000  H
  C69      1.0000 0.40460  0.19790  0.45045  Biso   1.000  C
  C70      1.0000 0.09540  0.69790  0.04955  Biso   1.000  C
  C71      1.0000 0.59540  0.80210  0.54955  Biso   1.000  C
  C72      1.0000 0.90460  0.30210  0.95045  Biso   1.000  C
  H65      1.0000 0.38940  0.11730  0.47660  Biso   1.000  H
  H66      1.0000 0.11060  0.61730  0.02340  Biso   1.000  H
  H67      1.0000 0.61060  0.88270  0.52340  Biso   1.000  H
  H68      1.0000 0.88940  0.38270  0.97660  Biso   1.000  H
  C73      1.0000 0.07770  0.35040  0.13834  Biso   1.000  C
  C74      1.0000 0.42230  0.85040  0.36166  Biso   1.000  C
  C75      1.0000 0.92230  0.64960  0.86166  Biso   1.000  C
  C76      1.0000 0.57770  0.14960  0.63834  Biso   1.000  C
  H69      1.0000 0.10360  0.27960  0.11180  Biso   1.000  H
  H70      1.0000 0.39640  0.77960  0.38820  Biso   1.000  H
  H71      1.0000 0.89640  0.72040  0.88820  Biso   1.000  H
  H72      1.0000 0.60360  0.22040  0.61180  Biso   1.000  H
  C77      1.0000 0.97500  0.34920  0.14013  Biso   1.000  C
  C78      1.0000 0.52500  0.84920  0.35987  Biso   1.000  C
  C79      1.0000 0.02500  0.65080  0.85987  Biso   1.000  C
  C80      1.0000 0.47500  0.15080  0.64013  Biso   1.000  C
  H73      1.0000 0.93170  0.27780  0.11560  Biso   1.000  H
  H74      1.0000 0.56830  0.77780  0.38440  Biso   1.000  H
  H75      1.0000 0.06830  0.72220  0.88440  Biso   1.000  H
  H76      1.0000 0.43170  0.22220  0.61560  Biso   1.000  H
  C81      1.0000 0.93740  0.45270  0.17790  Biso   1.000  C
  C82      1.0000 0.56260  0.95270  0.32210  Biso   1.000  C
  C83      1.0000 0.06260  0.54730  0.82210  Biso   1.000  C
  C84      1.0000 0.43740  0.04730  0.67790  Biso   1.000  C
  H77      1.0000 0.86750  0.45450  0.17940  Biso   1.000  H
  H78      1.0000 0.63250  0.95450  0.32060  Biso   1.000  H
  H79      1.0000 0.13250  0.54550  0.82060  Biso   1.000  H
  H80      1.0000 0.36750  0.04550  0.67940  Biso   1.000  H
  C85      1.0000 0.00290  0.55530  0.21410  Biso   1.000  C
  C86      1.0000 0.49710  0.05530  0.28590  Biso   1.000  C
  C87      1.0000 0.99710  0.44470  0.78590  Biso   1.000  C
  C88      1.0000 0.50290  0.94470  0.71410  Biso   1.000  C
  H81      1.0000 0.97870  0.62770  0.24070  Biso   1.000  H
  H82      1.0000 0.52130  0.12770  0.25930  Biso   1.000  H
  H83      1.0000 0.02130  0.37230  0.75930  Biso   1.000  H
  H84      1.0000 0.47870  0.87230  0.74070  Biso   1.000  H
  C89      1.0000 0.10370  0.54850  0.21025  Biso   1.000  C
  C90      1.0000 0.39630  0.04850  0.28975  Biso   1.000  C
  C91      1.0000 0.89630  0.45150  0.78975  Biso   1.000  C
  C92      1.0000 0.60370  0.95150  0.71025  Biso   1.000  C
  C93      1.0000 0.18220  0.65050  0.24908  Biso   1.000  C
  C94      1.0000 0.31780  0.15050  0.25092  Biso   1.000  C
  C95      1.0000 0.81780  0.34950  0.75092  Biso   1.000  C
  C96      1.0000 0.68220  0.84950  0.74908  Biso   1.000  C
  O9       1.0000 0.75150  0.75490  0.38329  Biso   1.000  O
  O10      1.0000 0.74850  0.25490  0.11671  Biso   1.000  O
  O11      1.0000 0.24850  0.24510  0.61671  Biso   1.000  O
  O12      1.0000 0.25150  0.74510  0.88329  Biso   1.000  O
  O13      1.0000 0.84247  0.68460  0.29889  Biso   1.000  O
  O14      1.0000 0.65753  0.18460  0.20111  Biso   1.000  O
  O15      1.0000 0.15753  0.31540  0.70111  Biso   1.000  O
  O16      1.0000 0.34247  0.81540  0.79889  Biso   1.000  O
  O17      1.0000 0.78918  0.49490  0.36579  Biso   1.000  O
  O18      1.0000 0.71082  0.99490  0.13421  Biso   1.000  O
  O19      1.0000 0.21082  0.50510  0.63421  Biso   1.000  O
  O20      1.0000 0.28918  0.00510  0.86579  Biso   1.000  O
  C97      1.0000 0.93340  0.66900  0.41650  Biso   1.000  C
  C98      1.0000 0.56660  0.16900  0.08350  Biso   1.000  C
  C99      1.0000 0.06660  0.33100  0.58350  Biso   1.000  C
  C100     1.0000 0.43340  0.83100  0.91650  Biso   1.000  C
  S1       1.0000 0.81388  0.64812  0.35989  Biso   1.000  S
  S2       1.0000 0.68612  0.14812  0.14011  Biso   1.000  S
  S3       1.0000 0.18612  0.35188  0.64011  Biso   1.000  S
  S4       1.0000 0.31388  0.85188  0.85989  Biso   1.000  S
  F1       1.0000 0.96166  0.81110  0.42529  Biso   1.000  F
  F2       1.0000 0.53834  0.31110  0.07471  Biso   1.000  F
  F3       1.0000 0.03834  0.18890  0.57471  Biso   1.000  F
  F4       1.0000 0.46166  0.68890  0.92529  Biso   1.000  F
  F5       1.0000 0.00854  0.59580  0.39627  Biso   1.000  F
  F6       1.0000 0.49146  0.09580  0.10373  Biso   1.000  F
  F7       1.0000 0.99146  0.40420  0.60373  Biso   1.000  F
  F8       1.0000 0.50854  0.90420  0.89627  Biso   1.000  F
  F9       1.0000 0.92778  0.61450  0.47519  Biso   1.000  F
  F10      1.0000 0.57222  0.11450  0.02481  Biso   1.000  F
  F11      1.0000 0.07222  0.38550  0.52481  Biso   1.000  F
  F12      1.0000 0.42778  0.88550  0.97519  Biso   1.000  F
