data_image0
_cell_length_a       10.1579
_cell_length_b       10.364
_cell_length_c       33.313
_cell_angle_alpha    90
_cell_angle_beta     90
_cell_angle_gamma    90

_symmetry_space_group_name_H-M    "P 1"
_symmetry_int_tables_number       1

loop_
  _symmetry_equiv_pos_as_xyz
  'x, y, z'

loop_
  _atom_site_label
  _atom_site_occupancy
  _atom_site_fract_x
  _atom_site_fract_y
  _atom_site_fract_z
  _atom_site_thermal_displace_type
  _atom_site_B_iso_or_equiv
  _atom_site_type_symbol
  Cu1      1.0000 0.04281  0.10412  0.27385  Biso   1.000  Cu
  Cu2      1.0000 0.54281  0.10412  0.22615  Biso   1.000  Cu
  Cu3      1.0000 0.04281  0.89588  0.72615  Biso   1.000  Cu
  Cu4      1.0000 0.54281  0.89588  0.77385  Biso   1.000  Cu
  Cu5      1.0000 0.54281  0.60412  0.27385  Biso   1.000  Cu
  Cu6      1.0000 0.04281  0.60412  0.22615  Biso   1.000  Cu
  Cu7      1.0000 0.54281  0.39588  0.72615  Biso   1.000  Cu
  Cu8      1.0000 0.04281  0.39588  0.77385  Biso   1.000  Cu
  O1       1.0000 0.08570  0.28740  0.30503  Biso   1.000  O
  O2       1.0000 0.58570  0.28740  0.19497  Biso   1.000  O
  O3       1.0000 0.08570  0.71260  0.69497  Biso   1.000  O
  O4       1.0000 0.58570  0.71260  0.80503  Biso   1.000  O
  O5       1.0000 0.58570  0.78740  0.30503  Biso   1.000  O
  O6       1.0000 0.08570  0.78740  0.19497  Biso   1.000  O
  O7       1.0000 0.58570  0.21260  0.69497  Biso   1.000  O
  O8       1.0000 0.08570  0.21260  0.80503  Biso   1.000  O
  O9       1.0000 0.02170  0.42810  0.25843  Biso   1.000  O
  O10      1.0000 0.52170  0.42810  0.24157  Biso   1.000  O
  O11      1.0000 0.02170  0.57190  0.74157  Biso   1.000  O
  O12      1.0000 0.52170  0.57190  0.75843  Biso   1.000  O
  O13      1.0000 0.52170  0.92810  0.25843  Biso   1.000  O
  O14      1.0000 0.02170  0.92810  0.24157  Biso   1.000  O
  O15      1.0000 0.52170  0.07190  0.74157  Biso   1.000  O
  O16      1.0000 0.02170  0.07190  0.75843  Biso   1.000  O
  O17      1.0000 0.36440  0.56780  0.30427  Biso   1.000  O
  O18      1.0000 0.86440  0.56780  0.19573  Biso   1.000  O
  O19      1.0000 0.36440  0.43220  0.69573  Biso   1.000  O
  O20      1.0000 0.86440  0.43220  0.80427  Biso   1.000  O
  O21      1.0000 0.86440  0.06780  0.30427  Biso   1.000  O
  O22      1.0000 0.36440  0.06780  0.19573  Biso   1.000  O
  O23      1.0000 0.86440  0.93220  0.69573  Biso   1.000  O
  O24      1.0000 0.36440  0.93220  0.80427  Biso   1.000  O
  O25      1.0000 0.21970  0.62090  0.25693  Biso   1.000  O
  O26      1.0000 0.71970  0.62090  0.24307  Biso   1.000  O
  O27      1.0000 0.21970  0.37910  0.74307  Biso   1.000  O
  O28      1.0000 0.71970  0.37910  0.75693  Biso   1.000  O
  O29      1.0000 0.71970  0.12090  0.25693  Biso   1.000  O
  O30      1.0000 0.21970  0.12090  0.24307  Biso   1.000  O
  O31      1.0000 0.71970  0.87910  0.74307  Biso   1.000  O
  O32      1.0000 0.21970  0.87910  0.75693  Biso   1.000  O
  O33      1.0000 0.94940  0.20290  0.23069  Biso   1.000  O
  O34      1.0000 0.44940  0.20290  0.26931  Biso   1.000  O
  O35      1.0000 0.94940  0.79710  0.76931  Biso   1.000  O
  O36      1.0000 0.44940  0.79710  0.73069  Biso   1.000  O
  O37      1.0000 0.44940  0.70290  0.23069  Biso   1.000  O
  O38      1.0000 0.94940  0.70290  0.26931  Biso   1.000  O
  O39      1.0000 0.44940  0.29710  0.76931  Biso   1.000  O
  O40      1.0000 0.94940  0.29710  0.73069  Biso   1.000  O
  N1       1.0000 0.13500  0.01380  0.31991  Biso   1.000  N
  N2       1.0000 0.63500  0.01380  0.18009  Biso   1.000  N
  N3       1.0000 0.13500  0.98620  0.68009  Biso   1.000  N
  N4       1.0000 0.63500  0.98620  0.81991  Biso   1.000  N
  N5       1.0000 0.63500  0.51380  0.31991  Biso   1.000  N
  N6       1.0000 0.13500  0.51380  0.18009  Biso   1.000  N
  N7       1.0000 0.63500  0.48620  0.68009  Biso   1.000  N
  N8       1.0000 0.13500  0.48620  0.81991  Biso   1.000  N
  N9       1.0000 0.28470  0.88040  0.45658  Biso   1.000  N
  N10      1.0000 0.78470  0.88040  0.04342  Biso   1.000  N
  N11      1.0000 0.28470  0.11960  0.54342  Biso   1.000  N
  N12      1.0000 0.78470  0.11960  0.95658  Biso   1.000  N
  N13      1.0000 0.78470  0.38040  0.45658  Biso   1.000  N
  N14      1.0000 0.28470  0.38040  0.04342  Biso   1.000  N
  N15      1.0000 0.78470  0.61960  0.54342  Biso   1.000  N
  N16      1.0000 0.28470  0.61960  0.95658  Biso   1.000  N
  C1       1.0000 0.07810  0.39920  0.29171  Biso   1.000  C
  C2       1.0000 0.57810  0.39920  0.20829  Biso   1.000  C
  C3       1.0000 0.07810  0.60080  0.70829  Biso   1.000  C
  C4       1.0000 0.57810  0.60080  0.79171  Biso   1.000  C
  C5       1.0000 0.57810  0.89920  0.29171  Biso   1.000  C
  C6       1.0000 0.07810  0.89920  0.20829  Biso   1.000  C
  C7       1.0000 0.57810  0.10080  0.70829  Biso   1.000  C
  C8       1.0000 0.07810  0.10080  0.79171  Biso   1.000  C
  C9       1.0000 0.13760  0.51310  0.31507  Biso   1.000  C
  C10      1.0000 0.63760  0.51310  0.18493  Biso   1.000  C
  C11      1.0000 0.13760  0.48690  0.68493  Biso   1.000  C
  C12      1.0000 0.63760  0.48690  0.81507  Biso   1.000  C
  C13      1.0000 0.63760  0.01310  0.31507  Biso   1.000  C
  C14      1.0000 0.13760  0.01310  0.18493  Biso   1.000  C
  C15      1.0000 0.63760  0.98690  0.68493  Biso   1.000  C
  C16      1.0000 0.13760  0.98690  0.81507  Biso   1.000  C
  H1       1.0000 0.06900  0.57950  0.31610  Biso   1.000  H
  H2       1.0000 0.56900  0.57950  0.18390  Biso   1.000  H
  H3       1.0000 0.06900  0.42050  0.68390  Biso   1.000  H
  H4       1.0000 0.56900  0.42050  0.81610  Biso   1.000  H
  H5       1.0000 0.56900  0.07950  0.31610  Biso   1.000  H
  H6       1.0000 0.06900  0.07950  0.18390  Biso   1.000  H
  H7       1.0000 0.56900  0.92050  0.68390  Biso   1.000  H
  H8       1.0000 0.06900  0.92050  0.81610  Biso   1.000  H
  C17      1.0000 0.25050  0.57090  0.29081  Biso   1.000  C
  C18      1.0000 0.75050  0.57090  0.20919  Biso   1.000  C
  C19      1.0000 0.25050  0.42910  0.70919  Biso   1.000  C
  C20      1.0000 0.75050  0.42910  0.79081  Biso   1.000  C
  C21      1.0000 0.75050  0.07090  0.29081  Biso   1.000  C
  C22      1.0000 0.25050  0.07090  0.20919  Biso   1.000  C
  C23      1.0000 0.75050  0.92910  0.70919  Biso   1.000  C
  C24      1.0000 0.25050  0.92910  0.79081  Biso   1.000  C
  C25      1.0000 0.17260  0.48350  0.35813  Biso   1.000  C
  C26      1.0000 0.67260  0.48350  0.14187  Biso   1.000  C
  C27      1.0000 0.17260  0.51650  0.64187  Biso   1.000  C
  C28      1.0000 0.67260  0.51650  0.85813  Biso   1.000  C
  C29      1.0000 0.67260  0.98350  0.35813  Biso   1.000  C
  C30      1.0000 0.17260  0.98350  0.14187  Biso   1.000  C
  C31      1.0000 0.67260  0.01650  0.64187  Biso   1.000  C
  C32      1.0000 0.17260  0.01650  0.85813  Biso   1.000  C
  C33      1.0000 0.10890  0.55070  0.38805  Biso   1.000  C
  C34      1.0000 0.60890  0.55070  0.11195  Biso   1.000  C
  C35      1.0000 0.10890  0.44930  0.61195  Biso   1.000  C
  C36      1.0000 0.60890  0.44930  0.88805  Biso   1.000  C
  C37      1.0000 0.60890  0.05070  0.38805  Biso   1.000  C
  C38      1.0000 0.10890  0.05070  0.11195  Biso   1.000  C
  C39      1.0000 0.60890  0.94930  0.61195  Biso   1.000  C
  C40      1.0000 0.10890  0.94930  0.88805  Biso   1.000  C
  H9       1.0000 0.04660  0.61310  0.38150  Biso   1.000  H
  H10      1.0000 0.54660  0.61310  0.11850  Biso   1.000  H
  H11      1.0000 0.04660  0.38690  0.61850  Biso   1.000  H
  H12      1.0000 0.54660  0.38690  0.88150  Biso   1.000  H
  H13      1.0000 0.54660  0.11310  0.38150  Biso   1.000  H
  H14      1.0000 0.04660  0.11310  0.11850  Biso   1.000  H
  H15      1.0000 0.54660  0.88690  0.61850  Biso   1.000  H
  H16      1.0000 0.04660  0.88690  0.88150  Biso   1.000  H
  C41      1.0000 0.13790  0.52480  0.42793  Biso   1.000  C
  C42      1.0000 0.63790  0.52480  0.07207  Biso   1.000  C
  C43      1.0000 0.13790  0.47520  0.57207  Biso   1.000  C
  C44      1.0000 0.63790  0.47520  0.92793  Biso   1.000  C
  C45      1.0000 0.63790  0.02480  0.42793  Biso   1.000  C
  C46      1.0000 0.13790  0.02480  0.07207  Biso   1.000  C
  C47      1.0000 0.63790  0.97520  0.57207  Biso   1.000  C
  C48      1.0000 0.13790  0.97520  0.92793  Biso   1.000  C
  H17      1.0000 0.09360  0.56920  0.44810  Biso   1.000  H
  H18      1.0000 0.59360  0.56920  0.05190  Biso   1.000  H
  H19      1.0000 0.09360  0.43080  0.55190  Biso   1.000  H
  H20      1.0000 0.59360  0.43080  0.94810  Biso   1.000  H
  H21      1.0000 0.59360  0.06920  0.44810  Biso   1.000  H
  H22      1.0000 0.09360  0.06920  0.05190  Biso   1.000  H
  H23      1.0000 0.59360  0.93080  0.55190  Biso   1.000  H
  H24      1.0000 0.09360  0.93080  0.94810  Biso   1.000  H
  C49      1.0000 0.23090  0.43480  0.43805  Biso   1.000  C
  C50      1.0000 0.73090  0.43480  0.06195  Biso   1.000  C
  C51      1.0000 0.23090  0.56520  0.56195  Biso   1.000  C
  C52      1.0000 0.73090  0.56520  0.93805  Biso   1.000  C
  C53      1.0000 0.73090  0.93480  0.43805  Biso   1.000  C
  C54      1.0000 0.23090  0.93480  0.06195  Biso   1.000  C
  C55      1.0000 0.73090  0.06520  0.56195  Biso   1.000  C
  C56      1.0000 0.23090  0.06520  0.93805  Biso   1.000  C
  H25      1.0000 0.25110  0.41940  0.46490  Biso   1.000  H
  H26      1.0000 0.75110  0.41940  0.03510  Biso   1.000  H
  H27      1.0000 0.25110  0.58060  0.53510  Biso   1.000  H
  H28      1.0000 0.75110  0.58060  0.96490  Biso   1.000  H
  H29      1.0000 0.75110  0.91940  0.46490  Biso   1.000  H
  H30      1.0000 0.25110  0.91940  0.03510  Biso   1.000  H
  H31      1.0000 0.75110  0.08060  0.53510  Biso   1.000  H
  H32      1.0000 0.25110  0.08060  0.96490  Biso   1.000  H
  C57      1.0000 0.29310  0.36850  0.40866  Biso   1.000  C
  C58      1.0000 0.79310  0.36850  0.09134  Biso   1.000  C
  C59      1.0000 0.29310  0.63150  0.59134  Biso   1.000  C
  C60      1.0000 0.79310  0.63150  0.90866  Biso   1.000  C
  C61      1.0000 0.79310  0.86850  0.40866  Biso   1.000  C
  C62      1.0000 0.29310  0.86850  0.09134  Biso   1.000  C
  C63      1.0000 0.79310  0.13150  0.59134  Biso   1.000  C
  C64      1.0000 0.29310  0.13150  0.90866  Biso   1.000  C
  H33      1.0000 0.35590  0.30700  0.41550  Biso   1.000  H
  H34      1.0000 0.85590  0.30700  0.08450  Biso   1.000  H
  H35      1.0000 0.35590  0.69300  0.58450  Biso   1.000  H
  H36      1.0000 0.85590  0.69300  0.91550  Biso   1.000  H
  H37      1.0000 0.85590  0.80700  0.41550  Biso   1.000  H
  H38      1.0000 0.35590  0.80700  0.08450  Biso   1.000  H
  H39      1.0000 0.85590  0.19300  0.58450  Biso   1.000  H
  H40      1.0000 0.35590  0.19300  0.91550  Biso   1.000  H
  C65      1.0000 0.26550  0.39030  0.36869  Biso   1.000  C
  C66      1.0000 0.76550  0.39030  0.13131  Biso   1.000  C
  C67      1.0000 0.26550  0.60970  0.63131  Biso   1.000  C
  C68      1.0000 0.76550  0.60970  0.86869  Biso   1.000  C
  C69      1.0000 0.76550  0.89030  0.36869  Biso   1.000  C
  C70      1.0000 0.26550  0.89030  0.13131  Biso   1.000  C
  C71      1.0000 0.76550  0.10970  0.63131  Biso   1.000  C
  C72      1.0000 0.26550  0.10970  0.86869  Biso   1.000  C
  H41      1.0000 0.30860  0.34320  0.34890  Biso   1.000  H
  H42      1.0000 0.80860  0.34320  0.15110  Biso   1.000  H
  H43      1.0000 0.30860  0.65680  0.65110  Biso   1.000  H
  H44      1.0000 0.80860  0.65680  0.84890  Biso   1.000  H
  H45      1.0000 0.80860  0.84320  0.34890  Biso   1.000  H
  H46      1.0000 0.30860  0.84320  0.15110  Biso   1.000  H
  H47      1.0000 0.80860  0.15680  0.65110  Biso   1.000  H
  H48      1.0000 0.30860  0.15680  0.84890  Biso   1.000  H
  C73      1.0000 0.22230  0.92290  0.31557  Biso   1.000  C
  C74      1.0000 0.72230  0.92290  0.18443  Biso   1.000  C
  C75      1.0000 0.22230  0.07710  0.68443  Biso   1.000  C
  C76      1.0000 0.72230  0.07710  0.81557  Biso   1.000  C
  C77      1.0000 0.72230  0.42290  0.31557  Biso   1.000  C
  C78      1.0000 0.22230  0.42290  0.18443  Biso   1.000  C
  C79      1.0000 0.72230  0.57710  0.68443  Biso   1.000  C
  C80      1.0000 0.22230  0.57710  0.81557  Biso   1.000  C
  H49      1.0000 0.24450  0.89760  0.28970  Biso   1.000  H
  H50      1.0000 0.74450  0.89760  0.21030  Biso   1.000  H
  H51      1.0000 0.24450  0.10240  0.71030  Biso   1.000  H
  H52      1.0000 0.74450  0.10240  0.78970  Biso   1.000  H
  H53      1.0000 0.74450  0.39760  0.28970  Biso   1.000  H
  H54      1.0000 0.24450  0.39760  0.21030  Biso   1.000  H
  H55      1.0000 0.74450  0.60240  0.71030  Biso   1.000  H
  H56      1.0000 0.24450  0.60240  0.78970  Biso   1.000  H
  C81      1.0000 0.28410  0.86170  0.34745  Biso   1.000  C
  C82      1.0000 0.78410  0.86170  0.15255  Biso   1.000  C
  C83      1.0000 0.28410  0.13830  0.65255  Biso   1.000  C
  C84      1.0000 0.78410  0.13830  0.84745  Biso   1.000  C
  C85      1.0000 0.78410  0.36170  0.34745  Biso   1.000  C
  C86      1.0000 0.28410  0.36170  0.15255  Biso   1.000  C
  C87      1.0000 0.78410  0.63830  0.65255  Biso   1.000  C
  C88      1.0000 0.28410  0.63830  0.84745  Biso   1.000  C
  H57      1.0000 0.34390  0.79570  0.34250  Biso   1.000  H
  H58      1.0000 0.84390  0.79570  0.15750  Biso   1.000  H
  H59      1.0000 0.34390  0.20430  0.65750  Biso   1.000  H
  H60      1.0000 0.84390  0.20430  0.84250  Biso   1.000  H
  H61      1.0000 0.84390  0.29570  0.34250  Biso   1.000  H
  H62      1.0000 0.34390  0.29570  0.15750  Biso   1.000  H
  H63      1.0000 0.84390  0.70430  0.65750  Biso   1.000  H
  H64      1.0000 0.34390  0.70430  0.84250  Biso   1.000  H
  C89      1.0000 0.25790  0.89720  0.38586  Biso   1.000  C
  C90      1.0000 0.75790  0.89720  0.11414  Biso   1.000  C
  C91      1.0000 0.25790  0.10280  0.61414  Biso   1.000  C
  C92      1.0000 0.75790  0.10280  0.88586  Biso   1.000  C
  C93      1.0000 0.75790  0.39720  0.38586  Biso   1.000  C
  C94      1.0000 0.25790  0.39720  0.11414  Biso   1.000  C
  C95      1.0000 0.75790  0.60280  0.61414  Biso   1.000  C
  C96      1.0000 0.25790  0.60280  0.88586  Biso   1.000  C
  C97      1.0000 0.13430  0.95460  0.39000  Biso   1.000  C
  C98      1.0000 0.63430  0.95460  0.11000  Biso   1.000  C
  C99      1.0000 0.13430  0.04540  0.61000  Biso   1.000  C
  C100     1.0000 0.63430  0.04540  0.89000  Biso   1.000  C
  C101     1.0000 0.63430  0.45460  0.39000  Biso   1.000  C
  C102     1.0000 0.13430  0.45460  0.11000  Biso   1.000  C
  C103     1.0000 0.63430  0.54540  0.61000  Biso   1.000  C
  C104     1.0000 0.13430  0.54540  0.89000  Biso   1.000  C
  H65      1.0000 0.09190  0.95450  0.41480  Biso   1.000  H
  H66      1.0000 0.59190  0.95450  0.08520  Biso   1.000  H
  H67      1.0000 0.09190  0.04550  0.58520  Biso   1.000  H
  H68      1.0000 0.59190  0.04550  0.91480  Biso   1.000  H
  H69      1.0000 0.59190  0.45450  0.41480  Biso   1.000  H
  H70      1.0000 0.09190  0.45450  0.08520  Biso   1.000  H
  H71      1.0000 0.59190  0.54550  0.58520  Biso   1.000  H
  H72      1.0000 0.09190  0.54550  0.91480  Biso   1.000  H
  C105     1.0000 0.07590  0.01090  0.35730  Biso   1.000  C
  C106     1.0000 0.57590  0.01090  0.14270  Biso   1.000  C
  C107     1.0000 0.07590  0.98910  0.64270  Biso   1.000  C
  C108     1.0000 0.57590  0.98910  0.85730  Biso   1.000  C
  C109     1.0000 0.57590  0.51090  0.35730  Biso   1.000  C
  C110     1.0000 0.07590  0.51090  0.14270  Biso   1.000  C
  C111     1.0000 0.57590  0.48910  0.64270  Biso   1.000  C
  C112     1.0000 0.07590  0.48910  0.85730  Biso   1.000  C
  H73      1.0000 0.99340  0.04860  0.36040  Biso   1.000  H
  H74      1.0000 0.49340  0.04860  0.13960  Biso   1.000  H
  H75      1.0000 0.99340  0.95140  0.63960  Biso   1.000  H
  H76      1.0000 0.49340  0.95140  0.86040  Biso   1.000  H
  H77      1.0000 0.49340  0.54860  0.36040  Biso   1.000  H
  H78      1.0000 0.99340  0.54860  0.13960  Biso   1.000  H
  H79      1.0000 0.49340  0.45140  0.63960  Biso   1.000  H
  H80      1.0000 0.99340  0.45140  0.86040  Biso   1.000  H
  C113     1.0000 0.20200  0.02140  0.38860  Biso   1.000  C
  C114     1.0000 0.70200  0.02140  0.11140  Biso   1.000  C
  C115     1.0000 0.20200  0.97860  0.61140  Biso   1.000  C
  C116     1.0000 0.70200  0.97860  0.88860  Biso   1.000  C
  C117     1.0000 0.70200  0.52140  0.38860  Biso   1.000  C
  C118     1.0000 0.20200  0.52140  0.11140  Biso   1.000  C
  C119     1.0000 0.70200  0.47860  0.61140  Biso   1.000  C
  C120     1.0000 0.20200  0.47860  0.88860  Biso   1.000  C
  H81      1.0000 0.20230  0.06480  0.41310  Biso   1.000  H
  H82      1.0000 0.70230  0.06480  0.08690  Biso   1.000  H
  H83      1.0000 0.20230  0.93520  0.58690  Biso   1.000  H
  H84      1.0000 0.70230  0.93520  0.91310  Biso   1.000  H
  H85      1.0000 0.70230  0.56480  0.41310  Biso   1.000  H
  H86      1.0000 0.20230  0.56480  0.08690  Biso   1.000  H
  H87      1.0000 0.70230  0.43520  0.58690  Biso   1.000  H
  H88      1.0000 0.20230  0.43520  0.91310  Biso   1.000  H
  C121     1.0000 0.14710  0.07890  0.35550  Biso   1.000  C
  C122     1.0000 0.64710  0.07890  0.14450  Biso   1.000  C
  C123     1.0000 0.14710  0.92110  0.64450  Biso   1.000  C
  C124     1.0000 0.64710  0.92110  0.85550  Biso   1.000  C
  C125     1.0000 0.64710  0.57890  0.35550  Biso   1.000  C
  C126     1.0000 0.14710  0.57890  0.14450  Biso   1.000  C
  C127     1.0000 0.64710  0.42110  0.64450  Biso   1.000  C
  C128     1.0000 0.14710  0.42110  0.85550  Biso   1.000  C
  H89      1.0000 0.11760  0.16360  0.35720  Biso   1.000  H
  H90      1.0000 0.61760  0.16360  0.14280  Biso   1.000  H
  H91      1.0000 0.11760  0.83640  0.64280  Biso   1.000  H
  H92      1.0000 0.61760  0.83640  0.85720  Biso   1.000  H
  H93      1.0000 0.61760  0.66360  0.35720  Biso   1.000  H
  H94      1.0000 0.11760  0.66360  0.14280  Biso   1.000  H
  H95      1.0000 0.61760  0.33640  0.64280  Biso   1.000  H
  H96      1.0000 0.11760  0.33640  0.85720  Biso   1.000  H
  C129     1.0000 0.32200  0.83820  0.42140  Biso   1.000  C
  C130     1.0000 0.82200  0.83820  0.07860  Biso   1.000  C
  C131     1.0000 0.32200  0.16180  0.57860  Biso   1.000  C
  C132     1.0000 0.82200  0.16180  0.92140  Biso   1.000  C
  C133     1.0000 0.82200  0.33820  0.42140  Biso   1.000  C
  C134     1.0000 0.32200  0.33820  0.07860  Biso   1.000  C
  C135     1.0000 0.82200  0.66180  0.57860  Biso   1.000  C
  C136     1.0000 0.32200  0.66180  0.92140  Biso   1.000  C
  C137     1.0000 0.41580  0.74600  0.41810  Biso   1.000  C
  C138     1.0000 0.91580  0.74600  0.08190  Biso   1.000  C
  C139     1.0000 0.41580  0.25400  0.58190  Biso   1.000  C
  C140     1.0000 0.91580  0.25400  0.91810  Biso   1.000  C
  C141     1.0000 0.91580  0.24600  0.41810  Biso   1.000  C
  C142     1.0000 0.41580  0.24600  0.08190  Biso   1.000  C
  C143     1.0000 0.91580  0.75400  0.58190  Biso   1.000  C
  C144     1.0000 0.41580  0.75400  0.91810  Biso   1.000  C
  H97      1.0000 0.44030  0.71560  0.39290  Biso   1.000  H
  H98      1.0000 0.94030  0.71560  0.10710  Biso   1.000  H
  H99      1.0000 0.44030  0.28440  0.60710  Biso   1.000  H
  H100     1.0000 0.94030  0.28440  0.89290  Biso   1.000  H
  H101     1.0000 0.94030  0.21560  0.39290  Biso   1.000  H
  H102     1.0000 0.44030  0.21560  0.10710  Biso   1.000  H
  H103     1.0000 0.94030  0.78440  0.60710  Biso   1.000  H
  H104     1.0000 0.44030  0.78440  0.89290  Biso   1.000  H
  C145     1.0000 0.47590  0.69660  0.45270  Biso   1.000  C
  C146     1.0000 0.97590  0.69660  0.04730  Biso   1.000  C
  C147     1.0000 0.47590  0.30340  0.54730  Biso   1.000  C
  C148     1.0000 0.97590  0.30340  0.95270  Biso   1.000  C
  C149     1.0000 0.97590  0.19660  0.45270  Biso   1.000  C
  C150     1.0000 0.47590  0.19660  0.04730  Biso   1.000  C
  C151     1.0000 0.97590  0.80340  0.54730  Biso   1.000  C
  C152     1.0000 0.47590  0.80340  0.95270  Biso   1.000  C
  H105     1.0000 0.54060  0.63340  0.45070  Biso   1.000  H
  H106     1.0000 0.04060  0.63340  0.04930  Biso   1.000  H
  H107     1.0000 0.54060  0.36660  0.54930  Biso   1.000  H
  H108     1.0000 0.04060  0.36660  0.95070  Biso   1.000  H
  H109     1.0000 0.04060  0.13340  0.45070  Biso   1.000  H
  H110     1.0000 0.54060  0.13340  0.04930  Biso   1.000  H
  H111     1.0000 0.04060  0.86660  0.54930  Biso   1.000  H
  H112     1.0000 0.54060  0.86660  0.95070  Biso   1.000  H
  C153     1.0000 0.43890  0.74140  0.48842  Biso   1.000  C
  C154     1.0000 0.93890  0.74140  0.01158  Biso   1.000  C
  C155     1.0000 0.43890  0.25860  0.51158  Biso   1.000  C
  C156     1.0000 0.93890  0.25860  0.98842  Biso   1.000  C
  C157     1.0000 0.93890  0.24140  0.48842  Biso   1.000  C
  C158     1.0000 0.43890  0.24140  0.01158  Biso   1.000  C
  C159     1.0000 0.93890  0.75860  0.51158  Biso   1.000  C
  C160     1.0000 0.43890  0.75860  0.98842  Biso   1.000  C
  H113     1.0000 0.47780  0.71220  0.51200  Biso   1.000  H
  H114     1.0000 0.97780  0.71220  0.98800  Biso   1.000  H
  H115     1.0000 0.47780  0.28780  0.48800  Biso   1.000  H
  H116     1.0000 0.97780  0.28780  0.01200  Biso   1.000  H
  H117     1.0000 0.97780  0.21220  0.51200  Biso   1.000  H
  H118     1.0000 0.47780  0.21220  0.98800  Biso   1.000  H
  H119     1.0000 0.97780  0.78780  0.48800  Biso   1.000  H
  H120     1.0000 0.47780  0.78780  0.01200  Biso   1.000  H
  C161     1.0000 0.34260  0.83100  0.48897  Biso   1.000  C
  C162     1.0000 0.84260  0.83100  0.01103  Biso   1.000  C
  C163     1.0000 0.34260  0.16900  0.51103  Biso   1.000  C
  C164     1.0000 0.84260  0.16900  0.98897  Biso   1.000  C
  C165     1.0000 0.84260  0.33100  0.48897  Biso   1.000  C
  C166     1.0000 0.34260  0.33100  0.01103  Biso   1.000  C
  C167     1.0000 0.84260  0.66900  0.51103  Biso   1.000  C
  C168     1.0000 0.34260  0.66900  0.98897  Biso   1.000  C
  H121     1.0000 0.31460  0.86060  0.51390  Biso   1.000  H
  H122     1.0000 0.81460  0.86060  0.98610  Biso   1.000  H
  H123     1.0000 0.31460  0.13940  0.48610  Biso   1.000  H
  H124     1.0000 0.81460  0.13940  0.01390  Biso   1.000  H
  H125     1.0000 0.81460  0.36060  0.51390  Biso   1.000  H
  H126     1.0000 0.31460  0.36060  0.98610  Biso   1.000  H
  H127     1.0000 0.81460  0.63940  0.48610  Biso   1.000  H
  H128     1.0000 0.31460  0.63940  0.01390  Biso   1.000  H
