data_image0
_cell_length_a       9.0837
_cell_length_b       9.3514
_cell_length_c       11.0831
_cell_angle_alpha    90
_cell_angle_beta     107.807
_cell_angle_gamma    90

_symmetry_space_group_name_H-M    "P 1"
_symmetry_int_tables_number       1

loop_
  _symmetry_equiv_pos_as_xyz
  'x, y, z'

loop_
  _atom_site_label
  _atom_site_occupancy
  _atom_site_fract_x
  _atom_site_fract_y
  _atom_site_fract_z
  _atom_site_thermal_displace_type
  _atom_site_B_iso_or_equiv
  _atom_site_type_symbol
  Cu1      1.0000 0.90350  0.29629  0.95221  Biso   1.000  Cu
  Cu2      1.0000 0.09650  0.79629  0.04779  Biso   1.000  Cu
  O1       1.0000 0.12170  0.24550  0.02063  Biso   1.000  O
  O2       1.0000 0.87830  0.74550  0.97937  Biso   1.000  O
  O3       1.0000 0.05060  0.02550  0.04882  Biso   1.000  O
  O4       1.0000 0.94940  0.52550  0.95118  Biso   1.000  O
  O5       1.0000 0.53600  0.94380  0.19640  Biso   1.000  O
  O6       1.0000 0.46400  0.44380  0.80360  Biso   1.000  O
  O7       1.0000 0.31490  0.83496  0.11493  Biso   1.000  O
  O8       1.0000 0.68510  0.33496  0.88507  Biso   1.000  O
  O9       1.0000 0.63280  0.93980  0.97610  Biso   1.000  O
  O10      1.0000 0.36720  0.43980  0.02390  Biso   1.000  O
  O11      1.0000 0.39080  0.12340  0.81950  Biso   1.000  O
  O12      1.0000 0.60920  0.62340  0.18050  Biso   1.000  O
  N1       1.0000 0.90890  0.25600  0.77260  Biso   1.000  N
  N2       1.0000 0.09110  0.75600  0.22740  Biso   1.000  N
  N3       1.0000 0.88870  0.29470  0.13058  Biso   1.000  N
  N4       1.0000 0.11130  0.79470  0.86942  Biso   1.000  N
  C1       1.0000 0.15260  0.11830  0.06280  Biso   1.000  C
  C2       1.0000 0.84740  0.61830  0.93720  Biso   1.000  C
  C3       1.0000 0.32040  0.09660  0.13940  Biso   1.000  C
  C4       1.0000 0.67960  0.59660  0.86060  Biso   1.000  C
  H1       1.0000 0.38100  0.15710  0.10000  Biso   1.000  H
  H2       1.0000 0.61900  0.65710  0.90000  Biso   1.000  H
  C5       1.0000 0.39290  0.94620  0.15090  Biso   1.000  C
  C6       1.0000 0.60710  0.44620  0.84910  Biso   1.000  C
  C7       1.0000 0.34110  0.16020  0.27110  Biso   1.000  C
  C8       1.0000 0.65890  0.66020  0.72890  Biso   1.000  C
  C9       1.0000 0.40760  0.29210  0.30250  Biso   1.000  C
  C10      1.0000 0.59240  0.79210  0.69750  Biso   1.000  C
  H3       1.0000 0.44240  0.34250  0.24420  Biso   1.000  H
  H4       1.0000 0.55760  0.84250  0.75580  Biso   1.000  H
  C11      1.0000 0.42350  0.35160  0.42240  Biso   1.000  C
  C12      1.0000 0.57650  0.85160  0.57760  Biso   1.000  C
  H5       1.0000 0.46790  0.44140  0.44290  Biso   1.000  H
  H6       1.0000 0.53210  0.94140  0.55710  Biso   1.000  H
  C13      1.0000 0.37360  0.27740  0.50860  Biso   1.000  C
  C14      1.0000 0.62640  0.77740  0.49140  Biso   1.000  C
  H7       1.0000 0.38640  0.31560  0.58860  Biso   1.000  H
  H8       1.0000 0.61360  0.81560  0.41140  Biso   1.000  H
  C15      1.0000 0.30500  0.14730  0.47720  Biso   1.000  C
  C16      1.0000 0.69500  0.64730  0.52280  Biso   1.000  C
  H9       1.0000 0.27000  0.09730  0.53570  Biso   1.000  H
  H10      1.0000 0.73000  0.59730  0.46430  Biso   1.000  H
  C17      1.0000 0.28690  0.08890  0.35820  Biso   1.000  C
  C18      1.0000 0.71310  0.58890  0.64180  Biso   1.000  C
  H11      1.0000 0.23790  0.00110  0.33690  Biso   1.000  H
  H12      1.0000 0.76210  0.50110  0.66310  Biso   1.000  H
  C19      1.0000 0.78820  0.20440  0.68160  Biso   1.000  C
  C20      1.0000 0.21180  0.70440  0.31840  Biso   1.000  C
  H13      1.0000 0.70550  0.16660  0.70400  Biso   1.000  H
  H14      1.0000 0.29450  0.66660  0.29600  Biso   1.000  H
  C21      1.0000 0.78100  0.20480  0.55470  Biso   1.000  C
  C22      1.0000 0.21900  0.70480  0.44530  Biso   1.000  C
  H15      1.0000 0.69630  0.16500  0.49420  Biso   1.000  H
  H16      1.0000 0.30370  0.66500  0.50580  Biso   1.000  H
  C23      1.0000 0.90060  0.26490  0.51860  Biso   1.000  C
  C24      1.0000 0.09940  0.76490  0.48140  Biso   1.000  C
  C25      1.0000 0.02640  0.31480  0.61470  Biso   1.000  C
  C26      1.0000 0.97360  0.81480  0.38530  Biso   1.000  C
  H17      1.0000 0.11070  0.35340  0.59520  Biso   1.000  H
  H18      1.0000 0.88930  0.85340  0.40480  Biso   1.000  H
  C27      1.0000 0.02770  0.30760  0.73900  Biso   1.000  C
  C28      1.0000 0.97230  0.80760  0.26100  Biso   1.000  C
  H19      1.0000 0.11460  0.33990  0.80190  Biso   1.000  H
  H20      1.0000 0.88540  0.83990  0.19810  Biso   1.000  H
  C29      1.0000 0.89340  0.27600  0.38290  Biso   1.000  C
  C30      1.0000 0.10660  0.77600  0.61710  Biso   1.000  C
  C31      1.0000 0.79660  0.19160  0.29050  Biso   1.000  C
  C32      1.0000 0.20340  0.69160  0.70950  Biso   1.000  C
  H21      1.0000 0.73140  0.12620  0.31170  Biso   1.000  H
  H22      1.0000 0.26860  0.62620  0.68830  Biso   1.000  H
  C33      1.0000 0.79640  0.20410  0.16570  Biso   1.000  C
  C34      1.0000 0.20360  0.70410  0.83430  Biso   1.000  C
  H23      1.0000 0.72930  0.14700  0.10430  Biso   1.000  H
  H24      1.0000 0.27070  0.64700  0.89570  Biso   1.000  H
  C35      1.0000 0.98200  0.37720  0.21890  Biso   1.000  C
  C36      1.0000 0.01800  0.87720  0.78110  Biso   1.000  C
  H25      1.0000 0.04680  0.44090  0.19530  Biso   1.000  H
  H26      1.0000 0.95320  0.94090  0.80470  Biso   1.000  H
  C37      1.0000 0.98640  0.37210  0.34460  Biso   1.000  C
  C38      1.0000 0.01360  0.87210  0.65540  Biso   1.000  C
  H27      1.0000 0.05170  0.43300  0.40340  Biso   1.000  H
  H28      1.0000 0.94830  0.93300  0.59660  Biso   1.000  H
