data_image0
_cell_length_a       13.805
_cell_length_b       10.966
_cell_length_c       19.037
_cell_angle_alpha    90
_cell_angle_beta     102.42
_cell_angle_gamma    90

_symmetry_space_group_name_H-M    "P 1"
_symmetry_int_tables_number       1

loop_
  _symmetry_equiv_pos_as_xyz
  'x, y, z'

loop_
  _atom_site_label
  _atom_site_occupancy
  _atom_site_fract_x
  _atom_site_fract_y
  _atom_site_fract_z
  _atom_site_thermal_displace_type
  _atom_site_B_iso_or_equiv
  _atom_site_type_symbol
  Cu1      1.0000 0.00000  0.50000  0.50000  Biso   1.000  Cu
  Cu2      1.0000 0.00000  0.00000  0.00000  Biso   1.000  Cu
  Cu3      1.0000 0.50000  0.00000  0.50000  Biso   1.000  Cu
  Cu4      1.0000 0.50000  0.50000  0.00000  Biso   1.000  Cu
  O1       1.0000 0.97520  0.47210  0.59490  Biso   1.000  O
  O2       1.0000 0.02480  0.97210  0.90510  Biso   1.000  O
  O3       1.0000 0.02480  0.52790  0.40510  Biso   1.000  O
  O4       1.0000 0.97520  0.02790  0.09490  Biso   1.000  O
  O5       1.0000 0.03380  0.66980  0.52050  Biso   1.000  O
  O6       1.0000 0.96620  0.16980  0.97950  Biso   1.000  O
  O7       1.0000 0.96620  0.33020  0.47950  Biso   1.000  O
  O8       1.0000 0.03380  0.83020  0.02050  Biso   1.000  O
  O9       1.0000 0.54050  0.10460  0.42980  Biso   1.000  O
  O10      1.0000 0.45950  0.60460  0.07020  Biso   1.000  O
  O11      1.0000 0.45950  0.89540  0.57020  Biso   1.000  O
  O12      1.0000 0.54050  0.39540  0.92980  Biso   1.000  O
  O13      1.0000 0.61100  0.04860  0.57550  Biso   1.000  O
  O14      1.0000 0.38900  0.54860  0.92450  Biso   1.000  O
  O15      1.0000 0.38900  0.95140  0.42450  Biso   1.000  O
  O16      1.0000 0.61100  0.45140  0.07550  Biso   1.000  O
  O17      1.0000 0.82660  0.54190  0.45500  Biso   1.000  O
  O18      1.0000 0.17340  0.04190  0.04500  Biso   1.000  O
  O19      1.0000 0.17340  0.45810  0.54500  Biso   1.000  O
  O20      1.0000 0.82660  0.95810  0.95500  Biso   1.000  O
  O21      1.0000 0.57890  0.81150  0.47250  Biso   1.000  O
  O22      1.0000 0.42110  0.31150  0.02750  Biso   1.000  O
  O23      1.0000 0.42110  0.18850  0.52750  Biso   1.000  O
  O24      1.0000 0.57890  0.68850  0.97250  Biso   1.000  O
  N1       1.0000 0.76260  0.62740  0.43860  Biso   1.000  N
  N2       1.0000 0.23740  0.12740  0.06140  Biso   1.000  N
  N3       1.0000 0.23740  0.37260  0.56140  Biso   1.000  N
  N4       1.0000 0.76260  0.87260  0.93860  Biso   1.000  N
  N5       1.0000 0.64360  0.75480  0.44650  Biso   1.000  N
  N6       1.0000 0.35640  0.25480  0.05350  Biso   1.000  N
  N7       1.0000 0.35640  0.24520  0.55350  Biso   1.000  N
  N8       1.0000 0.64360  0.74520  0.94650  Biso   1.000  N
  C1       1.0000 0.98910  0.54880  0.64410  Biso   1.000  C
  C2       1.0000 0.01090  0.04880  0.85590  Biso   1.000  C
  C3       1.0000 0.01090  0.45120  0.35590  Biso   1.000  C
  C4       1.0000 0.98910  0.95120  0.14410  Biso   1.000  C
  C5       1.0000 0.02360  0.66580  0.64330  Biso   1.000  C
  C6       1.0000 0.97640  0.16580  0.85670  Biso   1.000  C
  C7       1.0000 0.97640  0.33420  0.35670  Biso   1.000  C
  C8       1.0000 0.02360  0.83420  0.14330  Biso   1.000  C
  C9       1.0000 0.04080  0.71750  0.58080  Biso   1.000  C
  C10      1.0000 0.95920  0.21750  0.91920  Biso   1.000  C
  C11      1.0000 0.95920  0.28250  0.41920  Biso   1.000  C
  C12      1.0000 0.04080  0.78250  0.08080  Biso   1.000  C
  C13      1.0000 0.96410  0.50270  0.71420  Biso   1.000  C
  C14      1.0000 0.03590  0.00270  0.78580  Biso   1.000  C
  C15      1.0000 0.03590  0.49730  0.28580  Biso   1.000  C
  C16      1.0000 0.96410  0.99730  0.21420  Biso   1.000  C
  C17      1.0000 0.06850  0.85360  0.58220  Biso   1.000  C
  C18      1.0000 0.93150  0.35360  0.91780  Biso   1.000  C
  C19      1.0000 0.93150  0.14640  0.41780  Biso   1.000  C
  C20      1.0000 0.06850  0.64640  0.08220  Biso   1.000  C
  C21      1.0000 0.60970  0.17920  0.44270  Biso   1.000  C
  C22      1.0000 0.39030  0.67920  0.05730  Biso   1.000  C
  C23      1.0000 0.39030  0.82080  0.55730  Biso   1.000  C
  C24      1.0000 0.60970  0.32080  0.94270  Biso   1.000  C
  C25      1.0000 0.67630  0.19680  0.50770  Biso   1.000  C
  C26      1.0000 0.32370  0.69680  0.99230  Biso   1.000  C
  C27      1.0000 0.32370  0.80320  0.49230  Biso   1.000  C
  C28      1.0000 0.67630  0.30320  0.00770  Biso   1.000  C
  C29      1.0000 0.67100  0.13060  0.56800  Biso   1.000  C
  C30      1.0000 0.32900  0.63060  0.93200  Biso   1.000  C
  C31      1.0000 0.32900  0.86940  0.43200  Biso   1.000  C
  C32      1.0000 0.67100  0.36940  0.06800  Biso   1.000  C
  C33      1.0000 0.62240  0.25410  0.37820  Biso   1.000  C
  C34      1.0000 0.37760  0.75410  0.12180  Biso   1.000  C
  C35      1.0000 0.37760  0.74590  0.62180  Biso   1.000  C
  C36      1.0000 0.62240  0.24590  0.87820  Biso   1.000  C
  C37      1.0000 0.74750  0.15450  0.63630  Biso   1.000  C
  C38      1.0000 0.25250  0.65450  0.86370  Biso   1.000  C
  C39      1.0000 0.25250  0.84550  0.36370  Biso   1.000  C
  C40      1.0000 0.74750  0.34550  0.13630  Biso   1.000  C
  C41      1.0000 0.70920  0.67240  0.48230  Biso   1.000  C
  C42      1.0000 0.29080  0.17240  0.01770  Biso   1.000  C
  C43      1.0000 0.29080  0.32760  0.51770  Biso   1.000  C
  C44      1.0000 0.70920  0.82760  0.98230  Biso   1.000  C
  C45      1.0000 0.74440  0.69240  0.36850  Biso   1.000  C
  C46      1.0000 0.25560  0.19240  0.13150  Biso   1.000  C
  C47      1.0000 0.25560  0.30760  0.63150  Biso   1.000  C
  C48      1.0000 0.74440  0.80760  0.86850  Biso   1.000  C
  C49      1.0000 0.64480  0.75420  0.36750  Biso   1.000  C
  C50      1.0000 0.35520  0.25420  0.13250  Biso   1.000  C
  C51      1.0000 0.35520  0.24580  0.63250  Biso   1.000  C
  C52      1.0000 0.64480  0.74580  0.86750  Biso   1.000  C
  C53      1.0000 0.71750  0.63580  0.55830  Biso   1.000  C
  C54      1.0000 0.28250  0.13580  0.94170  Biso   1.000  C
  C55      1.0000 0.28250  0.36420  0.44170  Biso   1.000  C
  C56      1.0000 0.71750  0.86420  0.05830  Biso   1.000  C
  C57      1.0000 0.63270  0.55960  0.56620  Biso   1.000  C
  C58      1.0000 0.36730  0.05960  0.93380  Biso   1.000  C
  C59      1.0000 0.36730  0.44040  0.43380  Biso   1.000  C
  C60      1.0000 0.63270  0.94040  0.06620  Biso   1.000  C
  C61      1.0000 0.73920  0.73860  0.60980  Biso   1.000  C
  C62      1.0000 0.26080  0.23860  0.89020  Biso   1.000  C
  C63      1.0000 0.26080  0.26140  0.39020  Biso   1.000  C
  C64      1.0000 0.73920  0.76140  0.10980  Biso   1.000  C
  C65      1.0000 0.74550  0.60270  0.30870  Biso   1.000  C
  C66      1.0000 0.25450  0.10270  0.19130  Biso   1.000  C
  C67      1.0000 0.25450  0.39730  0.69130  Biso   1.000  C
  C68      1.0000 0.74550  0.89730  0.80870  Biso   1.000  C
  C69      1.0000 0.83040  0.78290  0.37490  Biso   1.000  C
  C70      1.0000 0.16960  0.28290  0.12510  Biso   1.000  C
  C71      1.0000 0.16960  0.21710  0.62510  Biso   1.000  C
  C72      1.0000 0.83040  0.71710  0.87490  Biso   1.000  C
  C73      1.0000 0.55640  0.67080  0.33460  Biso   1.000  C
  C74      1.0000 0.44360  0.17080  0.16540  Biso   1.000  C
  C75      1.0000 0.44360  0.32920  0.66540  Biso   1.000  C
  C76      1.0000 0.55640  0.82920  0.83460  Biso   1.000  C
  C77      1.0000 0.62800  0.87890  0.33600  Biso   1.000  C
  C78      1.0000 0.37200  0.37890  0.16400  Biso   1.000  C
  C79      1.0000 0.37200  0.12110  0.66400  Biso   1.000  C
  C80      1.0000 0.62800  0.62110  0.83600  Biso   1.000  C
  F1       1.0000 0.00690  0.40060  0.73480  Biso   1.000  F
  F2       1.0000 0.99310  0.90060  0.76520  Biso   1.000  F
  F3       1.0000 0.99310  0.59940  0.26520  Biso   1.000  F
  F4       1.0000 0.00690  0.09940  0.23480  Biso   1.000  F
  F5       1.0000 0.86850  0.48200  0.70490  Biso   1.000  F
  F6       1.0000 0.13150  0.98200  0.79510  Biso   1.000  F
  F7       1.0000 0.13150  0.51800  0.29510  Biso   1.000  F
  F8       1.0000 0.86850  0.01800  0.20490  Biso   1.000  F
  F9       1.0000 0.98550  0.57900  0.76740  Biso   1.000  F
  F10      1.0000 0.01450  0.07900  0.73260  Biso   1.000  F
  F11      1.0000 0.01450  0.42100  0.23260  Biso   1.000  F
  F12      1.0000 0.98550  0.92100  0.26740  Biso   1.000  F
  F13      1.0000 0.98900  0.92050  0.57700  Biso   1.000  F
  F14      1.0000 0.01100  0.42050  0.92300  Biso   1.000  F
  F15      1.0000 0.01100  0.07950  0.42300  Biso   1.000  F
  F16      1.0000 0.98900  0.57950  0.07700  Biso   1.000  F
  F17      1.0000 0.12460  0.88700  0.64410  Biso   1.000  F
  F18      1.0000 0.87540  0.38700  0.85590  Biso   1.000  F
  F19      1.0000 0.87540  0.11300  0.35590  Biso   1.000  F
  F20      1.0000 0.12460  0.61300  0.14410  Biso   1.000  F
  F21      1.0000 0.10990  0.88590  0.53180  Biso   1.000  F
  F22      1.0000 0.89010  0.38590  0.96820  Biso   1.000  F
  F23      1.0000 0.89010  0.11410  0.46820  Biso   1.000  F
  F24      1.0000 0.10990  0.61410  0.03180  Biso   1.000  F
  F25      1.0000 0.54550  0.31560  0.35170  Biso   1.000  F
  F26      1.0000 0.45450  0.81560  0.14830  Biso   1.000  F
  F27      1.0000 0.45450  0.68440  0.64830  Biso   1.000  F
  F28      1.0000 0.54550  0.18440  0.85170  Biso   1.000  F
  F29      1.0000 0.63240  0.18600  0.32540  Biso   1.000  F
  F30      1.0000 0.36760  0.68600  0.17460  Biso   1.000  F
  F31      1.0000 0.36760  0.81400  0.67460  Biso   1.000  F
  F32      1.0000 0.63240  0.31400  0.82540  Biso   1.000  F
  F33      1.0000 0.69710  0.32410  0.38920  Biso   1.000  F
  F34      1.0000 0.30290  0.82410  0.11080  Biso   1.000  F
  F35      1.0000 0.30290  0.67590  0.61080  Biso   1.000  F
  F36      1.0000 0.69710  0.17590  0.88920  Biso   1.000  F
  F37      1.0000 0.81990  0.21940  0.63110  Biso   1.000  F
  F38      1.0000 0.18010  0.71940  0.86890  Biso   1.000  F
  F39      1.0000 0.18010  0.78060  0.36890  Biso   1.000  F
  F40      1.0000 0.81990  0.28060  0.13110  Biso   1.000  F
  F41      1.0000 0.78440  0.06300  0.66850  Biso   1.000  F
  F42      1.0000 0.21560  0.56300  0.83150  Biso   1.000  F
  F43      1.0000 0.21560  0.93700  0.33150  Biso   1.000  F
  F44      1.0000 0.78440  0.43700  0.16850  Biso   1.000  F
  F45      1.0000 0.71060  0.20670  0.68260  Biso   1.000  F
  F46      1.0000 0.28940  0.70670  0.81740  Biso   1.000  F
  F47      1.0000 0.28940  0.79330  0.31740  Biso   1.000  F
  F48      1.0000 0.71060  0.29330  0.18260  Biso   1.000  F
  H1       1.0000 0.03600  0.71240  0.68640  Biso   1.000  H
  H2       1.0000 0.96400  0.21240  0.81360  Biso   1.000  H
  H3       1.0000 0.96400  0.28760  0.31360  Biso   1.000  H
  H4       1.0000 0.03600  0.78760  0.18640  Biso   1.000  H
  H5       1.0000 0.72710  0.25630  0.51060  Biso   1.000  H
  H6       1.0000 0.27290  0.75630  0.98940  Biso   1.000  H
  H7       1.0000 0.27290  0.74370  0.48940  Biso   1.000  H
  H8       1.0000 0.72710  0.24370  0.01060  Biso   1.000  H
  H9       1.0000 0.77480  0.58590  0.57160  Biso   1.000  H
  H10      1.0000 0.22520  0.08590  0.92840  Biso   1.000  H
  H11      1.0000 0.22520  0.41410  0.42840  Biso   1.000  H
  H12      1.0000 0.77480  0.91410  0.07160  Biso   1.000  H
  H13      1.0000 0.63950  0.53720  0.61520  Biso   1.000  H
  H14      1.0000 0.36050  0.03720  0.88480  Biso   1.000  H
  H15      1.0000 0.36050  0.46280  0.38480  Biso   1.000  H
  H16      1.0000 0.63950  0.96280  0.11520  Biso   1.000  H
  H17      1.0000 0.63100  0.48820  0.53770  Biso   1.000  H
  H18      1.0000 0.36900  0.98820  0.96230  Biso   1.000  H
  H19      1.0000 0.36900  0.51180  0.46230  Biso   1.000  H
  H20      1.0000 0.63100  0.01180  0.03770  Biso   1.000  H
  H21      1.0000 0.57290  0.60410  0.55070  Biso   1.000  H
  H22      1.0000 0.42710  0.10410  0.94930  Biso   1.000  H
  H23      1.0000 0.42710  0.39590  0.44930  Biso   1.000  H
  H24      1.0000 0.57290  0.89590  0.05070  Biso   1.000  H
  H25      1.0000 0.74350  0.70920  0.65730  Biso   1.000  H
  H26      1.0000 0.25650  0.20920  0.84270  Biso   1.000  H
  H27      1.0000 0.25650  0.29080  0.34270  Biso   1.000  H
  H28      1.0000 0.74350  0.79080  0.15730  Biso   1.000  H
  H29      1.0000 0.68760  0.79740  0.59860  Biso   1.000  H
  H30      1.0000 0.31240  0.29740  0.90140  Biso   1.000  H
  H31      1.0000 0.31240  0.20260  0.40140  Biso   1.000  H
  H32      1.0000 0.68760  0.70260  0.09860  Biso   1.000  H
  H33      1.0000 0.80040  0.77520  0.60640  Biso   1.000  H
  H34      1.0000 0.19960  0.27520  0.89360  Biso   1.000  H
  H35      1.0000 0.19960  0.22480  0.39360  Biso   1.000  H
  H36      1.0000 0.80040  0.72480  0.10640  Biso   1.000  H
  H37      1.0000 0.73380  0.64470  0.26400  Biso   1.000  H
  H38      1.0000 0.26620  0.14470  0.23600  Biso   1.000  H
  H39      1.0000 0.26620  0.35530  0.73600  Biso   1.000  H
  H40      1.0000 0.73380  0.85530  0.76400  Biso   1.000  H
  H41      1.0000 0.69510  0.54340  0.30790  Biso   1.000  H
  H42      1.0000 0.30490  0.04340  0.19210  Biso   1.000  H
  H43      1.0000 0.30490  0.45660  0.69210  Biso   1.000  H
  H44      1.0000 0.69510  0.95660  0.80790  Biso   1.000  H
  H45      1.0000 0.80830  0.56360  0.31660  Biso   1.000  H
  H46      1.0000 0.19170  0.06360  0.18340  Biso   1.000  H
  H47      1.0000 0.19170  0.43640  0.68340  Biso   1.000  H
  H48      1.0000 0.80830  0.93640  0.81660  Biso   1.000  H
  H49      1.0000 0.82320  0.82800  0.33140  Biso   1.000  H
  H50      1.0000 0.17680  0.32800  0.16860  Biso   1.000  H
  H51      1.0000 0.17680  0.17200  0.66860  Biso   1.000  H
  H52      1.0000 0.82320  0.67200  0.83140  Biso   1.000  H
  H53      1.0000 0.89150  0.73960  0.38350  Biso   1.000  H
  H54      1.0000 0.10850  0.23960  0.11650  Biso   1.000  H
  H55      1.0000 0.10850  0.26040  0.61650  Biso   1.000  H
  H56      1.0000 0.89150  0.76040  0.88350  Biso   1.000  H
  H57      1.0000 0.83000  0.83730  0.41370  Biso   1.000  H
  H58      1.0000 0.17000  0.33730  0.08630  Biso   1.000  H
  H59      1.0000 0.17000  0.16270  0.58630  Biso   1.000  H
  H60      1.0000 0.83000  0.66270  0.91370  Biso   1.000  H
  H61      1.0000 0.55110  0.66480  0.28420  Biso   1.000  H
  H62      1.0000 0.44890  0.16480  0.21580  Biso   1.000  H
  H63      1.0000 0.44890  0.33520  0.71580  Biso   1.000  H
  H64      1.0000 0.55110  0.83520  0.78420  Biso   1.000  H
  H65      1.0000 0.49690  0.70440  0.34390  Biso   1.000  H
  H66      1.0000 0.50310  0.20440  0.15610  Biso   1.000  H
  H67      1.0000 0.50310  0.29560  0.65610  Biso   1.000  H
  H68      1.0000 0.49690  0.79560  0.84390  Biso   1.000  H
  H69      1.0000 0.56680  0.59200  0.35560  Biso   1.000  H
  H70      1.0000 0.43320  0.09200  0.14440  Biso   1.000  H
  H71      1.0000 0.43320  0.40800  0.64440  Biso   1.000  H
  H72      1.0000 0.56680  0.90800  0.85560  Biso   1.000  H
  H73      1.0000 0.62920  0.87590  0.28630  Biso   1.000  H
  H74      1.0000 0.37080  0.37590  0.21370  Biso   1.000  H
  H75      1.0000 0.37080  0.12410  0.71370  Biso   1.000  H
  H76      1.0000 0.62920  0.62410  0.78630  Biso   1.000  H
  H77      1.0000 0.67870  0.93210  0.36010  Biso   1.000  H
  H78      1.0000 0.32130  0.43210  0.13990  Biso   1.000  H
  H79      1.0000 0.32130  0.06790  0.63990  Biso   1.000  H
  H80      1.0000 0.67870  0.56790  0.86010  Biso   1.000  H
  H81      1.0000 0.56530  0.90820  0.34150  Biso   1.000  H
  H82      1.0000 0.43470  0.40820  0.15850  Biso   1.000  H
  H83      1.0000 0.43470  0.09180  0.65850  Biso   1.000  H
  H84      1.0000 0.56530  0.59180  0.84150  Biso   1.000  H
