data_image0
_cell_length_a       9.76
_cell_length_b       6.6015
_cell_length_c       10.5
_cell_angle_alpha    90
_cell_angle_beta     90
_cell_angle_gamma    90

_symmetry_space_group_name_H-M    "P 1"
_symmetry_int_tables_number       1

loop_
  _symmetry_equiv_pos_as_xyz
  'x, y, z'

loop_
  _atom_site_label
  _atom_site_occupancy
  _atom_site_fract_x
  _atom_site_fract_y
  _atom_site_fract_z
  _atom_site_thermal_displace_type
  _atom_site_B_iso_or_equiv
  _atom_site_type_symbol
  Cu1      1.0000 0.25000  0.50000  0.14098  Biso   1.000  Cu
  Cu2      1.0000 0.75000  0.50000  0.35902  Biso   1.000  Cu
  Cu3      1.0000 0.75000  0.50000  0.85902  Biso   1.000  Cu
  Cu4      1.0000 0.25000  0.50000  0.64098  Biso   1.000  Cu
  C1       1.0000 0.98150  0.39350  0.02900  Biso   1.000  C
  C2       1.0000 0.51850  0.60650  0.02900  Biso   1.000  C
  C3       1.0000 0.01850  0.39350  0.47100  Biso   1.000  C
  C4       1.0000 0.48150  0.60650  0.47100  Biso   1.000  C
  C5       1.0000 0.01850  0.60650  0.97100  Biso   1.000  C
  C6       1.0000 0.48150  0.39350  0.97100  Biso   1.000  C
  C7       1.0000 0.98150  0.60650  0.52900  Biso   1.000  C
  C8       1.0000 0.51850  0.39350  0.52900  Biso   1.000  C
  O1       1.0000 0.06790  0.31850  0.10190  Biso   1.000  O
  O2       1.0000 0.43210  0.68150  0.10190  Biso   1.000  O
  O3       1.0000 0.93210  0.31850  0.39810  Biso   1.000  O
  O4       1.0000 0.56790  0.68150  0.39810  Biso   1.000  O
  O5       1.0000 0.93210  0.68150  0.89810  Biso   1.000  O
  O6       1.0000 0.56790  0.31850  0.89810  Biso   1.000  O
  O7       1.0000 0.06790  0.68150  0.60190  Biso   1.000  O
  O8       1.0000 0.43210  0.31850  0.60190  Biso   1.000  O
  O9       1.0000 0.13180  0.67850  0.00170  Biso   1.000  O
  O10      1.0000 0.36820  0.32150  0.00170  Biso   1.000  O
  O11      1.0000 0.86820  0.67850  0.49830  Biso   1.000  O
  O12      1.0000 0.63180  0.32150  0.49830  Biso   1.000  O
  O13      1.0000 0.86820  0.32150  0.99830  Biso   1.000  O
  O14      1.0000 0.63180  0.67850  0.99830  Biso   1.000  O
  O15      1.0000 0.13180  0.32150  0.50170  Biso   1.000  O
  O16      1.0000 0.36820  0.67850  0.50170  Biso   1.000  O
  O17      1.0000 0.18640  0.70050  0.29260  Biso   1.000  O
  O18      1.0000 0.31360  0.29950  0.29260  Biso   1.000  O
  O19      1.0000 0.81360  0.70050  0.20740  Biso   1.000  O
  O20      1.0000 0.68640  0.29950  0.20740  Biso   1.000  O
  O21      1.0000 0.81360  0.29950  0.70740  Biso   1.000  O
  O22      1.0000 0.68640  0.70050  0.70740  Biso   1.000  O
  O23      1.0000 0.18640  0.29950  0.79260  Biso   1.000  O
  O24      1.0000 0.31360  0.70050  0.79260  Biso   1.000  O
  H1       1.0000 0.15840  0.82660  0.25720  Biso   1.000  H
  H2       1.0000 0.34160  0.17340  0.25720  Biso   1.000  H
  H3       1.0000 0.84160  0.82660  0.24280  Biso   1.000  H
  H4       1.0000 0.65840  0.17340  0.24280  Biso   1.000  H
  H5       1.0000 0.84160  0.17340  0.74280  Biso   1.000  H
  H6       1.0000 0.65840  0.82660  0.74280  Biso   1.000  H
  H7       1.0000 0.15840  0.17340  0.75720  Biso   1.000  H
  H8       1.0000 0.34160  0.82660  0.75720  Biso   1.000  H
  H9       1.0000 0.26220  0.72090  0.34970  Biso   1.000  H
  H10      1.0000 0.23780  0.27910  0.34970  Biso   1.000  H
  H11      1.0000 0.73780  0.72090  0.15030  Biso   1.000  H
  H12      1.0000 0.76220  0.27910  0.15030  Biso   1.000  H
  H13      1.0000 0.73780  0.27910  0.65030  Biso   1.000  H
  H14      1.0000 0.76220  0.72090  0.65030  Biso   1.000  H
  H15      1.0000 0.26220  0.27910  0.84970  Biso   1.000  H
  H16      1.0000 0.23780  0.72090  0.84970  Biso   1.000  H
  O25      1.0000 0.00000  0.98980  0.25000  Biso   1.000  O
  O26      1.0000 0.50000  0.01020  0.25000  Biso   1.000  O
  O27      1.0000 0.00000  0.01020  0.75000  Biso   1.000  O
  O28      1.0000 0.50000  0.98980  0.75000  Biso   1.000  O
  H17      1.0000 0.03020  0.07340  0.18060  Biso   1.000  H
  H18      1.0000 0.46980  0.92660  0.18060  Biso   1.000  H
  H19      1.0000 0.96980  0.07340  0.31940  Biso   1.000  H
  H20      1.0000 0.53020  0.92660  0.31940  Biso   1.000  H
  H21      1.0000 0.96980  0.92660  0.81940  Biso   1.000  H
  H22      1.0000 0.53020  0.07340  0.81940  Biso   1.000  H
  H23      1.0000 0.03020  0.92660  0.68060  Biso   1.000  H
  H24      1.0000 0.46980  0.07340  0.68060  Biso   1.000  H
