data_image0
_cell_length_a       9.429
_cell_length_b       9.875
_cell_length_c       12.591
_cell_angle_alpha    71.427
_cell_angle_beta     81.358
_cell_angle_gamma    72.474

_symmetry_space_group_name_H-M    "P 1"
_symmetry_int_tables_number       1

loop_
  _symmetry_equiv_pos_as_xyz
  'x, y, z'

loop_
  _atom_site_label
  _atom_site_occupancy
  _atom_site_fract_x
  _atom_site_fract_y
  _atom_site_fract_z
  _atom_site_thermal_displace_type
  _atom_site_B_iso_or_equiv
  _atom_site_type_symbol
  Cu1      1.0000 0.71694  0.80304  0.29321  Biso   1.000  Cu
  Cu2      1.0000 0.28306  0.19696  0.70679  Biso   1.000  Cu
  Mo1      1.0000 0.89195  0.88519  0.01774  Biso   1.000  Mo
  Mo2      1.0000 0.10805  0.11481  0.98226  Biso   1.000  Mo
  Mo3      1.0000 0.78516  0.14024  0.14241  Biso   1.000  Mo
  Mo4      1.0000 0.21484  0.85976  0.85759  Biso   1.000  Mo
  Mo5      1.0000 0.90973  0.07246  0.73658  Biso   1.000  Mo
  Mo6      1.0000 0.09027  0.92754  0.26342  Biso   1.000  Mo
  Mo7      1.0000 0.58740  0.13455  0.88669  Biso   1.000  Mo
  Mo8      1.0000 0.41260  0.86545  0.11331  Biso   1.000  Mo
  O1       1.0000 0.51140  0.12830  0.77350  Biso   1.000  O
  O2       1.0000 0.48860  0.87170  0.22650  Biso   1.000  O
  O3       1.0000 0.48830  0.29700  0.91040  Biso   1.000  O
  O4       1.0000 0.51170  0.70300  0.08960  Biso   1.000  O
  O5       1.0000 0.50000  0.00000  0.00000  Biso   1.000  O
  O6       1.0000 0.78500  0.93190  0.89250  Biso   1.000  O
  O7       1.0000 0.21500  0.06810  0.10750  Biso   1.000  O
  O8       1.0000 0.74170  0.10000  0.01850  Biso   1.000  O
  O9       1.0000 0.25830  0.90000  0.98150  Biso   1.000  O
  O10      1.0000 0.04970  0.75190  0.98860  Biso   1.000  O
  O11      1.0000 0.95030  0.24810  0.01140  Biso   1.000  O
  O12      1.0000 0.79860  0.79090  0.13430  Biso   1.000  O
  O13      1.0000 0.20140  0.20910  0.86570  Biso   1.000  O
  O14      1.0000 0.01590  0.03380  0.89480  Biso   1.000  O
  O15      1.0000 0.98410  0.96620  0.10520  Biso   1.000  O
  O16      1.0000 0.69780  0.01950  0.24290  Biso   1.000  O
  O17      1.0000 0.30220  0.98050  0.75710  Biso   1.000  O
  O18      1.0000 0.67380  0.31280  0.13880  Biso   1.000  O
  O19      1.0000 0.32620  0.68720  0.86120  Biso   1.000  O
  O20      1.0000 0.93560  0.12160  0.23630  Biso   1.000  O
  O21      1.0000 0.06440  0.87840  0.76370  Biso   1.000  O
  O22      1.0000 0.82200  0.04270  0.64010  Biso   1.000  O
  O23      1.0000 0.17800  0.95730  0.35990  Biso   1.000  O
  O24      1.0000 0.01360  0.18940  0.66130  Biso   1.000  O
  O25      1.0000 0.98640  0.81060  0.33870  Biso   1.000  O
  O26      1.0000 0.75210  0.20880  0.79260  Biso   1.000  O
  O27      1.0000 0.24790  0.79120  0.20740  Biso   1.000  O
  C1       1.0000 0.69590  0.88970  0.49750  Biso   1.000  C
  C2       1.0000 0.30410  0.11030  0.50250  Biso   1.000  C
  H1       1.0000 0.76370  0.94530  0.46580  Biso   1.000  H
  H2       1.0000 0.23630  0.05470  0.53420  Biso   1.000  H
  C3       1.0000 0.54230  0.78580  0.61790  Biso   1.000  C
  C4       1.0000 0.45770  0.21420  0.38210  Biso   1.000  C
  H3       1.0000 0.48350  0.75570  0.68240  Biso   1.000  H
  H4       1.0000 0.51650  0.24430  0.31760  Biso   1.000  H
  C5       1.0000 0.55890  0.74590  0.52290  Biso   1.000  C
  C6       1.0000 0.44110  0.25410  0.47710  Biso   1.000  C
  H5       1.0000 0.51220  0.68220  0.51030  Biso   1.000  H
  H6       1.0000 0.48780  0.31780  0.48970  Biso   1.000  H
  C7       1.0000 0.83070  0.49130  0.43490  Biso   1.000  C
  C8       1.0000 0.16930  0.50870  0.56510  Biso   1.000  C
  H7       1.0000 0.85260  0.52020  0.49270  Biso   1.000  H
  H8       1.0000 0.14740  0.47980  0.50730  Biso   1.000  H
  C9       1.0000 0.86180  0.35040  0.43340  Biso   1.000  C
  C10      1.0000 0.13820  0.64960  0.56660  Biso   1.000  C
  H9       1.0000 0.90460  0.26550  0.48920  Biso   1.000  H
  H10      1.0000 0.09540  0.73450  0.51080  Biso   1.000  H
  C11      1.0000 0.75700  0.49930  0.28110  Biso   1.000  C
  C12      1.0000 0.24300  0.50070  0.71890  Biso   1.000  C
  H11      1.0000 0.71570  0.53290  0.21170  Biso   1.000  H
  H12      1.0000 0.28430  0.46710  0.78830  Biso   1.000  H
  C13      1.0000 0.12770  0.47650  0.21480  Biso   1.000  C
  C14      1.0000 0.87230  0.52350  0.78520  Biso   1.000  C
  H13      1.0000 0.04650  0.50980  0.26080  Biso   1.000  H
  H14      1.0000 0.95350  0.49020  0.73920  Biso   1.000  H
  C15      1.0000 0.28160  0.35560  0.10980  Biso   1.000  C
  C16      1.0000 0.71840  0.64440  0.89020  Biso   1.000  C
  H15      1.0000 0.32600  0.28820  0.06920  Biso   1.000  H
  H16      1.0000 0.67400  0.71180  0.93080  Biso   1.000  H
  C17      1.0000 0.33190  0.45590  0.11370  Biso   1.000  C
  C18      1.0000 0.66810  0.54410  0.88630  Biso   1.000  C
  H17      1.0000 0.42080  0.47340  0.07720  Biso   1.000  H
  H18      1.0000 0.57920  0.52660  0.92280  Biso   1.000  H
  N1       1.0000 0.65420  0.81310  0.44870  Biso   1.000  N
  N2       1.0000 0.34580  0.18690  0.55130  Biso   1.000  N
  N3       1.0000 0.62890  0.87870  0.59970  Biso   1.000  N
  N4       1.0000 0.37110  0.12130  0.40030  Biso   1.000  N
  H19      1.0000 0.63910  0.92280  0.64580  Biso   1.000  H
  H20      1.0000 0.36090  0.07720  0.35420  Biso   1.000  H
  N5       1.0000 0.76210  0.58810  0.33970  Biso   1.000  N
  N6       1.0000 0.23790  0.41190  0.66030  Biso   1.000  N
  N7       1.0000 0.81750  0.35710  0.33250  Biso   1.000  N
  N8       1.0000 0.18250  0.64290  0.66750  Biso   1.000  N
  H21      1.0000 0.82710  0.28320  0.30730  Biso   1.000  H
  H22      1.0000 0.17290  0.71680  0.69270  Biso   1.000  H
  N9       1.0000 0.15310  0.35860  0.17320  Biso   1.000  N
  N10      1.0000 0.84690  0.64140  0.82680  Biso   1.000  N
  H23      1.0000 0.09840  0.29890  0.18500  Biso   1.000  H
  H24      1.0000 0.90160  0.70110  0.81500  Biso   1.000  H
  N11      1.0000 0.24320  0.53380  0.17610  Biso   1.000  N
  N12      1.0000 0.75680  0.46620  0.82390  Biso   1.000  N
  H25      1.0000 0.25690  0.60880  0.18970  Biso   1.000  H
  H26      1.0000 0.74310  0.39120  0.81030  Biso   1.000  H
