data_image0
_cell_length_a       11.5849
_cell_length_b       18.4697
_cell_length_c       12.2645
_cell_angle_alpha    90
_cell_angle_beta     94.179
_cell_angle_gamma    90

_symmetry_space_group_name_H-M    "P 1"
_symmetry_int_tables_number       1

loop_
  _symmetry_equiv_pos_as_xyz
  'x, y, z'

loop_
  _atom_site_label
  _atom_site_occupancy
  _atom_site_fract_x
  _atom_site_fract_y
  _atom_site_fract_z
  _atom_site_thermal_displace_type
  _atom_site_B_iso_or_equiv
  _atom_site_type_symbol
  C1       1.0000 0.72310  0.38960  0.97230  Biso   1.000  C
  C2       1.0000 0.77690  0.88960  0.52770  Biso   1.000  C
  C3       1.0000 0.27690  0.61040  0.02770  Biso   1.000  C
  C4       1.0000 0.22310  0.11040  0.47230  Biso   1.000  C
  H1       1.0000 0.76470  0.42450  0.93700  Biso   1.000  H
  H2       1.0000 0.73530  0.92450  0.56300  Biso   1.000  H
  H3       1.0000 0.23530  0.57550  0.06300  Biso   1.000  H
  H4       1.0000 0.26470  0.07550  0.43700  Biso   1.000  H
  C5       1.0000 0.61680  0.36430  0.93910  Biso   1.000  C
  C6       1.0000 0.88320  0.86430  0.56090  Biso   1.000  C
  C7       1.0000 0.38320  0.63570  0.06090  Biso   1.000  C
  C8       1.0000 0.11680  0.13570  0.43910  Biso   1.000  C
  H5       1.0000 0.57110  0.37780  0.87690  Biso   1.000  H
  H6       1.0000 0.92890  0.87780  0.62310  Biso   1.000  H
  H7       1.0000 0.42890  0.62220  0.12310  Biso   1.000  H
  H8       1.0000 0.07110  0.12220  0.37690  Biso   1.000  H
  C9       1.0000 0.59060  0.31400  0.01680  Biso   1.000  C
  C10      1.0000 0.90940  0.81400  0.48320  Biso   1.000  C
  C11      1.0000 0.40940  0.68600  0.98320  Biso   1.000  C
  C12      1.0000 0.09060  0.18600  0.51680  Biso   1.000  C
  H9       1.0000 0.52210  0.28770  0.01600  Biso   1.000  H
  H10      1.0000 0.97790  0.78770  0.48400  Biso   1.000  H
  H11      1.0000 0.47790  0.71230  0.98400  Biso   1.000  H
  H12      1.0000 0.02210  0.21230  0.51600  Biso   1.000  H
  C13      1.0000 0.36210  0.24760  0.30370  Biso   1.000  C
  C14      1.0000 0.13790  0.74760  0.19630  Biso   1.000  C
  C15      1.0000 0.63790  0.75240  0.69630  Biso   1.000  C
  C16      1.0000 0.86210  0.25240  0.80370  Biso   1.000  C
  H13      1.0000 0.29540  0.22300  0.31990  Biso   1.000  H
  H14      1.0000 0.20460  0.72300  0.18010  Biso   1.000  H
  H15      1.0000 0.70460  0.77700  0.68010  Biso   1.000  H
  H16      1.0000 0.79540  0.27700  0.81990  Biso   1.000  H
  C17      1.0000 0.46110  0.21770  0.28490  Biso   1.000  C
  C18      1.0000 0.03890  0.71770  0.21510  Biso   1.000  C
  C19      1.0000 0.53890  0.78230  0.71510  Biso   1.000  C
  C20      1.0000 0.96110  0.28230  0.78490  Biso   1.000  C
  H17      1.0000 0.47460  0.16810  0.28600  Biso   1.000  H
  H18      1.0000 0.02540  0.66810  0.21400  Biso   1.000  H
  H19      1.0000 0.52540  0.83190  0.71400  Biso   1.000  H
  H20      1.0000 0.97460  0.33190  0.78600  Biso   1.000  H
  C21      1.0000 0.71960  0.12670  0.51790  Biso   1.000  C
  C22      1.0000 0.78040  0.62670  0.98210  Biso   1.000  C
  C23      1.0000 0.28040  0.87330  0.48210  Biso   1.000  C
  C24      1.0000 0.21960  0.37330  0.01790  Biso   1.000  C
  H21      1.0000 0.70380  0.11780  0.58990  Biso   1.000  H
  H22      1.0000 0.79620  0.61780  0.91010  Biso   1.000  H
  H23      1.0000 0.29620  0.88220  0.41010  Biso   1.000  H
  H24      1.0000 0.20380  0.38220  0.08990  Biso   1.000  H
  C25      1.0000 0.78290  0.08560  0.45130  Biso   1.000  C
  C26      1.0000 0.71710  0.58560  0.04870  Biso   1.000  C
  C27      1.0000 0.21710  0.91440  0.54870  Biso   1.000  C
  C28      1.0000 0.28290  0.41440  0.95130  Biso   1.000  C
  H25      1.0000 0.81970  0.04230  0.47070  Biso   1.000  H
  H26      1.0000 0.68030  0.54230  0.02930  Biso   1.000  H
  H27      1.0000 0.18030  0.95770  0.52930  Biso   1.000  H
  H28      1.0000 0.31970  0.45770  0.97070  Biso   1.000  H
  C29      1.0000 0.78300  0.11670  0.35710  Biso   1.000  C
  C30      1.0000 0.71700  0.61670  0.14290  Biso   1.000  C
  C31      1.0000 0.21700  0.88330  0.64290  Biso   1.000  C
  C32      1.0000 0.28300  0.38330  0.85710  Biso   1.000  C
  H29      1.0000 0.82080  0.09820  0.29880  Biso   1.000  H
  H30      1.0000 0.67920  0.59820  0.20120  Biso   1.000  H
  H31      1.0000 0.17920  0.90180  0.70120  Biso   1.000  H
  H32      1.0000 0.32080  0.40180  0.79880  Biso   1.000  H
  C33      1.0000 0.87900  0.17790  0.09120  Biso   1.000  C
  C34      1.0000 0.62100  0.67790  0.40880  Biso   1.000  C
  C35      1.0000 0.12100  0.82210  0.90880  Biso   1.000  C
  C36      1.0000 0.37900  0.32210  0.59120  Biso   1.000  C
  H33      1.0000 0.82100  0.15630  0.04570  Biso   1.000  H
  H34      1.0000 0.67900  0.65630  0.45430  Biso   1.000  H
  H35      1.0000 0.17900  0.84370  0.95430  Biso   1.000  H
  H36      1.0000 0.32100  0.34370  0.54570  Biso   1.000  H
  C37      1.0000 0.99020  0.17180  0.07740  Biso   1.000  C
  C38      1.0000 0.50980  0.67180  0.42260  Biso   1.000  C
  C39      1.0000 0.00980  0.82820  0.92260  Biso   1.000  C
  C40      1.0000 0.49020  0.32820  0.57740  Biso   1.000  C
  H37      1.0000 0.02260  0.14480  0.02330  Biso   1.000  H
  H38      1.0000 0.47740  0.64480  0.47670  Biso   1.000  H
  H39      1.0000 0.97740  0.85520  0.97670  Biso   1.000  H
  H40      1.0000 0.52260  0.35520  0.52330  Biso   1.000  H
  C41      1.0000 0.04880  0.21140  0.15540  Biso   1.000  C
  C42      1.0000 0.45120  0.71140  0.34460  Biso   1.000  C
  C43      1.0000 0.95120  0.78860  0.84460  Biso   1.000  C
  C44      1.0000 0.54880  0.28860  0.65540  Biso   1.000  C
  H41      1.0000 0.12850  0.21810  0.16530  Biso   1.000  H
  H42      1.0000 0.37150  0.71810  0.33470  Biso   1.000  H
  H43      1.0000 0.87150  0.78190  0.83470  Biso   1.000  H
  H44      1.0000 0.62850  0.28190  0.66530  Biso   1.000  H
  C45      1.0000 0.37300  0.32060  0.29540  Biso   1.000  C
  C46      1.0000 0.12700  0.82060  0.20460  Biso   1.000  C
  C47      1.0000 0.62700  0.67940  0.70460  Biso   1.000  C
  C48      1.0000 0.87300  0.17940  0.79540  Biso   1.000  C
  H45      1.0000 0.31690  0.35570  0.30430  Biso   1.000  H
  H46      1.0000 0.18310  0.85570  0.19570  Biso   1.000  H
  H47      1.0000 0.68310  0.64430  0.69570  Biso   1.000  H
  H48      1.0000 0.81690  0.14430  0.80430  Biso   1.000  H
  N1       1.0000 0.67750  0.30900  0.09270  Biso   1.000  N
  N2       1.0000 0.82250  0.80900  0.40730  Biso   1.000  N
  N3       1.0000 0.32250  0.69100  0.90730  Biso   1.000  N
  N4       1.0000 0.17750  0.19100  0.59270  Biso   1.000  N
  N5       1.0000 0.75710  0.35570  0.06400  Biso   1.000  N
  N6       1.0000 0.74290  0.85570  0.43600  Biso   1.000  N
  N7       1.0000 0.24290  0.64430  0.93600  Biso   1.000  N
  N8       1.0000 0.25710  0.14430  0.56400  Biso   1.000  N
  H49      1.0000 0.82240  0.36290  0.10040  Biso   1.000  H
  H50      1.0000 0.67760  0.86290  0.39960  Biso   1.000  H
  H51      1.0000 0.17760  0.63710  0.89960  Biso   1.000  H
  H52      1.0000 0.32240  0.13710  0.60040  Biso   1.000  H
  N9       1.0000 0.48660  0.33080  0.27090  Biso   1.000  N
  N10      1.0000 0.01340  0.83080  0.22910  Biso   1.000  N
  N11      1.0000 0.51340  0.66920  0.72910  Biso   1.000  N
  N12      1.0000 0.98660  0.16920  0.77090  Biso   1.000  N
  H53      1.0000 0.51790  0.37230  0.26150  Biso   1.000  H
  H54      1.0000 0.98210  0.87230  0.23850  Biso   1.000  H
  H55      1.0000 0.48210  0.62770  0.73850  Biso   1.000  H
  H56      1.0000 0.01790  0.12770  0.76150  Biso   1.000  H
  N13      1.0000 0.85870  0.21860  0.17830  Biso   1.000  N
  N14      1.0000 0.64130  0.71860  0.32170  Biso   1.000  N
  N15      1.0000 0.14130  0.78140  0.82170  Biso   1.000  N
  N16      1.0000 0.35870  0.28140  0.67830  Biso   1.000  N
  N17      1.0000 0.96410  0.24040  0.21820  Biso   1.000  N
  N18      1.0000 0.53590  0.74040  0.28180  Biso   1.000  N
  N19      1.0000 0.03590  0.75960  0.78180  Biso   1.000  N
  N20      1.0000 0.46410  0.25960  0.71820  Biso   1.000  N
  H57      1.0000 0.97740  0.26800  0.27410  Biso   1.000  H
  H58      1.0000 0.52260  0.76800  0.22590  Biso   1.000  H
  H59      1.0000 0.02260  0.73200  0.72590  Biso   1.000  H
  H60      1.0000 0.47740  0.23200  0.77410  Biso   1.000  H
  N21      1.0000 0.72310  0.17830  0.35280  Biso   1.000  N
  N22      1.0000 0.77690  0.67830  0.14720  Biso   1.000  N
  N23      1.0000 0.27690  0.82170  0.64720  Biso   1.000  N
  N24      1.0000 0.22310  0.32170  0.85280  Biso   1.000  N
  N25      1.0000 0.68480  0.18460  0.45260  Biso   1.000  N
  N26      1.0000 0.81520  0.68460  0.04740  Biso   1.000  N
  N27      1.0000 0.31520  0.81540  0.54740  Biso   1.000  N
  N28      1.0000 0.18480  0.31540  0.95260  Biso   1.000  N
  H61      1.0000 0.64380  0.22010  0.47330  Biso   1.000  H
  H62      1.0000 0.85620  0.72010  0.02670  Biso   1.000  H
  H63      1.0000 0.35620  0.77990  0.52670  Biso   1.000  H
  H64      1.0000 0.14380  0.27990  0.97330  Biso   1.000  H
  N29      1.0000 0.54080  0.26770  0.26390  Biso   1.000  N
  N30      1.0000 0.95920  0.76770  0.23610  Biso   1.000  N
  N31      1.0000 0.45920  0.73230  0.73610  Biso   1.000  N
  N32      1.0000 0.04080  0.23230  0.76390  Biso   1.000  N
  Mo1      1.0000 0.59872  0.07008  0.03706  Biso   1.000  Mo
  Mo2      1.0000 0.90128  0.57008  0.46294  Biso   1.000  Mo
  Mo3      1.0000 0.40128  0.92992  0.96294  Biso   1.000  Mo
  Mo4      1.0000 0.09872  0.42992  0.53706  Biso   1.000  Mo
  Mo5      1.0000 0.34466  0.11794  0.94270  Biso   1.000  Mo
  Mo6      1.0000 0.15534  0.61794  0.55730  Biso   1.000  Mo
  Mo7      1.0000 0.65534  0.88206  0.05730  Biso   1.000  Mo
  Mo8      1.0000 0.84466  0.38206  0.44270  Biso   1.000  Mo
  Mo9      1.0000 0.23589  0.02617  0.13735  Biso   1.000  Mo
  Mo10     1.0000 0.26411  0.52617  0.36265  Biso   1.000  Mo
  Mo11     1.0000 0.76411  0.97383  0.86265  Biso   1.000  Mo
  Mo12     1.0000 0.73589  0.47383  0.63735  Biso   1.000  Mo
  Mo13     1.0000 0.50536  0.01978  0.76779  Biso   1.000  Mo
  Mo14     1.0000 0.99464  0.51978  0.73221  Biso   1.000  Mo
  Mo15     1.0000 0.49464  0.98022  0.23221  Biso   1.000  Mo
  Mo16     1.0000 0.00536  0.48022  0.26779  Biso   1.000  Mo
  O1       1.0000 0.78610  0.34660  0.32210  Biso   1.000  O
  O2       1.0000 0.71390  0.84660  0.17790  Biso   1.000  O
  O3       1.0000 0.21390  0.65340  0.67790  Biso   1.000  O
  O4       1.0000 0.28610  0.15340  0.82210  Biso   1.000  O
  O5       1.0000 0.36380  0.18962  0.02800  Biso   1.000  O
  O6       1.0000 0.13620  0.68962  0.47200  Biso   1.000  O
  O7       1.0000 0.63620  0.81038  0.97200  Biso   1.000  O
  O8       1.0000 0.86380  0.31038  0.52800  Biso   1.000  O
  O9       1.0000 0.21480  0.07152  0.99590  Biso   1.000  O
  O10      1.0000 0.28520  0.57152  0.50410  Biso   1.000  O
  O11      1.0000 0.78520  0.92848  0.00410  Biso   1.000  O
  O12      1.0000 0.71480  0.42848  0.49590  Biso   1.000  O
  O13      1.0000 0.51010  0.10701  0.90850  Biso   1.000  O
  O14      1.0000 0.98990  0.60701  0.59150  Biso   1.000  O
  O15      1.0000 0.48990  0.89299  0.09150  Biso   1.000  O
  O16      1.0000 0.01010  0.39299  0.40850  Biso   1.000  O
  O17      1.0000 0.42950  0.03561  0.06790  Biso   1.000  O
  O18      1.0000 0.07050  0.53561  0.43210  Biso   1.000  O
  O19      1.0000 0.57050  0.96439  0.93210  Biso   1.000  O
  O20      1.0000 0.92950  0.46439  0.56790  Biso   1.000  O
  O21      1.0000 0.61110  0.14444  0.11800  Biso   1.000  O
  O22      1.0000 0.88890  0.64444  0.38200  Biso   1.000  O
  O23      1.0000 0.38890  0.85556  0.88200  Biso   1.000  O
  O24      1.0000 0.11110  0.35556  0.61800  Biso   1.000  O
  O25      1.0000 0.49580  0.93977  0.69970  Biso   1.000  O
  O26      1.0000 0.00420  0.43977  0.80030  Biso   1.000  O
  O27      1.0000 0.50420  0.06023  0.30030  Biso   1.000  O
  O28      1.0000 0.99580  0.56023  0.19970  Biso   1.000  O
  O29      1.0000 0.45310  0.08346  0.67720  Biso   1.000  O
  O30      1.0000 0.04690  0.58346  0.82280  Biso   1.000  O
  O31      1.0000 0.54690  0.91654  0.32280  Biso   1.000  O
  O32      1.0000 0.95310  0.41654  0.17720  Biso   1.000  O
  O33      1.0000 0.63240  0.99477  0.14480  Biso   1.000  O
  O34      1.0000 0.86760  0.49477  0.35520  Biso   1.000  O
  O35      1.0000 0.36760  0.00523  0.85520  Biso   1.000  O
  O36      1.0000 0.13240  0.50523  0.64480  Biso   1.000  O
  O37      1.0000 0.73260  0.06683  0.97940  Biso   1.000  O
  O38      1.0000 0.76740  0.56683  0.52060  Biso   1.000  O
  O39      1.0000 0.26740  0.93317  0.02060  Biso   1.000  O
  O40      1.0000 0.23260  0.43317  0.47940  Biso   1.000  O
  O41      1.0000 0.10070  0.99580  0.15710  Biso   1.000  O
  O42      1.0000 0.39930  0.49580  0.34290  Biso   1.000  O
  O43      1.0000 0.89930  0.00420  0.84290  Biso   1.000  O
  O44      1.0000 0.60070  0.50420  0.65710  Biso   1.000  O
  O45      1.0000 0.25540  0.10150  0.21530  Biso   1.000  O
  O46      1.0000 0.24460  0.60150  0.28470  Biso   1.000  O
  O47      1.0000 0.74460  0.89850  0.78470  Biso   1.000  O
  O48      1.0000 0.75540  0.39850  0.71530  Biso   1.000  O
  O49      1.0000 0.33440  0.96221  0.22600  Biso   1.000  O
  O50      1.0000 0.16560  0.46221  0.27400  Biso   1.000  O
  O51      1.0000 0.66560  0.03779  0.77400  Biso   1.000  O
  O52      1.0000 0.83440  0.53779  0.72600  Biso   1.000  O
  O53      1.0000 0.12140  0.98120  0.77640  Biso   1.000  O
  O54      1.0000 0.37860  0.48120  0.72360  Biso   1.000  O
  O55      1.0000 0.87860  0.01880  0.22360  Biso   1.000  O
  O56      1.0000 0.62140  0.51880  0.27640  Biso   1.000  O
  H65      1.0000 0.16200  0.99600  0.81000  Biso   1.000  H
  H66      1.0000 0.33800  0.49600  0.69000  Biso   1.000  H
  H67      1.0000 0.83800  0.00400  0.19000  Biso   1.000  H
  H68      1.0000 0.66200  0.50400  0.31000  Biso   1.000  H
  H69      1.0000 0.06800  0.98100  0.80400  Biso   1.000  H
  H70      1.0000 0.43200  0.48100  0.69600  Biso   1.000  H
  H71      1.0000 0.93200  0.01900  0.19600  Biso   1.000  H
  H72      1.0000 0.56800  0.51900  0.30400  Biso   1.000  H
  Cu1      1.0000 0.70109  0.24455  0.22500  Biso   1.000  Cu
  Cu2      1.0000 0.79891  0.74455  0.27500  Biso   1.000  Cu
  Cu3      1.0000 0.29891  0.75545  0.77500  Biso   1.000  Cu
  Cu4      1.0000 0.20109  0.25545  0.72500  Biso   1.000  Cu
