data_image0
_cell_length_a       11.252
_cell_length_b       11.441
_cell_length_c       16.478
_cell_angle_alpha    90
_cell_angle_beta     97.713
_cell_angle_gamma    90

_symmetry_space_group_name_H-M    "P 1"
_symmetry_int_tables_number       1

loop_
  _symmetry_equiv_pos_as_xyz
  'x, y, z'

loop_
  _atom_site_label
  _atom_site_occupancy
  _atom_site_fract_x
  _atom_site_fract_y
  _atom_site_fract_z
  _atom_site_thermal_displace_type
  _atom_site_B_iso_or_equiv
  _atom_site_type_symbol
  Cu1      1.0000 0.62558  0.67406  0.54904  Biso   1.000  Cu
  Cu2      1.0000 0.37442  0.17406  0.95096  Biso   1.000  Cu
  Cu3      1.0000 0.37442  0.32594  0.45096  Biso   1.000  Cu
  Cu4      1.0000 0.62558  0.82594  0.04904  Biso   1.000  Cu
  S1       1.0000 0.00604  0.97386  0.84479  Biso   1.000  S
  S2       1.0000 0.99396  0.47386  0.65521  Biso   1.000  S
  S3       1.0000 0.99396  0.02614  0.15521  Biso   1.000  S
  S4       1.0000 0.00604  0.52614  0.34479  Biso   1.000  S
  S5       1.0000 0.13478  0.73784  0.51885  Biso   1.000  S
  S6       1.0000 0.86522  0.23784  0.98115  Biso   1.000  S
  S7       1.0000 0.86522  0.26216  0.48115  Biso   1.000  S
  S8       1.0000 0.13478  0.76216  0.01885  Biso   1.000  S
  O1       1.0000 0.35640  0.94710  0.86360  Biso   1.000  O
  O2       1.0000 0.64360  0.44710  0.63640  Biso   1.000  O
  O3       1.0000 0.64360  0.05290  0.13640  Biso   1.000  O
  O4       1.0000 0.35640  0.55290  0.36360  Biso   1.000  O
  O5       1.0000 0.23660  0.07030  0.91966  Biso   1.000  O
  O6       1.0000 0.76340  0.57030  0.58034  Biso   1.000  O
  O7       1.0000 0.76340  0.92970  0.08034  Biso   1.000  O
  O8       1.0000 0.23660  0.42970  0.41966  Biso   1.000  O
  O9       1.0000 0.36950  0.64230  0.57900  Biso   1.000  O
  O10      1.0000 0.63050  0.14230  0.92100  Biso   1.000  O
  O11      1.0000 0.63050  0.35770  0.42100  Biso   1.000  O
  O12      1.0000 0.36950  0.85770  0.07900  Biso   1.000  O
  O13      1.0000 0.48100  0.76850  0.51731  Biso   1.000  O
  O14      1.0000 0.51900  0.26850  0.98269  Biso   1.000  O
  O15      1.0000 0.51900  0.23150  0.48269  Biso   1.000  O
  O16      1.0000 0.48100  0.73150  0.01731  Biso   1.000  O
  O17      1.0000 0.57630  0.57830  0.45105  Biso   1.000  O
  O18      1.0000 0.42370  0.07830  0.04895  Biso   1.000  O
  O19      1.0000 0.42370  0.42170  0.54895  Biso   1.000  O
  O20      1.0000 0.57630  0.92170  0.95105  Biso   1.000  O
  H1       1.0000 0.61090  0.51190  0.45390  Biso   1.000  H
  H2       1.0000 0.38910  0.01190  0.04610  Biso   1.000  H
  H3       1.0000 0.38910  0.48810  0.54610  Biso   1.000  H
  H4       1.0000 0.61090  0.98810  0.95390  Biso   1.000  H
  H5       1.0000 0.50270  0.57950  0.43050  Biso   1.000  H
  H6       1.0000 0.49730  0.07950  0.06950  Biso   1.000  H
  H7       1.0000 0.49730  0.42050  0.56950  Biso   1.000  H
  H8       1.0000 0.50270  0.92050  0.93050  Biso   1.000  H
  N1       1.0000 0.66300  0.75710  0.65890  Biso   1.000  N
  N2       1.0000 0.33700  0.25710  0.84110  Biso   1.000  N
  N3       1.0000 0.33700  0.24290  0.34110  Biso   1.000  N
  N4       1.0000 0.66300  0.74290  0.15890  Biso   1.000  N
  N5       1.0000 0.02280  0.80020  0.74910  Biso   1.000  N
  N6       1.0000 0.97720  0.30020  0.75090  Biso   1.000  N
  N7       1.0000 0.97720  0.19980  0.25090  Biso   1.000  N
  N8       1.0000 0.02280  0.69980  0.24910  Biso   1.000  N
  N9       1.0000 0.73990  0.79130  0.47320  Biso   1.000  N
  N10      1.0000 0.26010  0.29130  0.02680  Biso   1.000  N
  N11      1.0000 0.26010  0.20870  0.52680  Biso   1.000  N
  N12      1.0000 0.73990  0.70870  0.97320  Biso   1.000  N
  N13      1.0000 0.13580  0.91320  0.42150  Biso   1.000  N
  N14      1.0000 0.86420  0.41320  0.07850  Biso   1.000  N
  N15      1.0000 0.86420  0.08680  0.57850  Biso   1.000  N
  N16      1.0000 0.13580  0.58680  0.92150  Biso   1.000  N
  C1       1.0000 0.57960  0.80420  0.69930  Biso   1.000  C
  C2       1.0000 0.42040  0.30420  0.80070  Biso   1.000  C
  C3       1.0000 0.42040  0.19580  0.30070  Biso   1.000  C
  C4       1.0000 0.57960  0.69580  0.19930  Biso   1.000  C
  H9       1.0000 0.49940  0.78790  0.68160  Biso   1.000  H
  H10      1.0000 0.50060  0.28790  0.81840  Biso   1.000  H
  H11      1.0000 0.50060  0.21210  0.31840  Biso   1.000  H
  H12      1.0000 0.49940  0.71210  0.18160  Biso   1.000  H
  C5       1.0000 0.60760  0.87610  0.76630  Biso   1.000  C
  C6       1.0000 0.39240  0.37610  0.73370  Biso   1.000  C
  C7       1.0000 0.39240  0.12390  0.23370  Biso   1.000  C
  C8       1.0000 0.60760  0.62390  0.26630  Biso   1.000  C
  H13      1.0000 0.54680  0.90790  0.79240  Biso   1.000  H
  H14      1.0000 0.45320  0.40790  0.70760  Biso   1.000  H
  H15      1.0000 0.45320  0.09210  0.20760  Biso   1.000  H
  H16      1.0000 0.54680  0.59210  0.29240  Biso   1.000  H
  C9       1.0000 0.72680  0.90090  0.79470  Biso   1.000  C
  C10      1.0000 0.27320  0.40090  0.70530  Biso   1.000  C
  C11      1.0000 0.27320  0.09910  0.20530  Biso   1.000  C
  C12      1.0000 0.72680  0.59910  0.29470  Biso   1.000  C
  H17      1.0000 0.74700  0.95010  0.83930  Biso   1.000  H
  H18      1.0000 0.25300  0.45010  0.66070  Biso   1.000  H
  H19      1.0000 0.25300  0.04990  0.16070  Biso   1.000  H
  H20      1.0000 0.74700  0.54990  0.33930  Biso   1.000  H
  C13      1.0000 0.81520  0.85030  0.75470  Biso   1.000  C
  C14      1.0000 0.18480  0.35030  0.74530  Biso   1.000  C
  C15      1.0000 0.18480  0.14970  0.24530  Biso   1.000  C
  C16      1.0000 0.81520  0.64970  0.25470  Biso   1.000  C
  C17      1.0000 0.77770  0.77900  0.68750  Biso   1.000  C
  C18      1.0000 0.22230  0.27900  0.81250  Biso   1.000  C
  C19      1.0000 0.22230  0.22100  0.31250  Biso   1.000  C
  C20      1.0000 0.77770  0.72100  0.18750  Biso   1.000  C
  H21      1.0000 0.83630  0.74440  0.66080  Biso   1.000  H
  H22      1.0000 0.16370  0.24440  0.83920  Biso   1.000  H
  H23      1.0000 0.16370  0.25560  0.33920  Biso   1.000  H
  H24      1.0000 0.83630  0.75560  0.16080  Biso   1.000  H
  C21      1.0000 0.94430  0.86650  0.77900  Biso   1.000  C
  C22      1.0000 0.05570  0.36650  0.72100  Biso   1.000  C
  C23      1.0000 0.05570  0.13350  0.22100  Biso   1.000  C
  C24      1.0000 0.94430  0.63350  0.27900  Biso   1.000  C
  C25      1.0000 0.13860  0.83060  0.77870  Biso   1.000  C
  C26      1.0000 0.86140  0.33060  0.72130  Biso   1.000  C
  C27      1.0000 0.86140  0.16940  0.22130  Biso   1.000  C
  C28      1.0000 0.13860  0.66940  0.27870  Biso   1.000  C
  C29      1.0000 0.14700  0.92340  0.83200  Biso   1.000  C
  C30      1.0000 0.85300  0.42340  0.66800  Biso   1.000  C
  C31      1.0000 0.85300  0.07660  0.16800  Biso   1.000  C
  C32      1.0000 0.14700  0.57660  0.33200  Biso   1.000  C
  C33      1.0000 0.25560  0.98280  0.87510  Biso   1.000  C
  C34      1.0000 0.74440  0.48280  0.62490  Biso   1.000  C
  C35      1.0000 0.74440  0.01720  0.12490  Biso   1.000  C
  C36      1.0000 0.25560  0.51720  0.37510  Biso   1.000  C
  C37      1.0000 0.23820  0.76220  0.75190  Biso   1.000  C
  C38      1.0000 0.76180  0.26220  0.74810  Biso   1.000  C
  C39      1.0000 0.76180  0.23780  0.24810  Biso   1.000  C
  C40      1.0000 0.23820  0.73780  0.25190  Biso   1.000  C
  H25      1.0000 0.31340  0.79300  0.77740  Biso   1.000  H
  H26      1.0000 0.68660  0.29300  0.72260  Biso   1.000  H
  H27      1.0000 0.68660  0.20700  0.22260  Biso   1.000  H
  H28      1.0000 0.31340  0.70700  0.27740  Biso   1.000  H
  H29      1.0000 0.23450  0.76730  0.69350  Biso   1.000  H
  H30      1.0000 0.76550  0.26730  0.80650  Biso   1.000  H
  H31      1.0000 0.76550  0.23270  0.30650  Biso   1.000  H
  H32      1.0000 0.23450  0.73270  0.19350  Biso   1.000  H
  H33      1.0000 0.23120  0.68190  0.76760  Biso   1.000  H
  H34      1.0000 0.76880  0.18190  0.73240  Biso   1.000  H
  H35      1.0000 0.76880  0.31810  0.23240  Biso   1.000  H
  H36      1.0000 0.23120  0.81810  0.26760  Biso   1.000  H
  C41      1.0000 0.68950  0.86170  0.41470  Biso   1.000  C
  C42      1.0000 0.31050  0.36170  0.08530  Biso   1.000  C
  C43      1.0000 0.31050  0.13830  0.58530  Biso   1.000  C
  C44      1.0000 0.68950  0.63830  0.91470  Biso   1.000  C
  H37      1.0000 0.60620  0.86550  0.40580  Biso   1.000  H
  H38      1.0000 0.39380  0.36550  0.09420  Biso   1.000  H
  H39      1.0000 0.39380  0.13450  0.59420  Biso   1.000  H
  H40      1.0000 0.60620  0.63450  0.90580  Biso   1.000  H
  C45      1.0000 0.75200  0.92950  0.36630  Biso   1.000  C
  C46      1.0000 0.24800  0.42950  0.13370  Biso   1.000  C
  C47      1.0000 0.24800  0.07050  0.63370  Biso   1.000  C
  C48      1.0000 0.75200  0.57050  0.86630  Biso   1.000  C
  H41      1.0000 0.71190  0.97700  0.32580  Biso   1.000  H
  H42      1.0000 0.28810  0.47700  0.17420  Biso   1.000  H
  H43      1.0000 0.28810  0.02300  0.67420  Biso   1.000  H
  H44      1.0000 0.71190  0.52300  0.82580  Biso   1.000  H
  C49      1.0000 0.87640  0.92540  0.37930  Biso   1.000  C
  C50      1.0000 0.12360  0.42540  0.12070  Biso   1.000  C
  C51      1.0000 0.12360  0.07460  0.62070  Biso   1.000  C
  C52      1.0000 0.87640  0.57460  0.87930  Biso   1.000  C
  H45      1.0000 0.92140  0.97090  0.34800  Biso   1.000  H
  H46      1.0000 0.07860  0.47090  0.15200  Biso   1.000  H
  H47      1.0000 0.07860  0.02910  0.65200  Biso   1.000  H
  H48      1.0000 0.92140  0.52910  0.84800  Biso   1.000  H
  C53      1.0000 0.93190  0.85290  0.43950  Biso   1.000  C
  C54      1.0000 0.06810  0.35290  0.06050  Biso   1.000  C
  C55      1.0000 0.06810  0.14710  0.56050  Biso   1.000  C
  C56      1.0000 0.93190  0.64710  0.93950  Biso   1.000  C
  C57      1.0000 0.86010  0.78690  0.48390  Biso   1.000  C
  C58      1.0000 0.13990  0.28690  0.01610  Biso   1.000  C
  C59      1.0000 0.13990  0.21310  0.51610  Biso   1.000  C
  C60      1.0000 0.86010  0.71310  0.98390  Biso   1.000  C
  H49      1.0000 0.89750  0.73650  0.52370  Biso   1.000  H
  H50      1.0000 0.10250  0.23650  0.97630  Biso   1.000  H
  H51      1.0000 0.10250  0.26350  0.47630  Biso   1.000  H
  H52      1.0000 0.89750  0.76350  0.02370  Biso   1.000  H
  C61      1.0000 0.06370  0.84330  0.45530  Biso   1.000  C
  C62      1.0000 0.93630  0.34330  0.04470  Biso   1.000  C
  C63      1.0000 0.93630  0.15670  0.54470  Biso   1.000  C
  C64      1.0000 0.06370  0.65670  0.95530  Biso   1.000  C
  C65      1.0000 0.25410  0.88360  0.44630  Biso   1.000  C
  C66      1.0000 0.74590  0.38360  0.05370  Biso   1.000  C
  C67      1.0000 0.74590  0.11640  0.55370  Biso   1.000  C
  C68      1.0000 0.25410  0.61640  0.94630  Biso   1.000  C
  C69      1.0000 0.27140  0.79090  0.49890  Biso   1.000  C
  C70      1.0000 0.72860  0.29090  0.00110  Biso   1.000  C
  C71      1.0000 0.72860  0.20910  0.50110  Biso   1.000  C
  C72      1.0000 0.27140  0.70910  0.99890  Biso   1.000  C
  C73      1.0000 0.38110  0.72840  0.53410  Biso   1.000  C
  C74      1.0000 0.61890  0.22840  0.96590  Biso   1.000  C
  C75      1.0000 0.61890  0.27160  0.46590  Biso   1.000  C
  C76      1.0000 0.38110  0.77160  0.03410  Biso   1.000  C
  C77      1.0000 0.34870  0.95500  0.41390  Biso   1.000  C
  C78      1.0000 0.65130  0.45500  0.08610  Biso   1.000  C
  C79      1.0000 0.65130  0.04500  0.58610  Biso   1.000  C
  C80      1.0000 0.34870  0.54500  0.91390  Biso   1.000  C
  H53      1.0000 0.42640  0.92570  0.43550  Biso   1.000  H
  H54      1.0000 0.57360  0.42570  0.06450  Biso   1.000  H
  H55      1.0000 0.57360  0.07430  0.56450  Biso   1.000  H
  H56      1.0000 0.42640  0.57430  0.93550  Biso   1.000  H
  H57      1.0000 0.34180  0.03500  0.43010  Biso   1.000  H
  H58      1.0000 0.65820  0.53500  0.06990  Biso   1.000  H
  H59      1.0000 0.65820  0.96500  0.56990  Biso   1.000  H
  H60      1.0000 0.34180  0.46500  0.93010  Biso   1.000  H
  H61      1.0000 0.33850  0.95000  0.35520  Biso   1.000  H
  H62      1.0000 0.66150  0.45000  0.14480  Biso   1.000  H
  H63      1.0000 0.66150  0.05000  0.64480  Biso   1.000  H
  H64      1.0000 0.33850  0.55000  0.85520  Biso   1.000  H
