data_image0
_cell_length_a       18.7309
_cell_length_b       18.7309
_cell_length_c       34.235
_cell_angle_alpha    90
_cell_angle_beta     90
_cell_angle_gamma    120

_symmetry_space_group_name_H-M    "P 1"
_symmetry_int_tables_number       1

loop_
  _symmetry_equiv_pos_as_xyz
  'x, y, z'

loop_
  _atom_site_label
  _atom_site_occupancy
  _atom_site_fract_x
  _atom_site_fract_y
  _atom_site_fract_z
  _atom_site_thermal_displace_type
  _atom_site_B_iso_or_equiv
  _atom_site_type_symbol
  Cu1      1.0000 0.95263  0.47630  0.46809  Biso   1.000  Cu
  Cu2      1.0000 0.52370  0.47633  0.46809  Biso   1.000  Cu
  Cu3      1.0000 0.52367  0.04737  0.46809  Biso   1.000  Cu
  Cu4      1.0000 0.52370  0.04737  0.03191  Biso   1.000  Cu
  Cu5      1.0000 0.52367  0.47630  0.03191  Biso   1.000  Cu
  Cu6      1.0000 0.95263  0.47633  0.03191  Biso   1.000  Cu
  Cu7      1.0000 0.04737  0.52370  0.53191  Biso   1.000  Cu
  Cu8      1.0000 0.47630  0.52367  0.53191  Biso   1.000  Cu
  Cu9      1.0000 0.47633  0.95263  0.53191  Biso   1.000  Cu
  Cu10     1.0000 0.47630  0.95263  0.96809  Biso   1.000  Cu
  Cu11     1.0000 0.47633  0.52370  0.96809  Biso   1.000  Cu
  Cu12     1.0000 0.04737  0.52367  0.96809  Biso   1.000  Cu
  O1       1.0000 0.02997  0.44137  0.44983  Biso   1.000  O
  O2       1.0000 0.55863  0.58860  0.44983  Biso   1.000  O
  O3       1.0000 0.41140  0.97003  0.44983  Biso   1.000  O
  O4       1.0000 0.55863  0.97003  0.05017  Biso   1.000  O
  O5       1.0000 0.41140  0.44137  0.05017  Biso   1.000  O
  O6       1.0000 0.02997  0.58860  0.05017  Biso   1.000  O
  O7       1.0000 0.97003  0.55863  0.55017  Biso   1.000  O
  O8       1.0000 0.44137  0.41140  0.55017  Biso   1.000  O
  O9       1.0000 0.58860  0.02997  0.55017  Biso   1.000  O
  O10      1.0000 0.44137  0.02997  0.94983  Biso   1.000  O
  O11      1.0000 0.58860  0.55863  0.94983  Biso   1.000  O
  O12      1.0000 0.97003  0.41140  0.94983  Biso   1.000  O
  O13      1.0000 0.11034  0.48160  0.50361  Biso   1.000  O
  O14      1.0000 0.51840  0.62874  0.50361  Biso   1.000  O
  O15      1.0000 0.37126  0.88966  0.50361  Biso   1.000  O
  O16      1.0000 0.51840  0.88966  0.99639  Biso   1.000  O
  O17      1.0000 0.37126  0.48160  0.99639  Biso   1.000  O
  O18      1.0000 0.11034  0.62874  0.99639  Biso   1.000  O
  O19      1.0000 0.88966  0.51840  0.49639  Biso   1.000  O
  O20      1.0000 0.48160  0.37126  0.49639  Biso   1.000  O
  O21      1.0000 0.62874  0.11034  0.49639  Biso   1.000  O
  O22      1.0000 0.48160  0.11034  0.00361  Biso   1.000  O
  O23      1.0000 0.62874  0.51840  0.00361  Biso   1.000  O
  O24      1.0000 0.88966  0.37126  0.00361  Biso   1.000  O
  O25      1.0000 0.41106  0.44131  0.44973  Biso   1.000  O
  O26      1.0000 0.55869  0.96975  0.44973  Biso   1.000  O
  O27      1.0000 0.03025  0.58894  0.44973  Biso   1.000  O
  O28      1.0000 0.55869  0.58894  0.05027  Biso   1.000  O
  O29      1.0000 0.03025  0.44131  0.05027  Biso   1.000  O
  O30      1.0000 0.41106  0.96975  0.05027  Biso   1.000  O
  O31      1.0000 0.58894  0.55869  0.55027  Biso   1.000  O
  O32      1.0000 0.44131  0.03025  0.55027  Biso   1.000  O
  O33      1.0000 0.96975  0.41106  0.55027  Biso   1.000  O
  O34      1.0000 0.44131  0.41106  0.94973  Biso   1.000  O
  O35      1.0000 0.96975  0.55869  0.94973  Biso   1.000  O
  O36      1.0000 0.58894  0.03025  0.94973  Biso   1.000  O
  O37      1.0000 0.37086  0.48093  0.50354  Biso   1.000  O
  O38      1.0000 0.51907  0.88993  0.50354  Biso   1.000  O
  O39      1.0000 0.11007  0.62914  0.50354  Biso   1.000  O
  O40      1.0000 0.51907  0.62914  0.99646  Biso   1.000  O
  O41      1.0000 0.11007  0.48093  0.99646  Biso   1.000  O
  O42      1.0000 0.37086  0.88993  0.99646  Biso   1.000  O
  O43      1.0000 0.62914  0.51907  0.49646  Biso   1.000  O
  O44      1.0000 0.48093  0.11007  0.49646  Biso   1.000  O
  O45      1.0000 0.88993  0.37086  0.49646  Biso   1.000  O
  O46      1.0000 0.48093  0.37086  0.00354  Biso   1.000  O
  O47      1.0000 0.88993  0.51907  0.00354  Biso   1.000  O
  O48      1.0000 0.62914  0.11007  0.00354  Biso   1.000  O
  O49      1.0000 0.88160  0.44070  0.41556  Biso   1.000  O
  O50      1.0000 0.55930  0.44090  0.41556  Biso   1.000  O
  O51      1.0000 0.55910  0.11840  0.41556  Biso   1.000  O
  O52      1.0000 0.55930  0.11840  0.08444  Biso   1.000  O
  O53      1.0000 0.55910  0.44070  0.08444  Biso   1.000  O
  O54      1.0000 0.88160  0.44090  0.08444  Biso   1.000  O
  O55      1.0000 0.11840  0.55930  0.58444  Biso   1.000  O
  O56      1.0000 0.44070  0.55910  0.58444  Biso   1.000  O
  O57      1.0000 0.44090  0.88160  0.58444  Biso   1.000  O
  O58      1.0000 0.44070  0.88160  0.91556  Biso   1.000  O
  O59      1.0000 0.44090  0.55930  0.91556  Biso   1.000  O
  O60      1.0000 0.11840  0.55910  0.91556  Biso   1.000  O
  H1       1.0000 0.90170  0.48120  0.39980  Biso   1.000  H
  H2       1.0000 0.51880  0.42050  0.39980  Biso   1.000  H
  H3       1.0000 0.57950  0.09830  0.39980  Biso   1.000  H
  H4       1.0000 0.51880  0.09830  0.10020  Biso   1.000  H
  H5       1.0000 0.57950  0.48120  0.10020  Biso   1.000  H
  H6       1.0000 0.90170  0.42050  0.10020  Biso   1.000  H
  H7       1.0000 0.09830  0.51880  0.60020  Biso   1.000  H
  H8       1.0000 0.48120  0.57950  0.60020  Biso   1.000  H
  H9       1.0000 0.42050  0.90170  0.60020  Biso   1.000  H
  H10      1.0000 0.48120  0.90170  0.89980  Biso   1.000  H
  H11      1.0000 0.42050  0.51880  0.89980  Biso   1.000  H
  H12      1.0000 0.09830  0.57950  0.89980  Biso   1.000  H
  H13      1.0000 0.88320  0.40030  0.40530  Biso   1.000  H
  H14      1.0000 0.59970  0.48290  0.40530  Biso   1.000  H
  H15      1.0000 0.51710  0.11680  0.40530  Biso   1.000  H
  H16      1.0000 0.59970  0.11680  0.09470  Biso   1.000  H
  H17      1.0000 0.51710  0.40030  0.09470  Biso   1.000  H
  H18      1.0000 0.88320  0.48290  0.09470  Biso   1.000  H
  H19      1.0000 0.11680  0.59970  0.59470  Biso   1.000  H
  H20      1.0000 0.40030  0.51710  0.59470  Biso   1.000  H
  H21      1.0000 0.48290  0.88320  0.59470  Biso   1.000  H
  H22      1.0000 0.40030  0.88320  0.90530  Biso   1.000  H
  H23      1.0000 0.48290  0.59970  0.90530  Biso   1.000  H
  H24      1.0000 0.11680  0.51710  0.90530  Biso   1.000  H
  C1       1.0000 0.09220  0.45320  0.46947  Biso   1.000  C
  C2       1.0000 0.54680  0.63900  0.46947  Biso   1.000  C
  C3       1.0000 0.36100  0.90780  0.46947  Biso   1.000  C
  C4       1.0000 0.54680  0.90780  0.03053  Biso   1.000  C
  C5       1.0000 0.36100  0.45320  0.03053  Biso   1.000  C
  C6       1.0000 0.09220  0.63900  0.03053  Biso   1.000  C
  C7       1.0000 0.90780  0.54680  0.53053  Biso   1.000  C
  C8       1.0000 0.45320  0.36100  0.53053  Biso   1.000  C
  C9       1.0000 0.63900  0.09220  0.53053  Biso   1.000  C
  C10      1.0000 0.45320  0.09220  0.96947  Biso   1.000  C
  C11      1.0000 0.63900  0.54680  0.96947  Biso   1.000  C
  C12      1.0000 0.90780  0.36100  0.96947  Biso   1.000  C
  C13      1.0000 0.36100  0.45320  0.46953  Biso   1.000  C
  C14      1.0000 0.54680  0.90780  0.46953  Biso   1.000  C
  C15      1.0000 0.09220  0.63900  0.46953  Biso   1.000  C
  C16      1.0000 0.54680  0.63900  0.03047  Biso   1.000  C
  C17      1.0000 0.09220  0.45320  0.03047  Biso   1.000  C
  C18      1.0000 0.36100  0.90780  0.03047  Biso   1.000  C
  C19      1.0000 0.63900  0.54680  0.53047  Biso   1.000  C
  C20      1.0000 0.45320  0.09220  0.53047  Biso   1.000  C
  C21      1.0000 0.90780  0.36100  0.53047  Biso   1.000  C
  C22      1.0000 0.45320  0.36100  0.96953  Biso   1.000  C
  C23      1.0000 0.90780  0.54680  0.96953  Biso   1.000  C
  C24      1.0000 0.63900  0.09220  0.96953  Biso   1.000  C
  C25      1.0000 0.15080  0.43150  0.45003  Biso   1.000  C
  C26      1.0000 0.56850  0.71930  0.45003  Biso   1.000  C
  C27      1.0000 0.28070  0.84920  0.45003  Biso   1.000  C
  C28      1.0000 0.56850  0.84920  0.04997  Biso   1.000  C
  C29      1.0000 0.28070  0.43150  0.04997  Biso   1.000  C
  C30      1.0000 0.15080  0.71930  0.04997  Biso   1.000  C
  C31      1.0000 0.84920  0.56850  0.54997  Biso   1.000  C
  C32      1.0000 0.43150  0.28070  0.54997  Biso   1.000  C
  C33      1.0000 0.71930  0.15080  0.54997  Biso   1.000  C
  C34      1.0000 0.43150  0.15080  0.95003  Biso   1.000  C
  C35      1.0000 0.71930  0.56850  0.95003  Biso   1.000  C
  C36      1.0000 0.84920  0.28070  0.95003  Biso   1.000  C
  C37      1.0000 0.22320  0.44630  0.46881  Biso   1.000  C
  C38      1.0000 0.55370  0.77690  0.46881  Biso   1.000  C
  C39      1.0000 0.22310  0.77680  0.46881  Biso   1.000  C
  C40      1.0000 0.55370  0.77680  0.03119  Biso   1.000  C
  C41      1.0000 0.22310  0.44630  0.03119  Biso   1.000  C
  C42      1.0000 0.22320  0.77690  0.03119  Biso   1.000  C
  C43      1.0000 0.77680  0.55370  0.53119  Biso   1.000  C
  C44      1.0000 0.44630  0.22310  0.53119  Biso   1.000  C
  C45      1.0000 0.77690  0.22320  0.53119  Biso   1.000  C
  C46      1.0000 0.44630  0.22320  0.96881  Biso   1.000  C
  C47      1.0000 0.77690  0.55370  0.96881  Biso   1.000  C
  C48      1.0000 0.77680  0.22310  0.96881  Biso   1.000  C
  H25      1.0000 0.23330  0.46640  0.49430  Biso   1.000  H
  H26      1.0000 0.53360  0.76690  0.49430  Biso   1.000  H
  H27      1.0000 0.23310  0.76670  0.49430  Biso   1.000  H
  H28      1.0000 0.53360  0.76670  0.00570  Biso   1.000  H
  H29      1.0000 0.23310  0.46640  0.00570  Biso   1.000  H
  H30      1.0000 0.23330  0.76690  0.00570  Biso   1.000  H
  H31      1.0000 0.76670  0.53360  0.50570  Biso   1.000  H
  H32      1.0000 0.46640  0.23310  0.50570  Biso   1.000  H
  H33      1.0000 0.76690  0.23330  0.50570  Biso   1.000  H
  H34      1.0000 0.46640  0.23330  0.99430  Biso   1.000  H
  H35      1.0000 0.76690  0.53360  0.99430  Biso   1.000  H
  H36      1.0000 0.76670  0.23310  0.99430  Biso   1.000  H
  C49      1.0000 0.28050  0.43140  0.44993  Biso   1.000  C
  C50      1.0000 0.56860  0.84910  0.44993  Biso   1.000  C
  C51      1.0000 0.15090  0.71950  0.44993  Biso   1.000  C
  C52      1.0000 0.56860  0.71950  0.05007  Biso   1.000  C
  C53      1.0000 0.15090  0.43140  0.05007  Biso   1.000  C
  C54      1.0000 0.28050  0.84910  0.05007  Biso   1.000  C
  C55      1.0000 0.71950  0.56860  0.55007  Biso   1.000  C
  C56      1.0000 0.43140  0.15090  0.55007  Biso   1.000  C
  C57      1.0000 0.84910  0.28050  0.55007  Biso   1.000  C
  C58      1.0000 0.43140  0.28050  0.94993  Biso   1.000  C
  C59      1.0000 0.84910  0.56860  0.94993  Biso   1.000  C
  C60      1.0000 0.71950  0.15090  0.94993  Biso   1.000  C
  C61      1.0000 0.26280  0.40000  0.41154  Biso   1.000  C
  C62      1.0000 0.60000  0.86280  0.41154  Biso   1.000  C
  C63      1.0000 0.13720  0.73720  0.41154  Biso   1.000  C
  C64      1.0000 0.60000  0.73720  0.08846  Biso   1.000  C
  C65      1.0000 0.13720  0.40000  0.08846  Biso   1.000  C
  C66      1.0000 0.26280  0.86280  0.08846  Biso   1.000  C
  C67      1.0000 0.73720  0.60000  0.58846  Biso   1.000  C
  C68      1.0000 0.40000  0.13720  0.58846  Biso   1.000  C
  C69      1.0000 0.86280  0.26280  0.58846  Biso   1.000  C
  C70      1.0000 0.40000  0.26280  0.91154  Biso   1.000  C
  C71      1.0000 0.86280  0.60000  0.91154  Biso   1.000  C
  C72      1.0000 0.73720  0.13720  0.91154  Biso   1.000  C
  H37      1.0000 0.30100  0.39040  0.39870  Biso   1.000  H
  H38      1.0000 0.60960  0.91060  0.39870  Biso   1.000  H
  H39      1.0000 0.08940  0.69900  0.39870  Biso   1.000  H
  H40      1.0000 0.60960  0.69900  0.10130  Biso   1.000  H
  H41      1.0000 0.08940  0.39040  0.10130  Biso   1.000  H
  H42      1.0000 0.30100  0.91060  0.10130  Biso   1.000  H
  H43      1.0000 0.69900  0.60960  0.60130  Biso   1.000  H
  H44      1.0000 0.39040  0.08940  0.60130  Biso   1.000  H
  H45      1.0000 0.91060  0.30100  0.60130  Biso   1.000  H
  H46      1.0000 0.39040  0.30100  0.89870  Biso   1.000  H
  H47      1.0000 0.91060  0.60960  0.89870  Biso   1.000  H
  H48      1.0000 0.69900  0.08940  0.89870  Biso   1.000  H
  C73      1.0000 0.19140  0.38300  0.39236  Biso   1.000  C
  C74      1.0000 0.61700  0.80840  0.39236  Biso   1.000  C
  C75      1.0000 0.19160  0.80860  0.39236  Biso   1.000  C
  C76      1.0000 0.61700  0.80860  0.10764  Biso   1.000  C
  C77      1.0000 0.19160  0.38300  0.10764  Biso   1.000  C
  C78      1.0000 0.19140  0.80840  0.10764  Biso   1.000  C
  C79      1.0000 0.80860  0.61700  0.60764  Biso   1.000  C
  C80      1.0000 0.38300  0.19160  0.60764  Biso   1.000  C
  C81      1.0000 0.80840  0.19140  0.60764  Biso   1.000  C
  C82      1.0000 0.38300  0.19140  0.89236  Biso   1.000  C
  C83      1.0000 0.80840  0.61700  0.89236  Biso   1.000  C
  C84      1.0000 0.80860  0.19160  0.89236  Biso   1.000  C
  C85      1.0000 0.13700  0.39980  0.41147  Biso   1.000  C
  C86      1.0000 0.60020  0.73720  0.41147  Biso   1.000  C
  C87      1.0000 0.26280  0.86300  0.41147  Biso   1.000  C
  C88      1.0000 0.60020  0.86300  0.08853  Biso   1.000  C
  C89      1.0000 0.26280  0.39980  0.08853  Biso   1.000  C
  C90      1.0000 0.13700  0.73720  0.08853  Biso   1.000  C
  C91      1.0000 0.86300  0.60020  0.58853  Biso   1.000  C
  C92      1.0000 0.39980  0.26280  0.58853  Biso   1.000  C
  C93      1.0000 0.73720  0.13700  0.58853  Biso   1.000  C
  C94      1.0000 0.39980  0.13700  0.91147  Biso   1.000  C
  C95      1.0000 0.73720  0.60020  0.91147  Biso   1.000  C
  C96      1.0000 0.86300  0.26280  0.91147  Biso   1.000  C
  H49      1.0000 0.08920  0.39000  0.39860  Biso   1.000  H
  H50      1.0000 0.61000  0.69920  0.39860  Biso   1.000  H
  H51      1.0000 0.30080  0.91080  0.39860  Biso   1.000  H
  H52      1.0000 0.61000  0.91080  0.10140  Biso   1.000  H
  H53      1.0000 0.30080  0.39000  0.10140  Biso   1.000  H
  H54      1.0000 0.08920  0.69920  0.10140  Biso   1.000  H
  H55      1.0000 0.91080  0.61000  0.60140  Biso   1.000  H
  H56      1.0000 0.39000  0.30080  0.60140  Biso   1.000  H
  H57      1.0000 0.69920  0.08920  0.60140  Biso   1.000  H
  H58      1.0000 0.39000  0.08920  0.89860  Biso   1.000  H
  H59      1.0000 0.69920  0.61000  0.89860  Biso   1.000  H
  H60      1.0000 0.91080  0.30080  0.89860  Biso   1.000  H
  C97      1.0000 0.18200  0.35900  0.34960  Biso   1.000  C
  C98      1.0000 0.64100  0.82300  0.34960  Biso   1.000  C
  C99      1.0000 0.17700  0.81800  0.34960  Biso   1.000  C
  C100     1.0000 0.64100  0.81800  0.15040  Biso   1.000  C
  C101     1.0000 0.17700  0.35900  0.15040  Biso   1.000  C
  C102     1.0000 0.18200  0.82300  0.15040  Biso   1.000  C
  C103     1.0000 0.81800  0.64100  0.65040  Biso   1.000  C
  C104     1.0000 0.35900  0.17700  0.65040  Biso   1.000  C
  C105     1.0000 0.82300  0.18200  0.65040  Biso   1.000  C
  C106     1.0000 0.35900  0.18200  0.84960  Biso   1.000  C
  C107     1.0000 0.82300  0.64100  0.84960  Biso   1.000  C
  C108     1.0000 0.81800  0.17700  0.84960  Biso   1.000  C
  C109     1.0000 0.14200  0.31200  0.22860  Biso   1.000  C
  C110     1.0000 0.68800  0.83000  0.22860  Biso   1.000  C
  C111     1.0000 0.17000  0.85800  0.22860  Biso   1.000  C
  C112     1.0000 0.68800  0.85800  0.27140  Biso   1.000  C
  C113     1.0000 0.17000  0.31200  0.27140  Biso   1.000  C
  C114     1.0000 0.14200  0.83000  0.27140  Biso   1.000  C
  C115     1.0000 0.85800  0.68800  0.77140  Biso   1.000  C
  C116     1.0000 0.31200  0.17000  0.77140  Biso   1.000  C
  C117     1.0000 0.83000  0.14200  0.77140  Biso   1.000  C
  C118     1.0000 0.31200  0.14200  0.72860  Biso   1.000  C
  C119     1.0000 0.83000  0.68800  0.72860  Biso   1.000  C
  C120     1.0000 0.85800  0.17000  0.72860  Biso   1.000  C
  C121     1.0000 0.14100  0.31700  0.27170  Biso   1.000  C
  C122     1.0000 0.68300  0.82400  0.27170  Biso   1.000  C
  C123     1.0000 0.17600  0.85900  0.27170  Biso   1.000  C
  C124     1.0000 0.68300  0.85900  0.22830  Biso   1.000  C
  C125     1.0000 0.17600  0.31700  0.22830  Biso   1.000  C
  C126     1.0000 0.14100  0.82400  0.22830  Biso   1.000  C
  C127     1.0000 0.85900  0.68300  0.72830  Biso   1.000  C
  C128     1.0000 0.31700  0.17600  0.72830  Biso   1.000  C
  C129     1.0000 0.82400  0.14100  0.72830  Biso   1.000  C
  C130     1.0000 0.31700  0.14100  0.77170  Biso   1.000  C
  C131     1.0000 0.82400  0.68300  0.77170  Biso   1.000  C
  C132     1.0000 0.85900  0.17600  0.77170  Biso   1.000  C
  C133     1.0000 0.23670  0.39980  0.32200  Biso   1.000  C
  C134     1.0000 0.60020  0.83690  0.32200  Biso   1.000  C
  C135     1.0000 0.16310  0.76330  0.32200  Biso   1.000  C
  C136     1.0000 0.60020  0.76330  0.17800  Biso   1.000  C
  C137     1.0000 0.16310  0.39980  0.17800  Biso   1.000  C
  C138     1.0000 0.23670  0.83690  0.17800  Biso   1.000  C
  C139     1.0000 0.76330  0.60020  0.67800  Biso   1.000  C
  C140     1.0000 0.39980  0.16310  0.67800  Biso   1.000  C
  C141     1.0000 0.83690  0.23670  0.67800  Biso   1.000  C
  C142     1.0000 0.39980  0.23670  0.82200  Biso   1.000  C
  C143     1.0000 0.83690  0.60020  0.82200  Biso   1.000  C
  C144     1.0000 0.76330  0.16310  0.82200  Biso   1.000  C
  H61      1.0000 0.29050  0.44310  0.32940  Biso   1.000  H
  H62      1.0000 0.55690  0.84740  0.32940  Biso   1.000  H
  H63      1.0000 0.15260  0.70950  0.32940  Biso   1.000  H
  H64      1.0000 0.55690  0.70950  0.17060  Biso   1.000  H
  H65      1.0000 0.15260  0.44310  0.17060  Biso   1.000  H
  H66      1.0000 0.29050  0.84740  0.17060  Biso   1.000  H
  H67      1.0000 0.70950  0.55690  0.67060  Biso   1.000  H
  H68      1.0000 0.44310  0.15260  0.67060  Biso   1.000  H
  H69      1.0000 0.84740  0.29050  0.67060  Biso   1.000  H
  H70      1.0000 0.44310  0.29050  0.82940  Biso   1.000  H
  H71      1.0000 0.84740  0.55690  0.82940  Biso   1.000  H
  H72      1.0000 0.70950  0.15260  0.82940  Biso   1.000  H
  C145     1.0000 0.21590  0.37780  0.28320  Biso   1.000  C
  C146     1.0000 0.62220  0.83810  0.28320  Biso   1.000  C
  C147     1.0000 0.16190  0.78410  0.28320  Biso   1.000  C
  C148     1.0000 0.62220  0.78410  0.21680  Biso   1.000  C
  C149     1.0000 0.16190  0.37780  0.21680  Biso   1.000  C
  C150     1.0000 0.21590  0.83810  0.21680  Biso   1.000  C
  C151     1.0000 0.78410  0.62220  0.71680  Biso   1.000  C
  C152     1.0000 0.37780  0.16190  0.71680  Biso   1.000  C
  C153     1.0000 0.83810  0.21590  0.71680  Biso   1.000  C
  C154     1.0000 0.37780  0.21590  0.78320  Biso   1.000  C
  C155     1.0000 0.83810  0.62220  0.78320  Biso   1.000  C
  C156     1.0000 0.78410  0.16190  0.78320  Biso   1.000  C
  C157     1.0000 0.08160  0.27420  0.29980  Biso   1.000  C
  C158     1.0000 0.72580  0.80740  0.29980  Biso   1.000  C
  C159     1.0000 0.19260  0.91840  0.29980  Biso   1.000  C
  C160     1.0000 0.72580  0.91840  0.20020  Biso   1.000  C
  C161     1.0000 0.19260  0.27420  0.20020  Biso   1.000  C
  C162     1.0000 0.08160  0.80740  0.20020  Biso   1.000  C
  C163     1.0000 0.91840  0.72580  0.70020  Biso   1.000  C
  C164     1.0000 0.27420  0.19260  0.70020  Biso   1.000  C
  C165     1.0000 0.80740  0.08160  0.70020  Biso   1.000  C
  C166     1.0000 0.27420  0.08160  0.79980  Biso   1.000  C
  C167     1.0000 0.80740  0.72580  0.79980  Biso   1.000  C
  C168     1.0000 0.91840  0.19260  0.79980  Biso   1.000  C
  H73      1.0000 0.02800  0.23050  0.29230  Biso   1.000  H
  H74      1.0000 0.76950  0.79750  0.29230  Biso   1.000  H
  H75      1.0000 0.20250  0.97200  0.29230  Biso   1.000  H
  H76      1.0000 0.76950  0.97200  0.20770  Biso   1.000  H
  H77      1.0000 0.20250  0.23050  0.20770  Biso   1.000  H
  H78      1.0000 0.02800  0.79750  0.20770  Biso   1.000  H
  H79      1.0000 0.97200  0.76950  0.70770  Biso   1.000  H
  H80      1.0000 0.23050  0.20250  0.70770  Biso   1.000  H
  H81      1.0000 0.79750  0.02800  0.70770  Biso   1.000  H
  H82      1.0000 0.23050  0.02800  0.79230  Biso   1.000  H
  H83      1.0000 0.79750  0.76950  0.79230  Biso   1.000  H
  H84      1.0000 0.97200  0.20250  0.79230  Biso   1.000  H
  C169     1.0000 0.10070  0.29540  0.33840  Biso   1.000  C
  C170     1.0000 0.70460  0.80530  0.33840  Biso   1.000  C
  C171     1.0000 0.19470  0.89930  0.33840  Biso   1.000  C
  C172     1.0000 0.70460  0.89930  0.16160  Biso   1.000  C
  C173     1.0000 0.19470  0.29540  0.16160  Biso   1.000  C
  C174     1.0000 0.10070  0.80530  0.16160  Biso   1.000  C
  C175     1.0000 0.89930  0.70460  0.66160  Biso   1.000  C
  C176     1.0000 0.29540  0.19470  0.66160  Biso   1.000  C
  C177     1.0000 0.80530  0.10070  0.66160  Biso   1.000  C
  C178     1.0000 0.29540  0.10070  0.83840  Biso   1.000  C
  C179     1.0000 0.80530  0.70460  0.83840  Biso   1.000  C
  C180     1.0000 0.89930  0.19470  0.83840  Biso   1.000  C
  H85      1.0000 0.05960  0.26670  0.35810  Biso   1.000  H
  H86      1.0000 0.73330  0.79290  0.35810  Biso   1.000  H
  H87      1.0000 0.20710  0.94040  0.35810  Biso   1.000  H
  H88      1.0000 0.73330  0.94040  0.14190  Biso   1.000  H
  H89      1.0000 0.20710  0.26670  0.14190  Biso   1.000  H
  H90      1.0000 0.05960  0.79290  0.14190  Biso   1.000  H
  H91      1.0000 0.94040  0.73330  0.64190  Biso   1.000  H
  H92      1.0000 0.26670  0.20710  0.64190  Biso   1.000  H
  H93      1.0000 0.79290  0.05960  0.64190  Biso   1.000  H
  H94      1.0000 0.26670  0.05960  0.85810  Biso   1.000  H
  H95      1.0000 0.79290  0.73330  0.85810  Biso   1.000  H
  H96      1.0000 0.94040  0.20710  0.85810  Biso   1.000  H
  N1       1.0000 0.26340  0.41550  0.25013  Biso   1.000  N
  N2       1.0000 0.58450  0.84790  0.25013  Biso   1.000  N
  N3       1.0000 0.15210  0.73660  0.25013  Biso   1.000  N
  N4       1.0000 0.58450  0.73660  0.24987  Biso   1.000  N
  N5       1.0000 0.15210  0.41550  0.24987  Biso   1.000  N
  N6       1.0000 0.26340  0.84790  0.24987  Biso   1.000  N
  N7       1.0000 0.73660  0.58450  0.74987  Biso   1.000  N
  N8       1.0000 0.41550  0.15210  0.74987  Biso   1.000  N
  N9       1.0000 0.84790  0.26340  0.74987  Biso   1.000  N
  N10      1.0000 0.41550  0.26340  0.75013  Biso   1.000  N
  N11      1.0000 0.84790  0.58450  0.75013  Biso   1.000  N
  N12      1.0000 0.73660  0.15210  0.75013  Biso   1.000  N
  H97      1.0000 0.31320  0.46160  0.25030  Biso   1.000  H
  H98      1.0000 0.53840  0.85160  0.25030  Biso   1.000  H
  H99      1.0000 0.14840  0.68680  0.25030  Biso   1.000  H
  H100     1.0000 0.53840  0.68680  0.24970  Biso   1.000  H
  H101     1.0000 0.14840  0.46160  0.24970  Biso   1.000  H
  H102     1.0000 0.31320  0.85160  0.24970  Biso   1.000  H
  H103     1.0000 0.68680  0.53840  0.74970  Biso   1.000  H
  H104     1.0000 0.46160  0.14840  0.74970  Biso   1.000  H
  H105     1.0000 0.85160  0.31320  0.74970  Biso   1.000  H
  H106     1.0000 0.46160  0.31320  0.75030  Biso   1.000  H
  H107     1.0000 0.85160  0.53840  0.75030  Biso   1.000  H
  H108     1.0000 0.68680  0.14840  0.75030  Biso   1.000  H
  C181     1.0000 0.15820  0.37530  0.28320  Biso   1.000  C
  C182     1.0000 0.62470  0.78290  0.28320  Biso   1.000  C
  C183     1.0000 0.21710  0.84180  0.28320  Biso   1.000  C
  C184     1.0000 0.62470  0.84180  0.21680  Biso   1.000  C
  C185     1.0000 0.21710  0.37530  0.21680  Biso   1.000  C
  C186     1.0000 0.15820  0.78290  0.21680  Biso   1.000  C
  C187     1.0000 0.84180  0.62470  0.71680  Biso   1.000  C
  C188     1.0000 0.37530  0.21710  0.71680  Biso   1.000  C
  C189     1.0000 0.78290  0.15820  0.71680  Biso   1.000  C
  C190     1.0000 0.37530  0.15820  0.78320  Biso   1.000  C
  C191     1.0000 0.78290  0.62470  0.78320  Biso   1.000  C
  C192     1.0000 0.84180  0.21710  0.78320  Biso   1.000  C
  C193     1.0000 0.16340  0.40010  0.32170  Biso   1.000  C
  C194     1.0000 0.59990  0.76330  0.32170  Biso   1.000  C
  C195     1.0000 0.23670  0.83660  0.32170  Biso   1.000  C
  C196     1.0000 0.59990  0.83660  0.17830  Biso   1.000  C
  C197     1.0000 0.23670  0.40010  0.17830  Biso   1.000  C
  C198     1.0000 0.16340  0.76330  0.17830  Biso   1.000  C
  C199     1.0000 0.83660  0.59990  0.67830  Biso   1.000  C
  C200     1.0000 0.40010  0.23670  0.67830  Biso   1.000  C
  C201     1.0000 0.76330  0.16340  0.67830  Biso   1.000  C
  C202     1.0000 0.40010  0.16340  0.82170  Biso   1.000  C
  C203     1.0000 0.76330  0.59990  0.82170  Biso   1.000  C
  C204     1.0000 0.83660  0.23670  0.82170  Biso   1.000  C
  H109     1.0000 0.15660  0.44430  0.32870  Biso   1.000  H
  H110     1.0000 0.55570  0.71230  0.32870  Biso   1.000  H
  H111     1.0000 0.28770  0.84340  0.32870  Biso   1.000  H
  H112     1.0000 0.55570  0.84340  0.17130  Biso   1.000  H
  H113     1.0000 0.28770  0.44430  0.17130  Biso   1.000  H
  H114     1.0000 0.15660  0.71230  0.17130  Biso   1.000  H
  H115     1.0000 0.84340  0.55570  0.67130  Biso   1.000  H
  H116     1.0000 0.44430  0.28770  0.67130  Biso   1.000  H
  H117     1.0000 0.71230  0.15660  0.67130  Biso   1.000  H
  H118     1.0000 0.44430  0.15660  0.82870  Biso   1.000  H
  H119     1.0000 0.71230  0.55570  0.82870  Biso   1.000  H
  H120     1.0000 0.84340  0.28770  0.82870  Biso   1.000  H
  C205     1.0000 0.18940  0.27200  0.29940  Biso   1.000  C
  C206     1.0000 0.72800  0.91740  0.29940  Biso   1.000  C
  C207     1.0000 0.08260  0.81060  0.29940  Biso   1.000  C
  C208     1.0000 0.72800  0.81060  0.20060  Biso   1.000  C
  C209     1.0000 0.08260  0.27200  0.20060  Biso   1.000  C
  C210     1.0000 0.18940  0.91740  0.20060  Biso   1.000  C
  C211     1.0000 0.81060  0.72800  0.70060  Biso   1.000  C
  C212     1.0000 0.27200  0.08260  0.70060  Biso   1.000  C
  C213     1.0000 0.91740  0.18940  0.70060  Biso   1.000  C
  C214     1.0000 0.27200  0.18940  0.79940  Biso   1.000  C
  C215     1.0000 0.91740  0.72800  0.79940  Biso   1.000  C
  C216     1.0000 0.81060  0.08260  0.79940  Biso   1.000  C
  H121     1.0000 0.20260  0.23290  0.29080  Biso   1.000  H
  H122     1.0000 0.76710  0.96970  0.29080  Biso   1.000  H
  H123     1.0000 0.03030  0.79740  0.29080  Biso   1.000  H
  H124     1.0000 0.76710  0.79740  0.20920  Biso   1.000  H
  H125     1.0000 0.03030  0.23290  0.20920  Biso   1.000  H
  H126     1.0000 0.20260  0.96970  0.20920  Biso   1.000  H
  H127     1.0000 0.79740  0.76710  0.70920  Biso   1.000  H
  H128     1.0000 0.23290  0.03030  0.70920  Biso   1.000  H
  H129     1.0000 0.96970  0.20260  0.70920  Biso   1.000  H
  H130     1.0000 0.23290  0.20260  0.79080  Biso   1.000  H
  H131     1.0000 0.96970  0.76710  0.79080  Biso   1.000  H
  H132     1.0000 0.79740  0.03030  0.79080  Biso   1.000  H
  C217     1.0000 0.19560  0.29610  0.33780  Biso   1.000  C
  C218     1.0000 0.70390  0.89950  0.33780  Biso   1.000  C
  C219     1.0000 0.10050  0.80440  0.33780  Biso   1.000  C
  C220     1.0000 0.70390  0.80440  0.16220  Biso   1.000  C
  C221     1.0000 0.10050  0.29610  0.16220  Biso   1.000  C
  C222     1.0000 0.19560  0.89950  0.16220  Biso   1.000  C
  C223     1.0000 0.80440  0.70390  0.66220  Biso   1.000  C
  C224     1.0000 0.29610  0.10050  0.66220  Biso   1.000  C
  C225     1.0000 0.89950  0.19560  0.66220  Biso   1.000  C
  C226     1.0000 0.29610  0.19560  0.83780  Biso   1.000  C
  C227     1.0000 0.89950  0.70390  0.83780  Biso   1.000  C
  C228     1.0000 0.80440  0.10050  0.83780  Biso   1.000  C
  H133     1.0000 0.21060  0.26900  0.35600  Biso   1.000  H
  H134     1.0000 0.73100  0.94160  0.35600  Biso   1.000  H
  H135     1.0000 0.05840  0.78940  0.35600  Biso   1.000  H
  H136     1.0000 0.73100  0.78940  0.14400  Biso   1.000  H
  H137     1.0000 0.05840  0.26900  0.14400  Biso   1.000  H
  H138     1.0000 0.21060  0.94160  0.14400  Biso   1.000  H
  H139     1.0000 0.78940  0.73100  0.64400  Biso   1.000  H
  H140     1.0000 0.26900  0.05840  0.64400  Biso   1.000  H
  H141     1.0000 0.94160  0.21060  0.64400  Biso   1.000  H
  H142     1.0000 0.26900  0.21060  0.85600  Biso   1.000  H
  H143     1.0000 0.94160  0.73100  0.85600  Biso   1.000  H
  H144     1.0000 0.78940  0.05840  0.85600  Biso   1.000  H
  C229     1.0000 0.17600  0.35600  0.35010  Biso   1.000  C
  C230     1.0000 0.64400  0.82000  0.35010  Biso   1.000  C
  C231     1.0000 0.18000  0.82400  0.35010  Biso   1.000  C
  C232     1.0000 0.64400  0.82400  0.14990  Biso   1.000  C
  C233     1.0000 0.18000  0.35600  0.14990  Biso   1.000  C
  C234     1.0000 0.17600  0.82000  0.14990  Biso   1.000  C
  C235     1.0000 0.82400  0.64400  0.64990  Biso   1.000  C
  C236     1.0000 0.35600  0.18000  0.64990  Biso   1.000  C
  C237     1.0000 0.82000  0.17600  0.64990  Biso   1.000  C
  C238     1.0000 0.35600  0.17600  0.85010  Biso   1.000  C
  C239     1.0000 0.82000  0.64400  0.85010  Biso   1.000  C
  C240     1.0000 0.82400  0.18000  0.85010  Biso   1.000  C
