data_image0
_cell_length_a       9.397
_cell_length_b       15.093
_cell_length_c       15.142
_cell_angle_alpha    90
_cell_angle_beta     90
_cell_angle_gamma    90

_symmetry_space_group_name_H-M    "P 1"
_symmetry_int_tables_number       1

loop_
  _symmetry_equiv_pos_as_xyz
  'x, y, z'

loop_
  _atom_site_label
  _atom_site_occupancy
  _atom_site_fract_x
  _atom_site_fract_y
  _atom_site_fract_z
  _atom_site_thermal_displace_type
  _atom_site_B_iso_or_equiv
  _atom_site_type_symbol
  Cu1      1.0000 0.00000  0.25250  0.25000  Biso   1.000  Cu
  Cu2      1.0000 0.50000  0.24750  0.75000  Biso   1.000  Cu
  Cu3      1.0000 0.00000  0.74750  0.75000  Biso   1.000  Cu
  Cu4      1.0000 0.50000  0.75250  0.25000  Biso   1.000  Cu
  Cl1      1.0000 0.88530  0.34160  0.15680  Biso   1.000  Cl
  Cl2      1.0000 0.61470  0.15840  0.65680  Biso   1.000  Cl
  Cl3      1.0000 0.38530  0.15840  0.84320  Biso   1.000  Cl
  Cl4      1.0000 0.11470  0.34160  0.34320  Biso   1.000  Cl
  Cl5      1.0000 0.11470  0.65840  0.84320  Biso   1.000  Cl
  Cl6      1.0000 0.38530  0.84160  0.34320  Biso   1.000  Cl
  Cl7      1.0000 0.61470  0.84160  0.15680  Biso   1.000  Cl
  Cl8      1.0000 0.88530  0.65840  0.65680  Biso   1.000  Cl
  S1       1.0000 0.46610  0.31900  0.10550  Biso   1.000  S
  S2       1.0000 0.03390  0.18100  0.60550  Biso   1.000  S
  S3       1.0000 0.96610  0.18100  0.89450  Biso   1.000  S
  S4       1.0000 0.53390  0.31900  0.39450  Biso   1.000  S
  S5       1.0000 0.53390  0.68100  0.89450  Biso   1.000  S
  S6       1.0000 0.96610  0.81900  0.39450  Biso   1.000  S
  S7       1.0000 0.03390  0.81900  0.10550  Biso   1.000  S
  S8       1.0000 0.46610  0.68100  0.60550  Biso   1.000  S
  N1       1.0000 0.22800  0.16070  0.15190  Biso   1.000  N
  N2       1.0000 0.27200  0.33930  0.65190  Biso   1.000  N
  N3       1.0000 0.72800  0.33930  0.84810  Biso   1.000  N
  N4       1.0000 0.77200  0.16070  0.34810  Biso   1.000  N
  N5       1.0000 0.77200  0.83930  0.84810  Biso   1.000  N
  N6       1.0000 0.72800  0.66070  0.34810  Biso   1.000  N
  N7       1.0000 0.27200  0.66070  0.15190  Biso   1.000  N
  N8       1.0000 0.22800  0.83930  0.65190  Biso   1.000  N
  N9       1.0000 0.15400  0.16490  0.22890  Biso   1.000  N
  N10      1.0000 0.34600  0.33510  0.72890  Biso   1.000  N
  N11      1.0000 0.65400  0.33510  0.77110  Biso   1.000  N
  N12      1.0000 0.84600  0.16490  0.27110  Biso   1.000  N
  N13      1.0000 0.84600  0.83510  0.77110  Biso   1.000  N
  N14      1.0000 0.65400  0.66490  0.27110  Biso   1.000  N
  N15      1.0000 0.34600  0.66490  0.22890  Biso   1.000  N
  N16      1.0000 0.15400  0.83510  0.72890  Biso   1.000  N
  C1       1.0000 0.19700  0.09780  0.27750  Biso   1.000  C
  C2       1.0000 0.30300  0.40220  0.77750  Biso   1.000  C
  C3       1.0000 0.69700  0.40220  0.72250  Biso   1.000  C
  C4       1.0000 0.80300  0.09780  0.22250  Biso   1.000  C
  C5       1.0000 0.80300  0.90220  0.72250  Biso   1.000  C
  C6       1.0000 0.69700  0.59780  0.22250  Biso   1.000  C
  C7       1.0000 0.30300  0.59780  0.27750  Biso   1.000  C
  C8       1.0000 0.19700  0.90220  0.77750  Biso   1.000  C
  C9       1.0000 0.29800  0.04970  0.23340  Biso   1.000  C
  C10      1.0000 0.20200  0.45030  0.73340  Biso   1.000  C
  C11      1.0000 0.79800  0.45030  0.76660  Biso   1.000  C
  C12      1.0000 0.70200  0.04970  0.26660  Biso   1.000  C
  C13      1.0000 0.70200  0.95030  0.76660  Biso   1.000  C
  C14      1.0000 0.79800  0.54970  0.26660  Biso   1.000  C
  C15      1.0000 0.20200  0.54970  0.23340  Biso   1.000  C
  C16      1.0000 0.29800  0.95030  0.73340  Biso   1.000  C
  C17      1.0000 0.32000  0.09110  0.15280  Biso   1.000  C
  C18      1.0000 0.18000  0.40890  0.65280  Biso   1.000  C
  C19      1.0000 0.82000  0.40890  0.84720  Biso   1.000  C
  C20      1.0000 0.68000  0.09110  0.34720  Biso   1.000  C
  C21      1.0000 0.68000  0.90890  0.84720  Biso   1.000  C
  C22      1.0000 0.82000  0.59110  0.34720  Biso   1.000  C
  C23      1.0000 0.18000  0.59110  0.15280  Biso   1.000  C
  C24      1.0000 0.32000  0.90890  0.65280  Biso   1.000  C
  C25      1.0000 0.14000  0.08070  0.36850  Biso   1.000  C
  C26      1.0000 0.36000  0.41930  0.86850  Biso   1.000  C
  C27      1.0000 0.64000  0.41930  0.63150  Biso   1.000  C
  C28      1.0000 0.86000  0.08070  0.13150  Biso   1.000  C
  C29      1.0000 0.86000  0.91930  0.63150  Biso   1.000  C
  C30      1.0000 0.64000  0.58070  0.13150  Biso   1.000  C
  C31      1.0000 0.36000  0.58070  0.36850  Biso   1.000  C
  C32      1.0000 0.14000  0.91930  0.86850  Biso   1.000  C
  C33      1.0000 0.42000  0.06930  0.07500  Biso   1.000  C
  C34      1.0000 0.08000  0.43070  0.57500  Biso   1.000  C
  C35      1.0000 0.92000  0.43070  0.92500  Biso   1.000  C
  C36      1.0000 0.58000  0.06930  0.42500  Biso   1.000  C
  C37      1.0000 0.58000  0.93070  0.92500  Biso   1.000  C
  C38      1.0000 0.92000  0.56930  0.42500  Biso   1.000  C
  C39      1.0000 0.08000  0.56930  0.07500  Biso   1.000  C
  C40      1.0000 0.42000  0.93070  0.57500  Biso   1.000  C
  C41      1.0000 0.20900  0.22760  0.08330  Biso   1.000  C
  C42      1.0000 0.29100  0.27240  0.58330  Biso   1.000  C
  C43      1.0000 0.70900  0.27240  0.91670  Biso   1.000  C
  C44      1.0000 0.79100  0.22760  0.41670  Biso   1.000  C
  C45      1.0000 0.79100  0.77240  0.91670  Biso   1.000  C
  C46      1.0000 0.70900  0.72760  0.41670  Biso   1.000  C
  C47      1.0000 0.29100  0.72760  0.08330  Biso   1.000  C
  C48      1.0000 0.20900  0.77240  0.58330  Biso   1.000  C
  C49      1.0000 0.27500  0.31750  0.10620  Biso   1.000  C
  C50      1.0000 0.22500  0.18250  0.60620  Biso   1.000  C
  C51      1.0000 0.77500  0.18250  0.89380  Biso   1.000  C
  C52      1.0000 0.72500  0.31750  0.39380  Biso   1.000  C
  C53      1.0000 0.72500  0.68250  0.89380  Biso   1.000  C
  C54      1.0000 0.77500  0.81750  0.39380  Biso   1.000  C
  C55      1.0000 0.22500  0.81750  0.10620  Biso   1.000  C
  C56      1.0000 0.27500  0.68250  0.60620  Biso   1.000  C
  C57      1.0000 0.51500  0.27800  0.22300  Biso   1.000  C
  C58      1.0000 0.98500  0.22200  0.72300  Biso   1.000  C
  C59      1.0000 0.01500  0.22200  0.77700  Biso   1.000  C
  C60      1.0000 0.48500  0.27800  0.27700  Biso   1.000  C
  C61      1.0000 0.48500  0.72200  0.77700  Biso   1.000  C
  C62      1.0000 0.01500  0.77800  0.27700  Biso   1.000  C
  C63      1.0000 0.98500  0.77800  0.22300  Biso   1.000  C
  C64      1.0000 0.51500  0.72200  0.72300  Biso   1.000  C
  H1       1.0000 0.34400  0.99700  0.25400  Biso   1.000  H
  H2       1.0000 0.15600  0.50300  0.75400  Biso   1.000  H
  H3       1.0000 0.84400  0.50300  0.74600  Biso   1.000  H
  H4       1.0000 0.65600  0.99700  0.24600  Biso   1.000  H
  H5       1.0000 0.65600  0.00300  0.74600  Biso   1.000  H
  H6       1.0000 0.84400  0.49700  0.24600  Biso   1.000  H
  H7       1.0000 0.15600  0.49700  0.25400  Biso   1.000  H
  H8       1.0000 0.34400  0.00300  0.75400  Biso   1.000  H
  H9       1.0000 0.10900  0.23600  0.07400  Biso   1.000  H
  H10      1.0000 0.39100  0.26400  0.57400  Biso   1.000  H
  H11      1.0000 0.60900  0.26400  0.92600  Biso   1.000  H
  H12      1.0000 0.89100  0.23600  0.42600  Biso   1.000  H
  H13      1.0000 0.89100  0.76400  0.92600  Biso   1.000  H
  H14      1.0000 0.60900  0.73600  0.42600  Biso   1.000  H
  H15      1.0000 0.39100  0.73600  0.07400  Biso   1.000  H
  H16      1.0000 0.10900  0.76400  0.57400  Biso   1.000  H
  H17      1.0000 0.25100  0.20600  0.03000  Biso   1.000  H
  H18      1.0000 0.24900  0.29400  0.53000  Biso   1.000  H
  H19      1.0000 0.75100  0.29400  0.97000  Biso   1.000  H
  H20      1.0000 0.74900  0.20600  0.47000  Biso   1.000  H
  H21      1.0000 0.74900  0.79400  0.97000  Biso   1.000  H
  H22      1.0000 0.75100  0.70600  0.47000  Biso   1.000  H
  H23      1.0000 0.24900  0.70600  0.03000  Biso   1.000  H
  H24      1.0000 0.25100  0.79400  0.53000  Biso   1.000  H
  H25      1.0000 0.24300  0.36000  0.06400  Biso   1.000  H
  H26      1.0000 0.25700  0.14000  0.56400  Biso   1.000  H
  H27      1.0000 0.74300  0.14000  0.93600  Biso   1.000  H
  H28      1.0000 0.75700  0.36000  0.43600  Biso   1.000  H
  H29      1.0000 0.75700  0.64000  0.93600  Biso   1.000  H
  H30      1.0000 0.74300  0.86000  0.43600  Biso   1.000  H
  H31      1.0000 0.25700  0.86000  0.06400  Biso   1.000  H
  H32      1.0000 0.24300  0.64000  0.56400  Biso   1.000  H
  H33      1.0000 0.24400  0.33400  0.16400  Biso   1.000  H
  H34      1.0000 0.25600  0.16600  0.66400  Biso   1.000  H
  H35      1.0000 0.74400  0.16600  0.83600  Biso   1.000  H
  H36      1.0000 0.75600  0.33400  0.33600  Biso   1.000  H
  H37      1.0000 0.75600  0.66600  0.83600  Biso   1.000  H
  H38      1.0000 0.74400  0.83400  0.33600  Biso   1.000  H
  H39      1.0000 0.25600  0.83400  0.16400  Biso   1.000  H
  H40      1.0000 0.24400  0.66600  0.66400  Biso   1.000  H
  C65      1.0000 0.50500  0.36300  0.21900  Biso   1.000  C
  C66      1.0000 0.99500  0.13700  0.71900  Biso   1.000  C
  C67      1.0000 0.00500  0.13700  0.78100  Biso   1.000  C
  C68      1.0000 0.49500  0.36300  0.28100  Biso   1.000  C
  C69      1.0000 0.49500  0.63700  0.78100  Biso   1.000  C
  C70      1.0000 0.00500  0.86300  0.28100  Biso   1.000  C
  C71      1.0000 0.99500  0.86300  0.21900  Biso   1.000  C
  C72      1.0000 0.50500  0.63700  0.71900  Biso   1.000  C
