data_image0
_cell_length_a       9.8662
_cell_length_b       10.961
_cell_length_c       11.0262
_cell_angle_alpha    63.467
_cell_angle_beta     78.764
_cell_angle_gamma    72.876

_symmetry_space_group_name_H-M    "P 1"
_symmetry_int_tables_number       1

loop_
  _symmetry_equiv_pos_as_xyz
  'x, y, z'

loop_
  _atom_site_label
  _atom_site_occupancy
  _atom_site_fract_x
  _atom_site_fract_y
  _atom_site_fract_z
  _atom_site_thermal_displace_type
  _atom_site_B_iso_or_equiv
  _atom_site_type_symbol
  Cu1      1.0000 0.36344  0.51063  0.48791  Biso   1.000  Cu
  Cu2      1.0000 0.63656  0.48937  0.51209  Biso   1.000  Cu
  Cl1      1.0000 0.92897  0.84357  0.48660  Biso   1.000  Cl
  Cl2      1.0000 0.07103  0.15643  0.51340  Biso   1.000  Cl
  Cl3      1.0000 0.99040  0.66284  0.01824  Biso   1.000  Cl
  Cl4      1.0000 0.00960  0.33716  0.98176  Biso   1.000  Cl
  Cl5      1.0000 0.31712  0.80457  0.73350  Biso   1.000  Cl
  Cl6      1.0000 0.68288  0.19543  0.26650  Biso   1.000  Cl
  Cl7      1.0000 0.12879  0.92264  0.16778  Biso   1.000  Cl
  Cl8      1.0000 0.87121  0.07736  0.83222  Biso   1.000  Cl
  C1       1.0000 0.76000  0.65990  0.92460  Biso   1.000  C
  C2       1.0000 0.24000  0.34010  0.07540  Biso   1.000  C
  C3       1.0000 0.89130  0.69390  0.88870  Biso   1.000  C
  C4       1.0000 0.10870  0.30610  0.11130  Biso   1.000  C
  C5       1.0000 0.94480  0.74930  0.75570  Biso   1.000  C
  C6       1.0000 0.05520  0.25070  0.24430  Biso   1.000  C
  H1       1.0000 0.03280  0.77180  0.73370  Biso   1.000  H
  H2       1.0000 0.96720  0.22820  0.26630  Biso   1.000  H
  C7       1.0000 0.86470  0.77040  0.65590  Biso   1.000  C
  C8       1.0000 0.13530  0.22960  0.34410  Biso   1.000  C
  C9       1.0000 0.73550  0.73650  0.68710  Biso   1.000  C
  C10      1.0000 0.26450  0.26350  0.31290  Biso   1.000  C
  H3       1.0000 0.68310  0.75080  0.61830  Biso   1.000  H
  H4       1.0000 0.31690  0.24920  0.38170  Biso   1.000  H
  C11      1.0000 0.68340  0.68100  0.82140  Biso   1.000  C
  C12      1.0000 0.31660  0.31900  0.17860  Biso   1.000  C
  H5       1.0000 0.59580  0.65750  0.84270  Biso   1.000  H
  H6       1.0000 0.40420  0.34250  0.15730  Biso   1.000  H
  C13      1.0000 0.57750  0.59180  0.09990  Biso   1.000  C
  C14      1.0000 0.42250  0.40820  0.90010  Biso   1.000  C
  H7       1.0000 0.56430  0.51910  0.07910  Biso   1.000  H
  H8       1.0000 0.43570  0.48090  0.92090  Biso   1.000  H
  H9       1.0000 0.51150  0.67890  0.05030  Biso   1.000  H
  H10      1.0000 0.48850  0.32110  0.94970  Biso   1.000  H
  C15      1.0000 0.54800  0.55290  0.25020  Biso   1.000  C
  C16      1.0000 0.45200  0.44710  0.74980  Biso   1.000  C
  C17      1.0000 0.39470  0.00350  0.76900  Biso   1.000  C
  C18      1.0000 0.60530  0.99650  0.23100  Biso   1.000  C
  C19      1.0000 0.31510  0.90330  0.82110  Biso   1.000  C
  C20      1.0000 0.68490  0.09670  0.17890  Biso   1.000  C
  C21      1.0000 0.23370  0.87900  0.94220  Biso   1.000  C
  C22      1.0000 0.76630  0.12100  0.05780  Biso   1.000  C
  H11      1.0000 0.17980  0.81230  0.97480  Biso   1.000  H
  H12      1.0000 0.82020  0.18770  0.02520  Biso   1.000  H
  C23      1.0000 0.23220  0.95390  0.01520  Biso   1.000  C
  C24      1.0000 0.76780  0.04610  0.98480  Biso   1.000  C
  C25      1.0000 0.31060  0.05140  0.96700  Biso   1.000  C
  C26      1.0000 0.68940  0.94860  0.03300  Biso   1.000  C
  H13      1.0000 0.30960  0.10170  0.01650  Biso   1.000  H
  H14      1.0000 0.69040  0.89830  0.98350  Biso   1.000  H
  C27      1.0000 0.39170  0.07650  0.84500  Biso   1.000  C
  C28      1.0000 0.60830  0.92350  0.15500  Biso   1.000  C
  H15      1.0000 0.44510  0.14340  0.81330  Biso   1.000  H
  H16      1.0000 0.55490  0.85660  0.18670  Biso   1.000  H
  C29      1.0000 0.58990  0.08200  0.61870  Biso   1.000  C
  C30      1.0000 0.41010  0.91800  0.38130  Biso   1.000  C
  H17      1.0000 0.65470  0.05630  0.55100  Biso   1.000  H
  H18      1.0000 0.34530  0.94370  0.44900  Biso   1.000  H
  H19      1.0000 0.63990  0.04180  0.70040  Biso   1.000  H
  H20      1.0000 0.36010  0.95820  0.29960  Biso   1.000  H
  C31      1.0000 0.55190  0.24090  0.56690  Biso   1.000  C
  C32      1.0000 0.44810  0.75910  0.43310  Biso   1.000  C
  C33      1.0000 0.07240  0.55340  0.38170  Biso   1.000  C
  C34      1.0000 0.92760  0.44660  0.61830  Biso   1.000  C
  H21      1.0000 0.11980  0.59130  0.29680  Biso   1.000  H
  H22      1.0000 0.88020  0.40870  0.70320  Biso   1.000  H
  C35      1.0000 0.93340  0.54590  0.38940  Biso   1.000  C
  C36      1.0000 0.06660  0.45410  0.61060  Biso   1.000  C
  H23      1.0000 0.88970  0.57970  0.30930  Biso   1.000  H
  H24      1.0000 0.11030  0.42030  0.69070  Biso   1.000  H
  N1       1.0000 0.14000  0.50800  0.49250  Biso   1.000  N
  N2       1.0000 0.86000  0.49200  0.50750  Biso   1.000  N
  O1       1.0000 0.42800  0.30715  0.53787  Biso   1.000  O
  O2       1.0000 0.57200  0.69285  0.46213  Biso   1.000  O
  O3       1.0000 0.65470  0.29115  0.55820  Biso   1.000  O
  O4       1.0000 0.34530  0.70885  0.44180  Biso   1.000  O
  O5       1.0000 0.42190  0.54720  0.29548  Biso   1.000  O
  O6       1.0000 0.57810  0.45280  0.70452  Biso   1.000  O
  O7       1.0000 0.64840  0.53150  0.31716  Biso   1.000  O
  O8       1.0000 0.35160  0.46850  0.68284  Biso   1.000  O
  O9       1.0000 0.47090  0.02131  0.64840  Biso   1.000  O
  O10      1.0000 0.52910  0.97869  0.35160  Biso   1.000  O
  O11      1.0000 0.71850  0.60790  0.05949  Biso   1.000  O
  O12      1.0000 0.28150  0.39210  0.94051  Biso   1.000  O
