data_image0
_cell_length_a       4.9618
_cell_length_b       16.979
_cell_length_c       18.354
_cell_angle_alpha    90
_cell_angle_beta     91.968
_cell_angle_gamma    90

_symmetry_space_group_name_H-M    "P 1"
_symmetry_int_tables_number       1

loop_
  _symmetry_equiv_pos_as_xyz
  'x, y, z'

loop_
  _atom_site_label
  _atom_site_occupancy
  _atom_site_fract_x
  _atom_site_fract_y
  _atom_site_fract_z
  _atom_site_thermal_displace_type
  _atom_site_B_iso_or_equiv
  _atom_site_type_symbol
  Cu1      1.0000 0.36805  0.36517  0.11901  Biso   1.000  Cu
  Cu2      1.0000 0.63195  0.86517  0.38099  Biso   1.000  Cu
  Cu3      1.0000 0.63195  0.63483  0.88099  Biso   1.000  Cu
  Cu4      1.0000 0.36805  0.13483  0.61901  Biso   1.000  Cu
  N1       1.0000 0.43760  0.45440  0.18930  Biso   1.000  N
  N2       1.0000 0.56240  0.95440  0.31070  Biso   1.000  N
  N3       1.0000 0.56240  0.54560  0.81070  Biso   1.000  N
  N4       1.0000 0.43760  0.04560  0.68930  Biso   1.000  N
  C1       1.0000 0.62170  0.50700  0.17040  Biso   1.000  C
  C2       1.0000 0.37830  0.00700  0.32960  Biso   1.000  C
  C3       1.0000 0.37830  0.49300  0.82960  Biso   1.000  C
  C4       1.0000 0.62170  0.99300  0.67040  Biso   1.000  C
  H1       1.0000 0.71390  0.49890  0.12770  Biso   1.000  H
  H2       1.0000 0.28610  0.99890  0.37230  Biso   1.000  H
  H3       1.0000 0.28610  0.50110  0.87230  Biso   1.000  H
  H4       1.0000 0.71390  0.00110  0.62770  Biso   1.000  H
  C5       1.0000 0.68140  0.57410  0.21240  Biso   1.000  C
  C6       1.0000 0.31860  0.07410  0.28760  Biso   1.000  C
  C7       1.0000 0.31860  0.42590  0.78760  Biso   1.000  C
  C8       1.0000 0.68140  0.92590  0.71240  Biso   1.000  C
  C9       1.0000 0.54770  0.58370  0.27600  Biso   1.000  C
  C10      1.0000 0.45230  0.08370  0.22400  Biso   1.000  C
  C11      1.0000 0.45230  0.41630  0.72400  Biso   1.000  C
  C12      1.0000 0.54770  0.91630  0.77600  Biso   1.000  C
  H5       1.0000 0.58560  0.62680  0.30590  Biso   1.000  H
  H6       1.0000 0.41440  0.12680  0.19410  Biso   1.000  H
  H7       1.0000 0.41440  0.37320  0.69410  Biso   1.000  H
  H8       1.0000 0.58560  0.87320  0.80590  Biso   1.000  H
  C13      1.0000 0.35570  0.52890  0.29530  Biso   1.000  C
  C14      1.0000 0.64430  0.02890  0.20470  Biso   1.000  C
  C15      1.0000 0.64430  0.47110  0.70470  Biso   1.000  C
  C16      1.0000 0.35570  0.97110  0.79530  Biso   1.000  C
  H9       1.0000 0.26130  0.53550  0.33780  Biso   1.000  H
  H10      1.0000 0.73870  0.03550  0.16220  Biso   1.000  H
  H11      1.0000 0.73870  0.46450  0.66220  Biso   1.000  H
  H12      1.0000 0.26130  0.96450  0.83780  Biso   1.000  H
  C17      1.0000 0.30600  0.46470  0.25120  Biso   1.000  C
  C18      1.0000 0.69400  0.96470  0.24880  Biso   1.000  C
  C19      1.0000 0.69400  0.53530  0.74880  Biso   1.000  C
  C20      1.0000 0.30600  0.03530  0.75120  Biso   1.000  C
  H13      1.0000 0.17860  0.42770  0.26450  Biso   1.000  H
  H14      1.0000 0.82140  0.92770  0.23550  Biso   1.000  H
  H15      1.0000 0.82140  0.57230  0.73550  Biso   1.000  H
  H16      1.0000 0.17860  0.07230  0.76450  Biso   1.000  H
  N5       1.0000 0.87480  0.63090  0.19450  Biso   1.000  N
  N6       1.0000 0.12520  0.13090  0.30550  Biso   1.000  N
  N7       1.0000 0.12520  0.36910  0.80550  Biso   1.000  N
  N8       1.0000 0.87480  0.86910  0.69450  Biso   1.000  N
  H17      1.0000 0.90460  0.66720  0.22640  Biso   1.000  H
  H18      1.0000 0.09540  0.16720  0.27360  Biso   1.000  H
  H19      1.0000 0.09540  0.33280  0.77360  Biso   1.000  H
  H20      1.0000 0.90460  0.83280  0.72640  Biso   1.000  H
  C21      1.0000 0.02010  0.63590  0.13360  Biso   1.000  C
  C22      1.0000 0.97990  0.13590  0.36640  Biso   1.000  C
  C23      1.0000 0.97990  0.36410  0.86640  Biso   1.000  C
  C24      1.0000 0.02010  0.86410  0.63360  Biso   1.000  C
  O1       1.0000 0.00880  0.58675  0.08349  Biso   1.000  O
  O2       1.0000 0.99120  0.08675  0.41651  Biso   1.000  O
  O3       1.0000 0.99120  0.41325  0.91651  Biso   1.000  O
  O4       1.0000 0.00880  0.91325  0.58349  Biso   1.000  O
  N9       1.0000 0.18340  0.70090  0.13280  Biso   1.000  N
  N10      1.0000 0.81660  0.20090  0.36720  Biso   1.000  N
  N11      1.0000 0.81660  0.29910  0.86720  Biso   1.000  N
  N12      1.0000 0.18340  0.79910  0.63280  Biso   1.000  N
  H21      1.0000 0.17340  0.73190  0.16970  Biso   1.000  H
  H22      1.0000 0.82660  0.23190  0.33030  Biso   1.000  H
  H23      1.0000 0.82660  0.26810  0.83030  Biso   1.000  H
  H24      1.0000 0.17340  0.76810  0.66970  Biso   1.000  H
  C25      1.0000 0.36360  0.72330  0.08000  Biso   1.000  C
  C26      1.0000 0.63640  0.22330  0.42000  Biso   1.000  C
  C27      1.0000 0.63640  0.27670  0.92000  Biso   1.000  C
  C28      1.0000 0.36360  0.77670  0.58000  Biso   1.000  C
  C29      1.0000 0.41000  0.68200  0.01700  Biso   1.000  C
  C30      1.0000 0.59000  0.18200  0.48300  Biso   1.000  C
  C31      1.0000 0.59000  0.31800  0.98300  Biso   1.000  C
  C32      1.0000 0.41000  0.81800  0.51700  Biso   1.000  C
  H25      1.0000 0.31270  0.63600  0.00810  Biso   1.000  H
  H26      1.0000 0.68730  0.13600  0.49190  Biso   1.000  H
  H27      1.0000 0.68730  0.36400  0.99190  Biso   1.000  H
  H28      1.0000 0.31270  0.86400  0.50810  Biso   1.000  H
  N13      1.0000 0.58760  0.70480  0.96820  Biso   1.000  N
  N14      1.0000 0.41240  0.20480  0.53180  Biso   1.000  N
  N15      1.0000 0.41240  0.29520  0.03180  Biso   1.000  N
  N16      1.0000 0.58760  0.79520  0.46820  Biso   1.000  N
  C33      1.0000 0.73010  0.77140  0.98010  Biso   1.000  C
  C34      1.0000 0.26990  0.27140  0.51990  Biso   1.000  C
  C35      1.0000 0.26990  0.22860  0.01990  Biso   1.000  C
  C36      1.0000 0.73010  0.72860  0.48010  Biso   1.000  C
  H29      1.0000 0.85040  0.78840  0.94570  Biso   1.000  H
  H30      1.0000 0.14960  0.28840  0.55430  Biso   1.000  H
  H31      1.0000 0.14960  0.21160  0.05430  Biso   1.000  H
  H32      1.0000 0.85040  0.71160  0.44570  Biso   1.000  H
  C37      1.0000 0.69870  0.81420  0.04280  Biso   1.000  C
  C38      1.0000 0.30130  0.31420  0.45720  Biso   1.000  C
  C39      1.0000 0.30130  0.18580  0.95720  Biso   1.000  C
  C40      1.0000 0.69870  0.68580  0.54280  Biso   1.000  C
  H33      1.0000 0.80180  0.85930  0.05110  Biso   1.000  H
  H34      1.0000 0.19820  0.35930  0.44890  Biso   1.000  H
  H35      1.0000 0.19820  0.14070  0.94890  Biso   1.000  H
  H36      1.0000 0.80180  0.64070  0.55110  Biso   1.000  H
  C41      1.0000 0.51640  0.79120  0.09360  Biso   1.000  C
  C42      1.0000 0.48360  0.29120  0.40640  Biso   1.000  C
  C43      1.0000 0.48360  0.20880  0.90640  Biso   1.000  C
  C44      1.0000 0.51640  0.70880  0.59360  Biso   1.000  C
  H37      1.0000 0.49550  0.82020  0.13600  Biso   1.000  H
  H38      1.0000 0.50450  0.32020  0.36400  Biso   1.000  H
  H39      1.0000 0.50450  0.17980  0.86400  Biso   1.000  H
  H40      1.0000 0.49550  0.67980  0.63600  Biso   1.000  H
  O5       1.0000 0.53860  0.28760  0.18365  Biso   1.000  O
  O6       1.0000 0.46140  0.78760  0.31635  Biso   1.000  O
  O7       1.0000 0.46140  0.71240  0.81635  Biso   1.000  O
  O8       1.0000 0.53860  0.21240  0.68365  Biso   1.000  O
  S1       1.0000 0.83890  0.28726  0.19031  Biso   1.000  S
  S2       1.0000 0.16110  0.78726  0.30969  Biso   1.000  S
  S3       1.0000 0.16110  0.71274  0.80969  Biso   1.000  S
  S4       1.0000 0.83890  0.21274  0.69031  Biso   1.000  S
  O9       1.0000 0.91870  0.31140  0.26486  Biso   1.000  O
  O10      1.0000 0.08130  0.81140  0.23514  Biso   1.000  O
  O11      1.0000 0.08130  0.68860  0.73514  Biso   1.000  O
  O12      1.0000 0.91870  0.18860  0.76486  Biso   1.000  O
  O13      1.0000 0.93340  0.20720  0.17660  Biso   1.000  O
  O14      1.0000 0.06660  0.70720  0.32340  Biso   1.000  O
  O15      1.0000 0.06660  0.79280  0.82340  Biso   1.000  O
  O16      1.0000 0.93340  0.29280  0.67660  Biso   1.000  O
  O17      1.0000 0.94210  0.34400  0.13656  Biso   1.000  O
  O18      1.0000 0.05790  0.84400  0.36344  Biso   1.000  O
  O19      1.0000 0.05790  0.65600  0.86344  Biso   1.000  O
  O20      1.0000 0.94210  0.15600  0.63656  Biso   1.000  O
  O21      1.0000 0.26720  0.44980  0.04498  Biso   1.000  O
  O22      1.0000 0.73280  0.94980  0.45502  Biso   1.000  O
  O23      1.0000 0.73280  0.55020  0.95502  Biso   1.000  O
  O24      1.0000 0.26720  0.05020  0.54498  Biso   1.000  O
  H41      1.0000 0.17870  0.48420  0.06460  Biso   1.000  H
  H42      1.0000 0.82130  0.98420  0.43540  Biso   1.000  H
  H43      1.0000 0.82130  0.51580  0.93540  Biso   1.000  H
  H44      1.0000 0.17870  0.01580  0.56460  Biso   1.000  H
  H45      1.0000 0.15200  0.43400  0.01500  Biso   1.000  H
  H46      1.0000 0.84800  0.93400  0.48500  Biso   1.000  H
  H47      1.0000 0.84800  0.56600  0.98500  Biso   1.000  H
  H48      1.0000 0.15200  0.06600  0.51500  Biso   1.000  H
