data_image0
_cell_length_a       11.395
_cell_length_b       7.662
_cell_length_c       13.61
_cell_angle_alpha    90
_cell_angle_beta     90
_cell_angle_gamma    90

_symmetry_space_group_name_H-M    "P 1"
_symmetry_int_tables_number       1

loop_
  _symmetry_equiv_pos_as_xyz
  'x, y, z'

loop_
  _atom_site_label
  _atom_site_occupancy
  _atom_site_fract_x
  _atom_site_fract_y
  _atom_site_fract_z
  _atom_site_thermal_displace_type
  _atom_site_B_iso_or_equiv
  _atom_site_type_symbol
  Cu1      1.0000 0.50000  0.00000  0.50000  Biso   1.000  Cu
  Cu2      1.0000 0.00000  0.00000  0.00000  Biso   1.000  Cu
  Cu3      1.0000 0.50000  0.50000  0.00000  Biso   1.000  Cu
  Cu4      1.0000 0.00000  0.50000  0.50000  Biso   1.000  Cu
  O1       1.0000 0.43870  0.14370  0.39460  Biso   1.000  O
  O2       1.0000 0.06130  0.85630  0.89460  Biso   1.000  O
  O3       1.0000 0.56130  0.64370  0.10540  Biso   1.000  O
  O4       1.0000 0.93870  0.35630  0.60540  Biso   1.000  O
  O5       1.0000 0.56130  0.85630  0.60540  Biso   1.000  O
  O6       1.0000 0.93870  0.14370  0.10540  Biso   1.000  O
  O7       1.0000 0.43870  0.35630  0.89460  Biso   1.000  O
  O8       1.0000 0.06130  0.64370  0.39460  Biso   1.000  O
  O9       1.0000 0.39210  0.90290  0.31220  Biso   1.000  O
  O10      1.0000 0.10790  0.09710  0.81220  Biso   1.000  O
  O11      1.0000 0.60790  0.40290  0.18780  Biso   1.000  O
  O12      1.0000 0.89210  0.59710  0.68780  Biso   1.000  O
  O13      1.0000 0.60790  0.09710  0.68780  Biso   1.000  O
  O14      1.0000 0.89210  0.90290  0.18780  Biso   1.000  O
  O15      1.0000 0.39210  0.59710  0.81220  Biso   1.000  O
  O16      1.0000 0.10790  0.40290  0.31220  Biso   1.000  O
  C1       1.0000 0.39840  0.05920  0.32140  Biso   1.000  C
  C2       1.0000 0.10160  0.94080  0.82140  Biso   1.000  C
  C3       1.0000 0.60160  0.55920  0.17860  Biso   1.000  C
  C4       1.0000 0.89840  0.44080  0.67860  Biso   1.000  C
  C5       1.0000 0.60160  0.94080  0.67860  Biso   1.000  C
  C6       1.0000 0.89840  0.05920  0.17860  Biso   1.000  C
  C7       1.0000 0.39840  0.44080  0.82140  Biso   1.000  C
  C8       1.0000 0.10160  0.55920  0.32140  Biso   1.000  C
  C9       1.0000 0.35830  0.18490  0.24060  Biso   1.000  C
  C10      1.0000 0.14170  0.81510  0.74060  Biso   1.000  C
  C11      1.0000 0.64170  0.68490  0.25940  Biso   1.000  C
  C12      1.0000 0.85830  0.31510  0.75940  Biso   1.000  C
  C13      1.0000 0.64170  0.81510  0.75940  Biso   1.000  C
  C14      1.0000 0.85830  0.18490  0.25940  Biso   1.000  C
  C15      1.0000 0.35830  0.31510  0.74060  Biso   1.000  C
  C16      1.0000 0.14170  0.68490  0.24060  Biso   1.000  C
  H1       1.0000 0.30510  0.26980  0.26910  Biso   1.000  H
  H2       1.0000 0.19490  0.73020  0.76910  Biso   1.000  H
  H3       1.0000 0.69490  0.76980  0.23090  Biso   1.000  H
  H4       1.0000 0.80510  0.23020  0.73090  Biso   1.000  H
  H5       1.0000 0.69490  0.73020  0.73090  Biso   1.000  H
  H6       1.0000 0.80510  0.26980  0.23090  Biso   1.000  H
  H7       1.0000 0.30510  0.23020  0.76910  Biso   1.000  H
  H8       1.0000 0.19490  0.76980  0.26910  Biso   1.000  H
  H9       1.0000 0.42620  0.24780  0.21610  Biso   1.000  H
  H10      1.0000 0.07380  0.75220  0.71610  Biso   1.000  H
  H11      1.0000 0.57380  0.74780  0.28390  Biso   1.000  H
  H12      1.0000 0.92620  0.25220  0.78390  Biso   1.000  H
  H13      1.0000 0.57380  0.75220  0.78390  Biso   1.000  H
  H14      1.0000 0.92620  0.24780  0.28390  Biso   1.000  H
  H15      1.0000 0.42620  0.25220  0.71610  Biso   1.000  H
  H16      1.0000 0.07380  0.74780  0.21610  Biso   1.000  H
  C17      1.0000 0.18480  0.10280  0.14080  Biso   1.000  C
  C18      1.0000 0.31520  0.89720  0.64080  Biso   1.000  C
  C19      1.0000 0.81520  0.60280  0.35920  Biso   1.000  C
  C20      1.0000 0.68480  0.39720  0.85920  Biso   1.000  C
  C21      1.0000 0.81520  0.89720  0.85920  Biso   1.000  C
  C22      1.0000 0.68480  0.10280  0.35920  Biso   1.000  C
  C23      1.0000 0.18480  0.39720  0.64080  Biso   1.000  C
  C24      1.0000 0.31520  0.60280  0.14080  Biso   1.000  C
  H17      1.0000 0.12980  0.15670  0.18110  Biso   1.000  H
  H18      1.0000 0.37020  0.84330  0.68110  Biso   1.000  H
  H19      1.0000 0.87020  0.65670  0.31890  Biso   1.000  H
  H20      1.0000 0.62980  0.34330  0.81890  Biso   1.000  H
  H21      1.0000 0.87020  0.84330  0.81890  Biso   1.000  H
  H22      1.0000 0.62980  0.15670  0.31890  Biso   1.000  H
  H23      1.0000 0.12980  0.34330  0.68110  Biso   1.000  H
  H24      1.0000 0.37020  0.65670  0.18110  Biso   1.000  H
  C25      1.0000 0.26490  0.96190  0.02340  Biso   1.000  C
  C26      1.0000 0.23510  0.03810  0.52340  Biso   1.000  C
  C27      1.0000 0.73510  0.46190  0.47660  Biso   1.000  C
  C28      1.0000 0.76490  0.53810  0.97660  Biso   1.000  C
  C29      1.0000 0.73510  0.03810  0.97660  Biso   1.000  C
  C30      1.0000 0.76490  0.96190  0.47660  Biso   1.000  C
  C31      1.0000 0.26490  0.53810  0.52340  Biso   1.000  C
  C32      1.0000 0.23510  0.46190  0.02340  Biso   1.000  C
  H25      1.0000 0.27500  0.89790  0.96600  Biso   1.000  H
  H26      1.0000 0.22500  0.10210  0.46600  Biso   1.000  H
  H27      1.0000 0.72500  0.39790  0.53400  Biso   1.000  H
  H28      1.0000 0.77500  0.60210  0.03400  Biso   1.000  H
  H29      1.0000 0.72500  0.10210  0.03400  Biso   1.000  H
  H30      1.0000 0.77500  0.89790  0.53400  Biso   1.000  H
  H31      1.0000 0.27500  0.60210  0.46600  Biso   1.000  H
  H32      1.0000 0.22500  0.39790  0.96600  Biso   1.000  H
  C33      1.0000 0.35230  0.01200  0.08350  Biso   1.000  C
  C34      1.0000 0.14770  0.98800  0.58350  Biso   1.000  C
  C35      1.0000 0.64770  0.51200  0.41650  Biso   1.000  C
  C36      1.0000 0.85230  0.48800  0.91650  Biso   1.000  C
  C37      1.0000 0.64770  0.98800  0.91650  Biso   1.000  C
  C38      1.0000 0.85230  0.01200  0.41650  Biso   1.000  C
  C39      1.0000 0.35230  0.48800  0.58350  Biso   1.000  C
  C40      1.0000 0.14770  0.51200  0.08350  Biso   1.000  C
  H33      1.0000 0.43200  0.99040  0.07550  Biso   1.000  H
  H34      1.0000 0.06800  0.00960  0.57550  Biso   1.000  H
  H35      1.0000 0.56800  0.49040  0.42450  Biso   1.000  H
  H36      1.0000 0.93200  0.50960  0.92450  Biso   1.000  H
  H37      1.0000 0.56800  0.00960  0.92450  Biso   1.000  H
  H38      1.0000 0.93200  0.99040  0.42450  Biso   1.000  H
  H39      1.0000 0.43200  0.50960  0.57550  Biso   1.000  H
  H40      1.0000 0.06800  0.49040  0.07550  Biso   1.000  H
  N1       1.0000 0.30020  0.10070  0.15840  Biso   1.000  N
  N2       1.0000 0.19980  0.89930  0.65840  Biso   1.000  N
  N3       1.0000 0.69980  0.60070  0.34160  Biso   1.000  N
  N4       1.0000 0.80020  0.39930  0.84160  Biso   1.000  N
  N5       1.0000 0.69980  0.89930  0.84160  Biso   1.000  N
  N6       1.0000 0.80020  0.10070  0.34160  Biso   1.000  N
  N7       1.0000 0.30020  0.39930  0.65840  Biso   1.000  N
  N8       1.0000 0.19980  0.60070  0.15840  Biso   1.000  N
  N9       1.0000 0.15860  0.01860  0.05890  Biso   1.000  N
  N10      1.0000 0.34140  0.98140  0.55890  Biso   1.000  N
  N11      1.0000 0.84140  0.51860  0.44110  Biso   1.000  N
  N12      1.0000 0.65860  0.48140  0.94110  Biso   1.000  N
  N13      1.0000 0.84140  0.98140  0.94110  Biso   1.000  N
  N14      1.0000 0.65860  0.01860  0.44110  Biso   1.000  N
  N15      1.0000 0.15860  0.48140  0.55890  Biso   1.000  N
  N16      1.0000 0.34140  0.51860  0.05890  Biso   1.000  N
