data_image0
_cell_length_a       19.208
_cell_length_b       7.943
_cell_length_c       19.76
_cell_angle_alpha    90
_cell_angle_beta     99.42
_cell_angle_gamma    90

_symmetry_space_group_name_H-M    "P 1"
_symmetry_int_tables_number       1

loop_
  _symmetry_equiv_pos_as_xyz
  'x, y, z'

loop_
  _atom_site_label
  _atom_site_occupancy
  _atom_site_fract_x
  _atom_site_fract_y
  _atom_site_fract_z
  _atom_site_thermal_displace_type
  _atom_site_B_iso_or_equiv
  _atom_site_type_symbol
  Cu1      1.0000 0.27948  0.49288  0.32240  Biso   1.000  Cu
  Cu2      1.0000 0.72052  0.99288  0.17760  Biso   1.000  Cu
  Cu3      1.0000 0.72052  0.50712  0.67760  Biso   1.000  Cu
  Cu4      1.0000 0.27948  0.00712  0.82240  Biso   1.000  Cu
  Cu5      1.0000 0.20487  0.55610  0.44054  Biso   1.000  Cu
  Cu6      1.0000 0.79513  0.05610  0.05946  Biso   1.000  Cu
  Cu7      1.0000 0.79513  0.44390  0.55946  Biso   1.000  Cu
  Cu8      1.0000 0.20487  0.94390  0.94054  Biso   1.000  Cu
  N1       1.0000 0.37795  0.46310  0.31965  Biso   1.000  N
  N2       1.0000 0.62205  0.96310  0.18035  Biso   1.000  N
  N3       1.0000 0.62205  0.53690  0.68035  Biso   1.000  N
  N4       1.0000 0.37795  0.03690  0.81965  Biso   1.000  N
  N5       1.0000 0.39337  0.50140  0.25539  Biso   1.000  N
  N6       1.0000 0.60663  0.00140  0.24461  Biso   1.000  N
  N7       1.0000 0.60663  0.49860  0.74461  Biso   1.000  N
  N8       1.0000 0.39337  0.99860  0.75539  Biso   1.000  N
  H1       1.0000 0.43540  0.48420  0.24450  Biso   1.000  H
  H2       1.0000 0.56460  0.98420  0.25550  Biso   1.000  H
  H3       1.0000 0.56460  0.51580  0.75550  Biso   1.000  H
  H4       1.0000 0.43540  0.01580  0.74450  Biso   1.000  H
  O1       1.0000 0.29637  0.47776  0.42259  Biso   1.000  O
  O2       1.0000 0.70363  0.97776  0.07741  Biso   1.000  O
  O3       1.0000 0.70363  0.52224  0.57741  Biso   1.000  O
  O4       1.0000 0.29637  0.02224  0.92259  Biso   1.000  O
  O5       1.0000 0.28000  0.57850  0.22732  Biso   1.000  O
  O6       1.0000 0.72000  0.07850  0.27268  Biso   1.000  O
  O7       1.0000 0.72000  0.42150  0.77268  Biso   1.000  O
  O8       1.0000 0.28000  0.92150  0.72732  Biso   1.000  O
  O9       1.0000 0.22312  0.64570  0.93948  Biso   1.000  O
  O10      1.0000 0.77688  0.14570  0.56052  Biso   1.000  O
  O11      1.0000 0.77688  0.35430  0.06052  Biso   1.000  O
  O12      1.0000 0.22312  0.85430  0.43948  Biso   1.000  O
  H5       1.0000 0.19060  0.58790  0.95150  Biso   1.000  H
  H6       1.0000 0.80940  0.08790  0.54850  Biso   1.000  H
  H7       1.0000 0.80940  0.41210  0.04850  Biso   1.000  H
  H8       1.0000 0.19060  0.91210  0.45150  Biso   1.000  H
  C1       1.0000 0.35427  0.41350  0.46247  Biso   1.000  C
  C2       1.0000 0.64573  0.91350  0.03753  Biso   1.000  C
  C3       1.0000 0.64573  0.58650  0.53753  Biso   1.000  C
  C4       1.0000 0.35427  0.08650  0.96247  Biso   1.000  C
  C5       1.0000 0.41609  0.37290  0.43575  Biso   1.000  C
  C6       1.0000 0.58391  0.87290  0.06425  Biso   1.000  C
  C7       1.0000 0.58391  0.62710  0.56425  Biso   1.000  C
  C8       1.0000 0.41609  0.12710  0.93575  Biso   1.000  C
  C9       1.0000 0.47357  0.30120  0.47929  Biso   1.000  C
  C10      1.0000 0.52643  0.80120  0.02071  Biso   1.000  C
  C11      1.0000 0.52643  0.69880  0.52071  Biso   1.000  C
  C12      1.0000 0.47357  0.19880  0.97929  Biso   1.000  C
  H9       1.0000 0.51460  0.27210  0.46080  Biso   1.000  H
  H10      1.0000 0.48540  0.77210  0.03920  Biso   1.000  H
  H11      1.0000 0.48540  0.72790  0.53920  Biso   1.000  H
  H12      1.0000 0.51460  0.22790  0.96080  Biso   1.000  H
  C13      1.0000 0.47249  0.27160  0.54748  Biso   1.000  C
  C14      1.0000 0.52751  0.77160  0.95252  Biso   1.000  C
  C15      1.0000 0.52751  0.72840  0.45252  Biso   1.000  C
  C16      1.0000 0.47249  0.22840  0.04748  Biso   1.000  C
  H13      1.0000 0.51170  0.22130  0.57580  Biso   1.000  H
  H14      1.0000 0.48830  0.72130  0.92420  Biso   1.000  H
  H15      1.0000 0.48830  0.77870  0.42420  Biso   1.000  H
  H16      1.0000 0.51170  0.27870  0.07580  Biso   1.000  H
  C17      1.0000 0.41250  0.31740  0.57400  Biso   1.000  C
  C18      1.0000 0.58750  0.81740  0.92600  Biso   1.000  C
  C19      1.0000 0.58750  0.68260  0.42600  Biso   1.000  C
  C20      1.0000 0.41250  0.18260  0.07400  Biso   1.000  C
  H17      1.0000 0.41140  0.30120  0.62140  Biso   1.000  H
  H18      1.0000 0.58860  0.80120  0.87860  Biso   1.000  H
  H19      1.0000 0.58860  0.69880  0.37860  Biso   1.000  H
  H20      1.0000 0.41140  0.19880  0.12140  Biso   1.000  H
  C21      1.0000 0.35424  0.38640  0.53248  Biso   1.000  C
  C22      1.0000 0.64576  0.88640  0.96752  Biso   1.000  C
  C23      1.0000 0.64576  0.61360  0.46752  Biso   1.000  C
  C24      1.0000 0.35424  0.11360  0.03248  Biso   1.000  C
  H21      1.0000 0.31370  0.41560  0.55180  Biso   1.000  H
  H22      1.0000 0.68630  0.91560  0.94820  Biso   1.000  H
  H23      1.0000 0.68630  0.58440  0.44820  Biso   1.000  H
  H24      1.0000 0.31370  0.08440  0.05180  Biso   1.000  H
  C25      1.0000 0.42687  0.40860  0.36664  Biso   1.000  C
  C26      1.0000 0.57313  0.90860  0.13336  Biso   1.000  C
  C27      1.0000 0.57313  0.59140  0.63336  Biso   1.000  C
  C28      1.0000 0.42687  0.09140  0.86664  Biso   1.000  C
  H25      1.0000 0.47250  0.39080  0.35530  Biso   1.000  H
  H26      1.0000 0.52750  0.89080  0.14470  Biso   1.000  H
  H27      1.0000 0.52750  0.60920  0.64470  Biso   1.000  H
  H28      1.0000 0.47250  0.10920  0.85530  Biso   1.000  H
  C29      1.0000 0.34039  0.56620  0.21096  Biso   1.000  C
  C30      1.0000 0.65961  0.06620  0.28904  Biso   1.000  C
  C31      1.0000 0.65961  0.43380  0.78904  Biso   1.000  C
  C32      1.0000 0.34039  0.93380  0.71096  Biso   1.000  C
  C33      1.0000 0.35646  0.62500  0.14355  Biso   1.000  C
  C34      1.0000 0.64354  0.12500  0.35645  Biso   1.000  C
  C35      1.0000 0.64354  0.37500  0.85645  Biso   1.000  C
  C36      1.0000 0.35646  0.87500  0.64355  Biso   1.000  C
  H29      1.0000 0.40540  0.59160  0.13980  Biso   1.000  H
  H30      1.0000 0.59460  0.09160  0.36020  Biso   1.000  H
  H31      1.0000 0.59460  0.40840  0.86020  Biso   1.000  H
  H32      1.0000 0.40540  0.90840  0.63980  Biso   1.000  H
  H33      1.0000 0.35430  0.74950  0.14240  Biso   1.000  H
  H34      1.0000 0.64570  0.24950  0.35760  Biso   1.000  H
  H35      1.0000 0.64570  0.25050  0.85760  Biso   1.000  H
  H36      1.0000 0.35430  0.75050  0.64240  Biso   1.000  H
  C37      1.0000 0.30695  0.55660  0.08151  Biso   1.000  C
  C38      1.0000 0.69305  0.05660  0.41849  Biso   1.000  C
  C39      1.0000 0.69305  0.44340  0.91849  Biso   1.000  C
  C40      1.0000 0.30695  0.94340  0.58151  Biso   1.000  C
  H37      1.0000 0.25920  0.60470  0.08010  Biso   1.000  H
  H38      1.0000 0.74080  0.10470  0.41990  Biso   1.000  H
  H39      1.0000 0.74080  0.39530  0.91990  Biso   1.000  H
  H40      1.0000 0.25920  0.89530  0.58010  Biso   1.000  H
  H41      1.0000 0.30350  0.43270  0.08500  Biso   1.000  H
  H42      1.0000 0.69650  0.93270  0.41500  Biso   1.000  H
  H43      1.0000 0.69650  0.56730  0.91500  Biso   1.000  H
  H44      1.0000 0.30350  0.06730  0.58500  Biso   1.000  H
  C41      1.0000 0.33528  0.60360  0.01601  Biso   1.000  C
  C42      1.0000 0.66472  0.10360  0.48399  Biso   1.000  C
  C43      1.0000 0.66472  0.39640  0.98399  Biso   1.000  C
  C44      1.0000 0.33528  0.89640  0.51601  Biso   1.000  C
  H45      1.0000 0.34190  0.72710  0.01510  Biso   1.000  H
  H46      1.0000 0.65810  0.22710  0.48490  Biso   1.000  H
  H47      1.0000 0.65810  0.27290  0.98490  Biso   1.000  H
  H48      1.0000 0.34190  0.77290  0.51510  Biso   1.000  H
  H49      1.0000 0.38210  0.55050  0.01730  Biso   1.000  H
  H50      1.0000 0.61790  0.05050  0.48270  Biso   1.000  H
  H51      1.0000 0.61790  0.44950  0.98270  Biso   1.000  H
  H52      1.0000 0.38210  0.94950  0.51730  Biso   1.000  H
  C45      1.0000 0.28771  0.55050  0.95040  Biso   1.000  C
  C46      1.0000 0.71229  0.05050  0.54960  Biso   1.000  C
  C47      1.0000 0.71229  0.44950  0.04960  Biso   1.000  C
  C48      1.0000 0.28771  0.94950  0.45040  Biso   1.000  C
  H53      1.0000 0.31290  0.56730  0.91100  Biso   1.000  H
  H54      1.0000 0.68710  0.06730  0.58900  Biso   1.000  H
  H55      1.0000 0.68710  0.43270  0.08900  Biso   1.000  H
  H56      1.0000 0.31290  0.93270  0.41100  Biso   1.000  H
  H57      1.0000 0.27660  0.42920  0.95300  Biso   1.000  H
  H58      1.0000 0.72340  0.92920  0.54700  Biso   1.000  H
  H59      1.0000 0.72340  0.57080  0.04700  Biso   1.000  H
  H60      1.0000 0.27660  0.07080  0.45300  Biso   1.000  H
  N9       1.0000 0.10866  0.61780  0.44456  Biso   1.000  N
  N10      1.0000 0.89134  0.11780  0.05544  Biso   1.000  N
  N11      1.0000 0.89134  0.38220  0.55544  Biso   1.000  N
  N12      1.0000 0.10866  0.88220  0.94456  Biso   1.000  N
  N13      1.0000 0.09911  0.64000  0.51202  Biso   1.000  N
  N14      1.0000 0.90089  0.14000  0.98798  Biso   1.000  N
  N15      1.0000 0.90089  0.36000  0.48798  Biso   1.000  N
  N16      1.0000 0.09911  0.86000  0.01202  Biso   1.000  N
  H61      1.0000 0.05850  0.67130  0.52300  Biso   1.000  H
  H62      1.0000 0.94150  0.17130  0.97700  Biso   1.000  H
  H63      1.0000 0.94150  0.32870  0.47700  Biso   1.000  H
  H64      1.0000 0.05850  0.82870  0.02300  Biso   1.000  H
  O13      1.0000 0.18578  0.53957  0.34141  Biso   1.000  O
  O14      1.0000 0.81422  0.03957  0.15859  Biso   1.000  O
  O15      1.0000 0.81422  0.46043  0.65859  Biso   1.000  O
  O16      1.0000 0.18578  0.96043  0.84141  Biso   1.000  O
  O17      1.0000 0.21284  0.56664  0.54079  Biso   1.000  O
  O18      1.0000 0.78716  0.06664  0.95921  Biso   1.000  O
  O19      1.0000 0.78716  0.43336  0.45921  Biso   1.000  O
  O20      1.0000 0.21284  0.93336  0.04079  Biso   1.000  O
  O21      1.0000 0.25584  0.27060  0.78828  Biso   1.000  O
  O22      1.0000 0.74416  0.77060  0.71172  Biso   1.000  O
  O23      1.0000 0.74416  0.72940  0.21172  Biso   1.000  O
  O24      1.0000 0.25584  0.22940  0.28828  Biso   1.000  O
  H65      1.0000 0.28750  0.33520  0.77870  Biso   1.000  H
  H66      1.0000 0.71250  0.83520  0.72130  Biso   1.000  H
  H67      1.0000 0.71250  0.66480  0.22130  Biso   1.000  H
  H68      1.0000 0.28750  0.16480  0.27870  Biso   1.000  H
  C49      1.0000 0.12309  0.55550  0.29981  Biso   1.000  C
  C50      1.0000 0.87691  0.05550  0.20019  Biso   1.000  C
  C51      1.0000 0.87691  0.44450  0.70019  Biso   1.000  C
  C52      1.0000 0.12309  0.94450  0.79981  Biso   1.000  C
  C53      1.0000 0.06167  0.60910  0.32441  Biso   1.000  C
  C54      1.0000 0.93833  0.10910  0.17559  Biso   1.000  C
  C55      1.0000 0.93833  0.39090  0.67559  Biso   1.000  C
  C56      1.0000 0.06167  0.89090  0.82441  Biso   1.000  C
  C57      1.0000 0.99868  0.62840  0.27724  Biso   1.000  C
  C58      1.0000 0.00132  0.12840  0.22276  Biso   1.000  C
  C59      1.0000 0.00132  0.37160  0.72276  Biso   1.000  C
  C60      1.0000 0.99868  0.87160  0.77724  Biso   1.000  C
  H69      1.0000 0.95740  0.66560  0.29350  Biso   1.000  H
  H70      1.0000 0.04260  0.16560  0.20650  Biso   1.000  H
  H71      1.0000 0.04260  0.33440  0.70650  Biso   1.000  H
  H72      1.0000 0.95740  0.83440  0.79350  Biso   1.000  H
  C61      1.0000 0.99515  0.59530  0.20873  Biso   1.000  C
  C62      1.0000 0.00485  0.09530  0.29127  Biso   1.000  C
  C63      1.0000 0.00485  0.40470  0.79127  Biso   1.000  C
  C64      1.0000 0.99515  0.90470  0.70873  Biso   1.000  C
  H73      1.0000 0.95240  0.61170  0.17780  Biso   1.000  H
  H74      1.0000 0.04760  0.11170  0.32220  Biso   1.000  H
  H75      1.0000 0.04760  0.38830  0.82220  Biso   1.000  H
  H76      1.0000 0.95240  0.88830  0.67780  Biso   1.000  H
  C65      1.0000 0.05532  0.53720  0.18517  Biso   1.000  C
  C66      1.0000 0.94468  0.03720  0.31483  Biso   1.000  C
  C67      1.0000 0.94468  0.46280  0.81483  Biso   1.000  C
  C68      1.0000 0.05532  0.96280  0.68517  Biso   1.000  C
  H77      1.0000 0.05320  0.51100  0.13800  Biso   1.000  H
  H78      1.0000 0.94680  0.01100  0.36200  Biso   1.000  H
  H79      1.0000 0.94680  0.48900  0.86200  Biso   1.000  H
  H80      1.0000 0.05320  0.98900  0.63800  Biso   1.000  H
  C69      1.0000 0.11826  0.51730  0.23013  Biso   1.000  C
  C70      1.0000 0.88174  0.01730  0.26987  Biso   1.000  C
  C71      1.0000 0.88174  0.48270  0.76987  Biso   1.000  C
  C72      1.0000 0.11826  0.98270  0.73013  Biso   1.000  C
  H81      1.0000 0.15880  0.47700  0.21330  Biso   1.000  H
  H82      1.0000 0.84120  0.97700  0.28670  Biso   1.000  H
  H83      1.0000 0.84120  0.52300  0.78670  Biso   1.000  H
  H84      1.0000 0.15880  0.02300  0.71330  Biso   1.000  H
  C73      1.0000 0.05677  0.63950  0.39551  Biso   1.000  C
  C74      1.0000 0.94323  0.13950  0.10449  Biso   1.000  C
  C75      1.0000 0.94323  0.36050  0.60449  Biso   1.000  C
  C76      1.0000 0.05677  0.86050  0.89551  Biso   1.000  C
  H85      1.0000 0.01310  0.67740  0.40650  Biso   1.000  H
  H86      1.0000 0.98690  0.17740  0.09350  Biso   1.000  H
  H87      1.0000 0.98690  0.32260  0.59350  Biso   1.000  H
  H88      1.0000 0.01310  0.82260  0.90650  Biso   1.000  H
  C77      1.0000 0.15599  0.61030  0.55908  Biso   1.000  C
  C78      1.0000 0.84401  0.11030  0.94092  Biso   1.000  C
  C79      1.0000 0.84401  0.38970  0.44092  Biso   1.000  C
  C80      1.0000 0.15599  0.88970  0.05908  Biso   1.000  C
  C81      1.0000 0.15049  0.63280  0.63303  Biso   1.000  C
  C82      1.0000 0.84951  0.13280  0.86697  Biso   1.000  C
  C83      1.0000 0.84951  0.36720  0.36697  Biso   1.000  C
  C84      1.0000 0.15049  0.86720  0.13303  Biso   1.000  C
  H89      1.0000 0.10010  0.64340  0.63770  Biso   1.000  H
  H90      1.0000 0.89990  0.14340  0.86230  Biso   1.000  H
  H91      1.0000 0.89990  0.35660  0.36230  Biso   1.000  H
  H92      1.0000 0.10010  0.85660  0.13770  Biso   1.000  H
  H93      1.0000 0.17460  0.73860  0.64990  Biso   1.000  H
  H94      1.0000 0.82540  0.23860  0.85010  Biso   1.000  H
  H95      1.0000 0.82540  0.26140  0.35010  Biso   1.000  H
  H96      1.0000 0.17460  0.76140  0.14990  Biso   1.000  H
  C85      1.0000 0.18308  0.48660  0.67736  Biso   1.000  C
  C86      1.0000 0.81692  0.98660  0.82264  Biso   1.000  C
  C87      1.0000 0.81692  0.51340  0.32264  Biso   1.000  C
  C88      1.0000 0.18308  0.01340  0.17736  Biso   1.000  C
  H97      1.0000 0.23150  0.46560  0.66820  Biso   1.000  H
  H98      1.0000 0.76850  0.96560  0.83180  Biso   1.000  H
  H99      1.0000 0.76850  0.53440  0.33180  Biso   1.000  H
  H100     1.0000 0.23150  0.03440  0.16820  Biso   1.000  H
  H101     1.0000 0.15480  0.38350  0.66510  Biso   1.000  H
  H102     1.0000 0.84520  0.88350  0.83490  Biso   1.000  H
  H103     1.0000 0.84520  0.61650  0.33490  Biso   1.000  H
  H104     1.0000 0.15480  0.11650  0.16510  Biso   1.000  H
  C89      1.0000 0.18579  0.52460  0.75358  Biso   1.000  C
  C90      1.0000 0.81421  0.02460  0.74642  Biso   1.000  C
  C91      1.0000 0.81421  0.47540  0.24642  Biso   1.000  C
  C92      1.0000 0.18579  0.97540  0.25358  Biso   1.000  C
  H105     1.0000 0.22540  0.60290  0.76890  Biso   1.000  H
  H106     1.0000 0.77460  0.10290  0.73110  Biso   1.000  H
  H107     1.0000 0.77460  0.39710  0.23110  Biso   1.000  H
  H108     1.0000 0.22540  0.89710  0.26890  Biso   1.000  H
  H109     1.0000 0.14150  0.58170  0.76000  Biso   1.000  H
  H110     1.0000 0.85850  0.08170  0.74000  Biso   1.000  H
  H111     1.0000 0.85850  0.41830  0.24000  Biso   1.000  H
  H112     1.0000 0.14150  0.91830  0.26000  Biso   1.000  H
  C93      1.0000 0.19521  0.36810  0.79787  Biso   1.000  C
  C94      1.0000 0.80479  0.86810  0.70213  Biso   1.000  C
  C95      1.0000 0.80479  0.63190  0.20213  Biso   1.000  C
  C96      1.0000 0.19521  0.13190  0.29787  Biso   1.000  C
  H113     1.0000 0.20000  0.40150  0.84670  Biso   1.000  H
  H114     1.0000 0.80000  0.90150  0.65330  Biso   1.000  H
  H115     1.0000 0.80000  0.59850  0.15330  Biso   1.000  H
  H116     1.0000 0.20000  0.09850  0.34670  Biso   1.000  H
  H117     1.0000 0.15250  0.29710  0.78700  Biso   1.000  H
  H118     1.0000 0.84750  0.79710  0.71300  Biso   1.000  H
  H119     1.0000 0.84750  0.70290  0.21300  Biso   1.000  H
  H120     1.0000 0.15250  0.20290  0.28700  Biso   1.000  H
  Cl1      1.0000 0.41970  0.97300  0.28405  Biso   1.000  Cl
  Cl2      1.0000 0.58030  0.47300  0.21595  Biso   1.000  Cl
  Cl3      1.0000 0.58030  0.02700  0.71595  Biso   1.000  Cl
  Cl4      1.0000 0.41970  0.52700  0.78405  Biso   1.000  Cl
  O25      1.0000 0.46384  0.05970  0.33780  Biso   1.000  O
  O26      1.0000 0.53616  0.55970  0.16220  Biso   1.000  O
  O27      1.0000 0.53616  0.94030  0.66220  Biso   1.000  O
  O28      1.0000 0.46384  0.44030  0.83780  Biso   1.000  O
  O29      1.0000 0.37471  0.09110  0.24307  Biso   1.000  O
  O30      1.0000 0.62529  0.59110  0.25693  Biso   1.000  O
  O31      1.0000 0.62529  0.90890  0.75693  Biso   1.000  O
  O32      1.0000 0.37471  0.40890  0.74307  Biso   1.000  O
  O33      1.0000 0.46273  0.88550  0.24259  Biso   1.000  O
  O34      1.0000 0.53727  0.38550  0.25741  Biso   1.000  O
  O35      1.0000 0.53727  0.11450  0.75741  Biso   1.000  O
  O36      1.0000 0.46273  0.61450  0.74259  Biso   1.000  O
  O37      1.0000 0.37739  0.85380  0.31313  Biso   1.000  O
  O38      1.0000 0.62261  0.35380  0.18687  Biso   1.000  O
  O39      1.0000 0.62261  0.14620  0.68687  Biso   1.000  O
  O40      1.0000 0.37739  0.64620  0.81313  Biso   1.000  O
  Cl5      1.0000 0.09433  0.17910  0.48647  Biso   1.000  Cl
  Cl6      1.0000 0.90567  0.67910  0.01353  Biso   1.000  Cl
  Cl7      1.0000 0.90567  0.82090  0.51353  Biso   1.000  Cl
  Cl8      1.0000 0.09433  0.32090  0.98647  Biso   1.000  Cl
  O41      1.0000 0.08993  0.00150  0.47479  Biso   1.000  O
  O42      1.0000 0.91007  0.50150  0.02521  Biso   1.000  O
  O43      1.0000 0.91007  0.99850  0.52521  Biso   1.000  O
  O44      1.0000 0.08993  0.49850  0.97479  Biso   1.000  O
  O45      1.0000 0.09878  0.21780  0.55737  Biso   1.000  O
  O46      1.0000 0.90122  0.71780  0.94263  Biso   1.000  O
  O47      1.0000 0.90122  0.78220  0.44263  Biso   1.000  O
  O48      1.0000 0.09878  0.28220  0.05737  Biso   1.000  O
  O49      1.0000 0.03175  0.25900  0.44941  Biso   1.000  O
  O50      1.0000 0.96825  0.75900  0.05059  Biso   1.000  O
  O51      1.0000 0.96825  0.74100  0.55059  Biso   1.000  O
  O52      1.0000 0.03175  0.24100  0.94941  Biso   1.000  O
  O53      1.0000 0.15514  0.24220  0.46092  Biso   1.000  O
  O54      1.0000 0.84486  0.74220  0.03908  Biso   1.000  O
  O55      1.0000 0.84486  0.75780  0.53908  Biso   1.000  O
  O56      1.0000 0.15514  0.25780  0.96092  Biso   1.000  O
