data_image0
_cell_length_a       10.9098
_cell_length_b       19.5471
_cell_length_c       7.6918
_cell_angle_alpha    90
_cell_angle_beta     100.069
_cell_angle_gamma    90

_symmetry_space_group_name_H-M    "P 1"
_symmetry_int_tables_number       1

loop_
  _symmetry_equiv_pos_as_xyz
  'x, y, z'

loop_
  _atom_site_label
  _atom_site_occupancy
  _atom_site_fract_x
  _atom_site_fract_y
  _atom_site_fract_z
  _atom_site_thermal_displace_type
  _atom_site_B_iso_or_equiv
  _atom_site_type_symbol
  Cu1      1.0000 0.40547  0.04721  0.39940  Biso   1.000  Cu
  Cu2      1.0000 0.59453  0.54721  0.10060  Biso   1.000  Cu
  Cu3      1.0000 0.59453  0.95279  0.60060  Biso   1.000  Cu
  Cu4      1.0000 0.40547  0.45279  0.89940  Biso   1.000  Cu
  O1       1.0000 0.58490  0.04192  0.47540  Biso   1.000  O
  O2       1.0000 0.41510  0.54192  0.02460  Biso   1.000  O
  O3       1.0000 0.41510  0.95808  0.52460  Biso   1.000  O
  O4       1.0000 0.58490  0.45808  0.97540  Biso   1.000  O
  O5       1.0000 0.22700  0.06580  0.32200  Biso   1.000  O
  O6       1.0000 0.77300  0.56580  0.17800  Biso   1.000  O
  O7       1.0000 0.77300  0.93420  0.67800  Biso   1.000  O
  O8       1.0000 0.22700  0.43420  0.82200  Biso   1.000  O
  O9       1.0000 0.57280  0.01135  0.85920  Biso   1.000  O
  O10      1.0000 0.42720  0.51135  0.64080  Biso   1.000  O
  O11      1.0000 0.42720  0.98865  0.14080  Biso   1.000  O
  O12      1.0000 0.57280  0.48865  0.35920  Biso   1.000  O
  N1       1.0000 0.41750  0.14092  0.32330  Biso   1.000  N
  N2       1.0000 0.58250  0.64092  0.17670  Biso   1.000  N
  N3       1.0000 0.58250  0.85908  0.67670  Biso   1.000  N
  N4       1.0000 0.41750  0.35908  0.82330  Biso   1.000  N
  N5       1.0000 0.30150  0.16689  0.25130  Biso   1.000  N
  N6       1.0000 0.69850  0.66689  0.24870  Biso   1.000  N
  N7       1.0000 0.69850  0.83311  0.74870  Biso   1.000  N
  N8       1.0000 0.30150  0.33311  0.75130  Biso   1.000  N
  C1       1.0000 0.67010  0.09240  0.47850  Biso   1.000  C
  C2       1.0000 0.32990  0.59240  0.02150  Biso   1.000  C
  C3       1.0000 0.32990  0.90760  0.52150  Biso   1.000  C
  C4       1.0000 0.67010  0.40760  0.97850  Biso   1.000  C
  C5       1.0000 0.79550  0.07840  0.54230  Biso   1.000  C
  C6       1.0000 0.20450  0.57840  0.95770  Biso   1.000  C
  C7       1.0000 0.20450  0.92160  0.45770  Biso   1.000  C
  C8       1.0000 0.79550  0.42160  0.04230  Biso   1.000  C
  H1       1.0000 0.82080  0.03300  0.57460  Biso   1.000  H
  H2       1.0000 0.17920  0.53300  0.92540  Biso   1.000  H
  H3       1.0000 0.17920  0.96700  0.42540  Biso   1.000  H
  H4       1.0000 0.82080  0.46700  0.07460  Biso   1.000  H
  C9       1.0000 0.88310  0.13020  0.55850  Biso   1.000  C
  C10      1.0000 0.11690  0.63020  0.94150  Biso   1.000  C
  C11      1.0000 0.11690  0.86980  0.44150  Biso   1.000  C
  C12      1.0000 0.88310  0.36980  0.05850  Biso   1.000  C
  H5       1.0000 0.96740  0.11990  0.60620  Biso   1.000  H
  H6       1.0000 0.03260  0.61990  0.89380  Biso   1.000  H
  H7       1.0000 0.03260  0.88010  0.39380  Biso   1.000  H
  H8       1.0000 0.96740  0.38010  0.10620  Biso   1.000  H
  C13      1.0000 0.85130  0.19630  0.50740  Biso   1.000  C
  C14      1.0000 0.14870  0.69630  0.99260  Biso   1.000  C
  C15      1.0000 0.14870  0.80370  0.49260  Biso   1.000  C
  C16      1.0000 0.85130  0.30370  0.00740  Biso   1.000  C
  H9       1.0000 0.91230  0.23150  0.52180  Biso   1.000  H
  H10      1.0000 0.08770  0.73150  0.97820  Biso   1.000  H
  H11      1.0000 0.08770  0.76850  0.47820  Biso   1.000  H
  H12      1.0000 0.91230  0.26850  0.02180  Biso   1.000  H
  C17      1.0000 0.72930  0.21040  0.43500  Biso   1.000  C
  C18      1.0000 0.27070  0.71040  0.06500  Biso   1.000  C
  C19      1.0000 0.27070  0.78960  0.56500  Biso   1.000  C
  C20      1.0000 0.72930  0.28960  0.93500  Biso   1.000  C
  H13      1.0000 0.70700  0.25560  0.39620  Biso   1.000  H
  H14      1.0000 0.29300  0.75560  0.10380  Biso   1.000  H
  H15      1.0000 0.29300  0.74440  0.60380  Biso   1.000  H
  H16      1.0000 0.70700  0.24440  0.89620  Biso   1.000  H
  C21      1.0000 0.63690  0.15920  0.41740  Biso   1.000  C
  C22      1.0000 0.36310  0.65920  0.08260  Biso   1.000  C
  C23      1.0000 0.36310  0.84080  0.58260  Biso   1.000  C
  C24      1.0000 0.63690  0.34080  0.91740  Biso   1.000  C
  C25      1.0000 0.51220  0.18050  0.33930  Biso   1.000  C
  C26      1.0000 0.48780  0.68050  0.16070  Biso   1.000  C
  C27      1.0000 0.48780  0.81950  0.66070  Biso   1.000  C
  C28      1.0000 0.51220  0.31950  0.83930  Biso   1.000  C
  H17      1.0000 0.50010  0.22620  0.29780  Biso   1.000  H
  H18      1.0000 0.49990  0.72620  0.20220  Biso   1.000  H
  H19      1.0000 0.49990  0.77380  0.70220  Biso   1.000  H
  H20      1.0000 0.50010  0.27380  0.79780  Biso   1.000  H
  C29      1.0000 0.20710  0.12420  0.25760  Biso   1.000  C
  C30      1.0000 0.79290  0.62420  0.24240  Biso   1.000  C
  C31      1.0000 0.79290  0.87580  0.74240  Biso   1.000  C
  C32      1.0000 0.20710  0.37580  0.75760  Biso   1.000  C
  C33      1.0000 0.07770  0.14940  0.19070  Biso   1.000  C
  C34      1.0000 0.92230  0.64940  0.30930  Biso   1.000  C
  C35      1.0000 0.92230  0.85060  0.80930  Biso   1.000  C
  C36      1.0000 0.07770  0.35060  0.69070  Biso   1.000  C
  H21      1.0000 0.07890  0.18090  0.09040  Biso   1.000  H
  H22      1.0000 0.92110  0.68090  0.40960  Biso   1.000  H
  H23      1.0000 0.92110  0.81910  0.90960  Biso   1.000  H
  H24      1.0000 0.07890  0.31910  0.59040  Biso   1.000  H
  H25      1.0000 0.04720  0.17510  0.28540  Biso   1.000  H
  H26      1.0000 0.95280  0.67510  0.21460  Biso   1.000  H
  H27      1.0000 0.95280  0.82490  0.71460  Biso   1.000  H
  H28      1.0000 0.04720  0.32490  0.78540  Biso   1.000  H
  C37      1.0000 0.98880  0.08980  0.13050  Biso   1.000  C
  C38      1.0000 0.01120  0.58980  0.36950  Biso   1.000  C
  C39      1.0000 0.01120  0.91020  0.86950  Biso   1.000  C
  C40      1.0000 0.98880  0.41020  0.63050  Biso   1.000  C
  H29      1.0000 0.02090  0.06360  0.03770  Biso   1.000  H
  H30      1.0000 0.97910  0.56360  0.46230  Biso   1.000  H
  H31      1.0000 0.97910  0.93640  0.96230  Biso   1.000  H
  H32      1.0000 0.02090  0.43640  0.53770  Biso   1.000  H
  H33      1.0000 0.98750  0.05860  0.23170  Biso   1.000  H
  H34      1.0000 0.01250  0.55860  0.26830  Biso   1.000  H
  H35      1.0000 0.01250  0.94140  0.76830  Biso   1.000  H
  H36      1.0000 0.98750  0.44140  0.73170  Biso   1.000  H
  C41      1.0000 0.85620  0.11290  0.05870  Biso   1.000  C
  C42      1.0000 0.14380  0.61290  0.44130  Biso   1.000  C
  C43      1.0000 0.14380  0.88710  0.94130  Biso   1.000  C
  C44      1.0000 0.85620  0.38710  0.55870  Biso   1.000  C
  H37      1.0000 0.85620  0.14300  0.95510  Biso   1.000  H
  H38      1.0000 0.14380  0.64300  0.54490  Biso   1.000  H
  H39      1.0000 0.14380  0.85700  0.04490  Biso   1.000  H
  H40      1.0000 0.85620  0.35700  0.45510  Biso   1.000  H
  H41      1.0000 0.82350  0.13940  0.15020  Biso   1.000  H
  H42      1.0000 0.17650  0.63940  0.34980  Biso   1.000  H
  H43      1.0000 0.17650  0.86060  0.84980  Biso   1.000  H
  H44      1.0000 0.82350  0.36060  0.65020  Biso   1.000  H
  C45      1.0000 0.77230  0.05110  0.00460  Biso   1.000  C
  C46      1.0000 0.22770  0.55110  0.49540  Biso   1.000  C
  C47      1.0000 0.22770  0.94890  0.99540  Biso   1.000  C
  C48      1.0000 0.77230  0.44890  0.50460  Biso   1.000  C
  H45      1.0000 0.80660  0.02420  0.91510  Biso   1.000  H
  H46      1.0000 0.19340  0.52420  0.58490  Biso   1.000  H
  H47      1.0000 0.19340  0.97580  0.08490  Biso   1.000  H
  H48      1.0000 0.80660  0.47580  0.41510  Biso   1.000  H
  H49      1.0000 0.77240  0.02140  0.10890  Biso   1.000  H
  H50      1.0000 0.22760  0.52140  0.39110  Biso   1.000  H
  H51      1.0000 0.22760  0.97860  0.89110  Biso   1.000  H
  H52      1.0000 0.77240  0.47860  0.60890  Biso   1.000  H
  C49      1.0000 0.64040  0.07120  0.93020  Biso   1.000  C
  C50      1.0000 0.35960  0.57120  0.56980  Biso   1.000  C
  C51      1.0000 0.35960  0.92880  0.06980  Biso   1.000  C
  C52      1.0000 0.64040  0.42880  0.43020  Biso   1.000  C
  H53      1.0000 0.60040  0.09150  0.02430  Biso   1.000  H
  H54      1.0000 0.39960  0.59150  0.47570  Biso   1.000  H
  H55      1.0000 0.39960  0.90850  0.97570  Biso   1.000  H
  H56      1.0000 0.60040  0.40850  0.52430  Biso   1.000  H
  H57      1.0000 0.63980  0.10580  0.83610  Biso   1.000  H
  H58      1.0000 0.36020  0.60580  0.66390  Biso   1.000  H
  H59      1.0000 0.36020  0.89420  0.16390  Biso   1.000  H
  H60      1.0000 0.63980  0.39420  0.33610  Biso   1.000  H
  Cl1      1.0000 0.29406  0.14634  0.77074  Biso   1.000  Cl
  Cl2      1.0000 0.70594  0.64634  0.72926  Biso   1.000  Cl
  Cl3      1.0000 0.70594  0.85366  0.22926  Biso   1.000  Cl
  Cl4      1.0000 0.29406  0.35366  0.27074  Biso   1.000  Cl
  O13      1.0000 0.18610  0.12780  0.84090  Biso   1.000  O
  O14      1.0000 0.81390  0.62780  0.65910  Biso   1.000  O
  O15      1.0000 0.81390  0.87220  0.15910  Biso   1.000  O
  O16      1.0000 0.18610  0.37220  0.34090  Biso   1.000  O
  O17      1.0000 0.34820  0.08615  0.70510  Biso   1.000  O
  O18      1.0000 0.65180  0.58615  0.79490  Biso   1.000  O
  O19      1.0000 0.65180  0.91385  0.29490  Biso   1.000  O
  O20      1.0000 0.34820  0.41385  0.20510  Biso   1.000  O
  O21      1.0000 0.38390  0.17823  0.90570  Biso   1.000  O
  O22      1.0000 0.61610  0.67823  0.59430  Biso   1.000  O
  O23      1.0000 0.61610  0.82177  0.09430  Biso   1.000  O
  O24      1.0000 0.38390  0.32177  0.40570  Biso   1.000  O
  O25      1.0000 0.26010  0.19403  0.62510  Biso   1.000  O
  O26      1.0000 0.73990  0.69403  0.87490  Biso   1.000  O
  O27      1.0000 0.73990  0.80597  0.37490  Biso   1.000  O
  O28      1.0000 0.26010  0.30597  0.12510  Biso   1.000  O
  H61      1.0000 0.29100  0.20200  0.19600  Biso   1.000  H
  H62      1.0000 0.70900  0.70200  0.30400  Biso   1.000  H
  H63      1.0000 0.70900  0.79800  0.80400  Biso   1.000  H
  H64      1.0000 0.29100  0.29800  0.69600  Biso   1.000  H
  H65      1.0000 0.51200  0.02000  0.84900  Biso   1.000  H
  H66      1.0000 0.48800  0.52000  0.65100  Biso   1.000  H
  H67      1.0000 0.48800  0.98000  0.15100  Biso   1.000  H
  H68      1.0000 0.51200  0.48000  0.34900  Biso   1.000  H
