data_image0
_cell_length_a       14.942
_cell_length_b       9.151
_cell_length_c       18.373
_cell_angle_alpha    90
_cell_angle_beta     90
_cell_angle_gamma    90

_symmetry_space_group_name_H-M    "P 1"
_symmetry_int_tables_number       1

loop_
  _symmetry_equiv_pos_as_xyz
  'x, y, z'

loop_
  _atom_site_label
  _atom_site_occupancy
  _atom_site_fract_x
  _atom_site_fract_y
  _atom_site_fract_z
  _atom_site_thermal_displace_type
  _atom_site_B_iso_or_equiv
  _atom_site_type_symbol
  Cu1      1.0000 0.78731  0.19243  0.54252  Biso   1.000  Cu
  Cu2      1.0000 0.71269  0.80757  0.04252  Biso   1.000  Cu
  Cu3      1.0000 0.21269  0.69243  0.95748  Biso   1.000  Cu
  Cu4      1.0000 0.28730  0.30757  0.45748  Biso   1.000  Cu
  Cu5      1.0000 0.21269  0.80757  0.45748  Biso   1.000  Cu
  Cu6      1.0000 0.28730  0.19243  0.95748  Biso   1.000  Cu
  Cu7      1.0000 0.78731  0.30757  0.04252  Biso   1.000  Cu
  Cu8      1.0000 0.71269  0.69243  0.54252  Biso   1.000  Cu
  O1       1.0000 0.88259  0.24388  0.48020  Biso   1.000  O
  O2       1.0000 0.61741  0.75612  0.98020  Biso   1.000  O
  O3       1.0000 0.11741  0.74388  0.01980  Biso   1.000  O
  O4       1.0000 0.38259  0.25612  0.51980  Biso   1.000  O
  O5       1.0000 0.11741  0.75612  0.51980  Biso   1.000  O
  O6       1.0000 0.38259  0.24388  0.01980  Biso   1.000  O
  O7       1.0000 0.88259  0.25612  0.98020  Biso   1.000  O
  O8       1.0000 0.61741  0.74388  0.48020  Biso   1.000  O
  O9       1.0000 0.69964  0.12287  0.61189  Biso   1.000  O
  O10      1.0000 0.80036  0.87713  0.11189  Biso   1.000  O
  O11      1.0000 0.30036  0.62287  0.88811  Biso   1.000  O
  O12      1.0000 0.19964  0.37713  0.38811  Biso   1.000  O
  O13      1.0000 0.30036  0.87713  0.38811  Biso   1.000  O
  O14      1.0000 0.19964  0.12287  0.88811  Biso   1.000  O
  O15      1.0000 0.69964  0.37713  0.11189  Biso   1.000  O
  O16      1.0000 0.80036  0.62287  0.61189  Biso   1.000  O
  N1       1.0000 0.79710  0.98620  0.52289  Biso   1.000  N
  N2       1.0000 0.70290  0.01380  0.02289  Biso   1.000  N
  N3       1.0000 0.20290  0.48620  0.97711  Biso   1.000  N
  N4       1.0000 0.29710  0.51380  0.47711  Biso   1.000  N
  N5       1.0000 0.20290  0.01380  0.47711  Biso   1.000  N
  N6       1.0000 0.29710  0.98620  0.97711  Biso   1.000  N
  N7       1.0000 0.79710  0.51380  0.02289  Biso   1.000  N
  N8       1.0000 0.70290  0.48620  0.52289  Biso   1.000  N
  N9       1.0000 0.73693  0.90120  0.56312  Biso   1.000  N
  N10      1.0000 0.76307  0.09880  0.06312  Biso   1.000  N
  N11      1.0000 0.26307  0.40120  0.93688  Biso   1.000  N
  N12      1.0000 0.23693  0.59880  0.43688  Biso   1.000  N
  N13      1.0000 0.26307  0.09880  0.43688  Biso   1.000  N
  N14      1.0000 0.23693  0.90120  0.93688  Biso   1.000  N
  N15      1.0000 0.73693  0.59880  0.06312  Biso   1.000  N
  N16      1.0000 0.76307  0.40120  0.56312  Biso   1.000  N
  C1       1.0000 0.92961  0.15390  0.43873  Biso   1.000  C
  C2       1.0000 0.57039  0.84610  0.93873  Biso   1.000  C
  C3       1.0000 0.07039  0.65390  0.06127  Biso   1.000  C
  C4       1.0000 0.42961  0.34610  0.56127  Biso   1.000  C
  C5       1.0000 0.07039  0.84610  0.56127  Biso   1.000  C
  C6       1.0000 0.42961  0.15390  0.06127  Biso   1.000  C
  C7       1.0000 0.92961  0.34610  0.93873  Biso   1.000  C
  C8       1.0000 0.57039  0.65390  0.43873  Biso   1.000  C
  C9       1.0000 0.99825  0.21390  0.39517  Biso   1.000  C
  C10      1.0000 0.50175  0.78610  0.89517  Biso   1.000  C
  C11      1.0000 0.00175  0.71390  0.10483  Biso   1.000  C
  C12      1.0000 0.49825  0.28610  0.60483  Biso   1.000  C
  C13      1.0000 0.00175  0.78610  0.60483  Biso   1.000  C
  C14      1.0000 0.49825  0.21390  0.10483  Biso   1.000  C
  C15      1.0000 0.99825  0.28610  0.89517  Biso   1.000  C
  C16      1.0000 0.50175  0.71390  0.39517  Biso   1.000  C
  H1       1.0000 0.01050  0.31560  0.39820  Biso   1.000  H
  H2       1.0000 0.48950  0.68440  0.89820  Biso   1.000  H
  H3       1.0000 0.98950  0.81560  0.10180  Biso   1.000  H
  H4       1.0000 0.51050  0.18440  0.60180  Biso   1.000  H
  H5       1.0000 0.98950  0.68440  0.60180  Biso   1.000  H
  H6       1.0000 0.51050  0.31560  0.10180  Biso   1.000  H
  H7       1.0000 0.01050  0.18440  0.89820  Biso   1.000  H
  H8       1.0000 0.48950  0.81560  0.39820  Biso   1.000  H
  C17      1.0000 0.04799  0.12860  0.34839  Biso   1.000  C
  C18      1.0000 0.45201  0.87140  0.84839  Biso   1.000  C
  C19      1.0000 0.95201  0.62860  0.15161  Biso   1.000  C
  C20      1.0000 0.54799  0.37140  0.65161  Biso   1.000  C
  C21      1.0000 0.95201  0.87140  0.65161  Biso   1.000  C
  C22      1.0000 0.54799  0.12860  0.15161  Biso   1.000  C
  C23      1.0000 0.04799  0.37140  0.84839  Biso   1.000  C
  C24      1.0000 0.45201  0.62860  0.34839  Biso   1.000  C
  H9       1.0000 0.09290  0.17240  0.31900  Biso   1.000  H
  H10      1.0000 0.40710  0.82760  0.81900  Biso   1.000  H
  H11      1.0000 0.90710  0.67240  0.18100  Biso   1.000  H
  H12      1.0000 0.59290  0.32760  0.68100  Biso   1.000  H
  H13      1.0000 0.90710  0.82760  0.68100  Biso   1.000  H
  H14      1.0000 0.59290  0.17240  0.18100  Biso   1.000  H
  H15      1.0000 0.09290  0.32760  0.81900  Biso   1.000  H
  H16      1.0000 0.40710  0.67240  0.31900  Biso   1.000  H
  C25      1.0000 0.03290  0.97850  0.34397  Biso   1.000  C
  C26      1.0000 0.46710  0.02150  0.84397  Biso   1.000  C
  C27      1.0000 0.96710  0.47850  0.15603  Biso   1.000  C
  C28      1.0000 0.53290  0.52150  0.65603  Biso   1.000  C
  C29      1.0000 0.96710  0.02150  0.65603  Biso   1.000  C
  C30      1.0000 0.53290  0.97850  0.15603  Biso   1.000  C
  C31      1.0000 0.03290  0.52150  0.84397  Biso   1.000  C
  C32      1.0000 0.46710  0.47850  0.34397  Biso   1.000  C
  H17      1.0000 0.06650  0.92030  0.31100  Biso   1.000  H
  H18      1.0000 0.43350  0.07970  0.81100  Biso   1.000  H
  H19      1.0000 0.93350  0.42030  0.18900  Biso   1.000  H
  H20      1.0000 0.56650  0.57970  0.68900  Biso   1.000  H
  H21      1.0000 0.93350  0.07970  0.68900  Biso   1.000  H
  H22      1.0000 0.56650  0.92030  0.18900  Biso   1.000  H
  H23      1.0000 0.06650  0.57970  0.81100  Biso   1.000  H
  H24      1.0000 0.43350  0.42030  0.31100  Biso   1.000  H
  C33      1.0000 0.96907  0.91550  0.38770  Biso   1.000  C
  C34      1.0000 0.53093  0.08450  0.88770  Biso   1.000  C
  C35      1.0000 0.03093  0.41550  0.11230  Biso   1.000  C
  C36      1.0000 0.46907  0.58450  0.61230  Biso   1.000  C
  C37      1.0000 0.03093  0.08450  0.61230  Biso   1.000  C
  C38      1.0000 0.46907  0.91550  0.11230  Biso   1.000  C
  C39      1.0000 0.96907  0.58450  0.88770  Biso   1.000  C
  C40      1.0000 0.53093  0.41550  0.38770  Biso   1.000  C
  H25      1.0000 0.96040  0.81270  0.38590  Biso   1.000  H
  H26      1.0000 0.53960  0.18730  0.88590  Biso   1.000  H
  H27      1.0000 0.03960  0.31270  0.11410  Biso   1.000  H
  H28      1.0000 0.46040  0.68730  0.61410  Biso   1.000  H
  H29      1.0000 0.03960  0.18730  0.61410  Biso   1.000  H
  H30      1.0000 0.46040  0.81270  0.11410  Biso   1.000  H
  H31      1.0000 0.96040  0.68730  0.88590  Biso   1.000  H
  H32      1.0000 0.53960  0.31270  0.38590  Biso   1.000  H
  C41      1.0000 0.91628  0.00020  0.43510  Biso   1.000  C
  C42      1.0000 0.58372  0.99980  0.93510  Biso   1.000  C
  C43      1.0000 0.08372  0.50020  0.06490  Biso   1.000  C
  C44      1.0000 0.41628  0.49980  0.56490  Biso   1.000  C
  C45      1.0000 0.08372  0.99980  0.56490  Biso   1.000  C
  C46      1.0000 0.41628  0.00020  0.06490  Biso   1.000  C
  C47      1.0000 0.91628  0.49980  0.93510  Biso   1.000  C
  C48      1.0000 0.58372  0.50020  0.43510  Biso   1.000  C
  C49      1.0000 0.85172  0.92280  0.47897  Biso   1.000  C
  C50      1.0000 0.64828  0.07720  0.97897  Biso   1.000  C
  C51      1.0000 0.14828  0.42280  0.02103  Biso   1.000  C
  C52      1.0000 0.35172  0.57720  0.52103  Biso   1.000  C
  C53      1.0000 0.14828  0.07720  0.52103  Biso   1.000  C
  C54      1.0000 0.35172  0.92280  0.02103  Biso   1.000  C
  C55      1.0000 0.85172  0.57720  0.97897  Biso   1.000  C
  C56      1.0000 0.64828  0.42280  0.47897  Biso   1.000  C
  H33      1.0000 0.84940  0.81940  0.47520  Biso   1.000  H
  H34      1.0000 0.65060  0.18060  0.97520  Biso   1.000  H
  H35      1.0000 0.15060  0.31940  0.02480  Biso   1.000  H
  H36      1.0000 0.34940  0.68060  0.52480  Biso   1.000  H
  H37      1.0000 0.15060  0.18060  0.52480  Biso   1.000  H
  H38      1.0000 0.34940  0.81940  0.02480  Biso   1.000  H
  H39      1.0000 0.84940  0.68060  0.97520  Biso   1.000  H
  H40      1.0000 0.65060  0.31940  0.47520  Biso   1.000  H
  C57      1.0000 0.69023  0.98390  0.60817  Biso   1.000  C
  C58      1.0000 0.80977  0.01610  0.10817  Biso   1.000  C
  C59      1.0000 0.30977  0.48390  0.89183  Biso   1.000  C
  C60      1.0000 0.19023  0.51610  0.39183  Biso   1.000  C
  C61      1.0000 0.30977  0.01610  0.39183  Biso   1.000  C
  C62      1.0000 0.19023  0.98390  0.89183  Biso   1.000  C
  C63      1.0000 0.69023  0.51610  0.10817  Biso   1.000  C
  C64      1.0000 0.80977  0.48390  0.60817  Biso   1.000  C
  C65      1.0000 0.62576  0.91090  0.65950  Biso   1.000  C
  C66      1.0000 0.87424  0.08910  0.15950  Biso   1.000  C
  C67      1.0000 0.37424  0.41090  0.84050  Biso   1.000  C
  C68      1.0000 0.12576  0.58910  0.34050  Biso   1.000  C
  C69      1.0000 0.37424  0.08910  0.34050  Biso   1.000  C
  C70      1.0000 0.12576  0.91090  0.84050  Biso   1.000  C
  C71      1.0000 0.62576  0.58910  0.15950  Biso   1.000  C
  C72      1.0000 0.87424  0.41090  0.65950  Biso   1.000  C
  H41      1.0000 0.59310  0.83290  0.63320  Biso   1.000  H
  H42      1.0000 0.90690  0.16710  0.13320  Biso   1.000  H
  H43      1.0000 0.40690  0.33290  0.86680  Biso   1.000  H
  H44      1.0000 0.09310  0.66710  0.36680  Biso   1.000  H
  H45      1.0000 0.40690  0.16710  0.36680  Biso   1.000  H
  H46      1.0000 0.09310  0.83290  0.86680  Biso   1.000  H
  H47      1.0000 0.59310  0.66710  0.13320  Biso   1.000  H
  H48      1.0000 0.90690  0.33290  0.63320  Biso   1.000  H
  H49      1.0000 0.58140  0.98340  0.67670  Biso   1.000  H
  H50      1.0000 0.91860  0.01660  0.17670  Biso   1.000  H
  H51      1.0000 0.41860  0.48340  0.82330  Biso   1.000  H
  H52      1.0000 0.08140  0.51660  0.32330  Biso   1.000  H
  H53      1.0000 0.41860  0.01660  0.32330  Biso   1.000  H
  H54      1.0000 0.08140  0.98340  0.82330  Biso   1.000  H
  H55      1.0000 0.58140  0.51660  0.17670  Biso   1.000  H
  H56      1.0000 0.91860  0.48340  0.67670  Biso   1.000  H
  C73      1.0000 0.67450  0.84400  0.72564  Biso   1.000  C
  C74      1.0000 0.82550  0.15600  0.22564  Biso   1.000  C
  C75      1.0000 0.32550  0.34400  0.77436  Biso   1.000  C
  C76      1.0000 0.17450  0.65600  0.27436  Biso   1.000  C
  C77      1.0000 0.32550  0.15600  0.27436  Biso   1.000  C
  C78      1.0000 0.17450  0.84400  0.77436  Biso   1.000  C
  C79      1.0000 0.67450  0.65600  0.22564  Biso   1.000  C
  C80      1.0000 0.82550  0.34400  0.72564  Biso   1.000  C
  H57      1.0000 0.62930  0.80540  0.76010  Biso   1.000  H
  H58      1.0000 0.87070  0.19460  0.26010  Biso   1.000  H
  H59      1.0000 0.37070  0.30540  0.73990  Biso   1.000  H
  H60      1.0000 0.12930  0.69460  0.23990  Biso   1.000  H
  H61      1.0000 0.37070  0.19460  0.23990  Biso   1.000  H
  H62      1.0000 0.12930  0.80540  0.73990  Biso   1.000  H
  H63      1.0000 0.62930  0.69460  0.26010  Biso   1.000  H
  H64      1.0000 0.87070  0.30540  0.76010  Biso   1.000  H
  H65      1.0000 0.71140  0.76060  0.70880  Biso   1.000  H
  H66      1.0000 0.78860  0.23940  0.20880  Biso   1.000  H
  H67      1.0000 0.28860  0.26060  0.79120  Biso   1.000  H
  H68      1.0000 0.21140  0.73940  0.29120  Biso   1.000  H
  H69      1.0000 0.28860  0.23940  0.29120  Biso   1.000  H
  H70      1.0000 0.21140  0.76060  0.79120  Biso   1.000  H
  H71      1.0000 0.71140  0.73940  0.20880  Biso   1.000  H
  H72      1.0000 0.78860  0.26060  0.70880  Biso   1.000  H
  C81      1.0000 0.73365  0.95010  0.76525  Biso   1.000  C
  C82      1.0000 0.76635  0.04990  0.26525  Biso   1.000  C
  C83      1.0000 0.26635  0.45010  0.73475  Biso   1.000  C
  C84      1.0000 0.23365  0.54990  0.23475  Biso   1.000  C
  C85      1.0000 0.26635  0.04990  0.23475  Biso   1.000  C
  C86      1.0000 0.23365  0.95010  0.73475  Biso   1.000  C
  C87      1.0000 0.73365  0.54990  0.26525  Biso   1.000  C
  C88      1.0000 0.76635  0.45010  0.76525  Biso   1.000  C
  H73      1.0000 0.69670  0.03440  0.78070  Biso   1.000  H
  H74      1.0000 0.80330  0.96560  0.28070  Biso   1.000  H
  H75      1.0000 0.30330  0.53440  0.71930  Biso   1.000  H
  H76      1.0000 0.19670  0.46560  0.21930  Biso   1.000  H
  H77      1.0000 0.30330  0.96560  0.21930  Biso   1.000  H
  H78      1.0000 0.19670  0.03440  0.71930  Biso   1.000  H
  H79      1.0000 0.69670  0.46560  0.28070  Biso   1.000  H
  H80      1.0000 0.80330  0.53440  0.78070  Biso   1.000  H
  H81      1.0000 0.77910  0.98730  0.73070  Biso   1.000  H
  H82      1.0000 0.72090  0.01270  0.23070  Biso   1.000  H
  H83      1.0000 0.22090  0.48730  0.76930  Biso   1.000  H
  H84      1.0000 0.27910  0.51270  0.26930  Biso   1.000  H
  H85      1.0000 0.22090  0.01270  0.26930  Biso   1.000  H
  H86      1.0000 0.27910  0.98730  0.76930  Biso   1.000  H
  H87      1.0000 0.77910  0.51270  0.23070  Biso   1.000  H
  H88      1.0000 0.72090  0.48730  0.73070  Biso   1.000  H
  C89      1.0000 0.78160  0.89070  0.83137  Biso   1.000  C
  C90      1.0000 0.71840  0.10930  0.33137  Biso   1.000  C
  C91      1.0000 0.21840  0.39070  0.66863  Biso   1.000  C
  C92      1.0000 0.28160  0.60930  0.16863  Biso   1.000  C
  C93      1.0000 0.21840  0.10930  0.16863  Biso   1.000  C
  C94      1.0000 0.28160  0.89070  0.66863  Biso   1.000  C
  C95      1.0000 0.78160  0.60930  0.33137  Biso   1.000  C
  C96      1.0000 0.71840  0.39070  0.83137  Biso   1.000  C
  H89      1.0000 0.73670  0.85890  0.86770  Biso   1.000  H
  H90      1.0000 0.76330  0.14110  0.36770  Biso   1.000  H
  H91      1.0000 0.26330  0.35890  0.63230  Biso   1.000  H
  H92      1.0000 0.23670  0.64110  0.13230  Biso   1.000  H
  H93      1.0000 0.26330  0.14110  0.13230  Biso   1.000  H
  H94      1.0000 0.23670  0.85890  0.63230  Biso   1.000  H
  H95      1.0000 0.73670  0.64110  0.36770  Biso   1.000  H
  H96      1.0000 0.76330  0.35890  0.86770  Biso   1.000  H
  H97      1.0000 0.81690  0.80380  0.81690  Biso   1.000  H
  H98      1.0000 0.68310  0.19620  0.31690  Biso   1.000  H
  H99      1.0000 0.18310  0.30380  0.68310  Biso   1.000  H
  H100     1.0000 0.31690  0.69620  0.18310  Biso   1.000  H
  H101     1.0000 0.18310  0.19620  0.18310  Biso   1.000  H
  H102     1.0000 0.31690  0.80380  0.68310  Biso   1.000  H
  H103     1.0000 0.81690  0.69620  0.31690  Biso   1.000  H
  H104     1.0000 0.68310  0.30380  0.81690  Biso   1.000  H
  C97      1.0000 0.84260  0.00020  0.86565  Biso   1.000  C
  C98      1.0000 0.65740  0.99980  0.36565  Biso   1.000  C
  C99      1.0000 0.15740  0.50020  0.63435  Biso   1.000  C
  C100     1.0000 0.34260  0.49980  0.13435  Biso   1.000  C
  C101     1.0000 0.15740  0.99980  0.13435  Biso   1.000  C
  C102     1.0000 0.34260  0.00020  0.63435  Biso   1.000  C
  C103     1.0000 0.84260  0.49980  0.36565  Biso   1.000  C
  C104     1.0000 0.65740  0.50020  0.86565  Biso   1.000  C
  H105     1.0000 0.89090  0.02520  0.83090  Biso   1.000  H
  H106     1.0000 0.60910  0.97480  0.33090  Biso   1.000  H
  H107     1.0000 0.10910  0.52520  0.66910  Biso   1.000  H
  H108     1.0000 0.39090  0.47480  0.16910  Biso   1.000  H
  H109     1.0000 0.10910  0.97480  0.16910  Biso   1.000  H
  H110     1.0000 0.39090  0.02520  0.66910  Biso   1.000  H
  H111     1.0000 0.89090  0.47480  0.33090  Biso   1.000  H
  H112     1.0000 0.60910  0.52520  0.83090  Biso   1.000  H
  H113     1.0000 0.80850  0.09050  0.87610  Biso   1.000  H
  H114     1.0000 0.69150  0.90950  0.37610  Biso   1.000  H
  H115     1.0000 0.19150  0.59050  0.62390  Biso   1.000  H
  H116     1.0000 0.30850  0.40950  0.12390  Biso   1.000  H
  H117     1.0000 0.19150  0.90950  0.12390  Biso   1.000  H
  H118     1.0000 0.30850  0.09050  0.62390  Biso   1.000  H
  H119     1.0000 0.80850  0.40950  0.37610  Biso   1.000  H
  H120     1.0000 0.69150  0.59050  0.87610  Biso   1.000  H
  O17      1.0000 0.88120  0.94810  0.93099  Biso   1.000  O
  O18      1.0000 0.61880  0.05190  0.43099  Biso   1.000  O
  O19      1.0000 0.11880  0.44810  0.56901  Biso   1.000  O
  O20      1.0000 0.38120  0.55190  0.06901  Biso   1.000  O
  O21      1.0000 0.11880  0.05190  0.06901  Biso   1.000  O
  O22      1.0000 0.38120  0.94810  0.56901  Biso   1.000  O
  O23      1.0000 0.88120  0.55190  0.43099  Biso   1.000  O
  O24      1.0000 0.61880  0.44810  0.93099  Biso   1.000  O
  H121     1.0000 0.89110  0.01870  0.95910  Biso   1.000  H
  H122     1.0000 0.60890  0.98130  0.45910  Biso   1.000  H
  H123     1.0000 0.10890  0.51870  0.54090  Biso   1.000  H
  H124     1.0000 0.39110  0.48130  0.04090  Biso   1.000  H
  H125     1.0000 0.10890  0.98130  0.04090  Biso   1.000  H
  H126     1.0000 0.39110  0.01870  0.54090  Biso   1.000  H
  H127     1.0000 0.89110  0.48130  0.45910  Biso   1.000  H
  H128     1.0000 0.60890  0.51870  0.95910  Biso   1.000  H
