data_image0
_cell_length_a       7.9119
_cell_length_b       18.3266
_cell_length_c       19.9667
_cell_angle_alpha    69.235
_cell_angle_beta     86.814
_cell_angle_gamma    88.584

_symmetry_space_group_name_H-M    "P 1"
_symmetry_int_tables_number       1

loop_
  _symmetry_equiv_pos_as_xyz
  'x, y, z'

loop_
  _atom_site_label
  _atom_site_occupancy
  _atom_site_fract_x
  _atom_site_fract_y
  _atom_site_fract_z
  _atom_site_thermal_displace_type
  _atom_site_B_iso_or_equiv
  _atom_site_type_symbol
  Cu1      1.0000 0.56661  0.58157  0.47244  Biso   1.000  Cu
  Cu2      1.0000 0.43339  0.41843  0.52756  Biso   1.000  Cu
  O1       1.0000 0.55500  0.49095  0.44369  Biso   1.000  O
  O2       1.0000 0.44500  0.50905  0.55631  Biso   1.000  O
  O3       1.0000 0.55720  0.68352  0.48499  Biso   1.000  O
  O4       1.0000 0.44280  0.31648  0.51501  Biso   1.000  O
  O5       1.0000 0.31910  0.95799  0.46163  Biso   1.000  O
  O6       1.0000 0.68090  0.04201  0.53837  Biso   1.000  O
  H1       1.0000 0.31200  0.99700  0.44200  Biso   1.000  H
  H2       1.0000 0.68800  0.00300  0.55800  Biso   1.000  H
  N1       1.0000 0.67560  0.64236  0.38235  Biso   1.000  N
  N2       1.0000 0.32440  0.35764  0.61765  Biso   1.000  N
  N3       1.0000 0.69850  0.71855  0.37838  Biso   1.000  N
  N4       1.0000 0.30150  0.28145  0.62162  Biso   1.000  N
  H3       1.0000 0.73600  0.75000  0.34300  Biso   1.000  H
  H4       1.0000 0.26400  0.25000  0.65700  Biso   1.000  H
  C1       1.0000 0.58870  0.48810  0.37743  Biso   1.000  C
  C2       1.0000 0.41130  0.51190  0.62257  Biso   1.000  C
  C3       1.0000 0.53530  0.42440  0.36140  Biso   1.000  C
  C4       1.0000 0.46470  0.57560  0.63860  Biso   1.000  C
  H5       1.0000 0.46730  0.38540  0.39580  Biso   1.000  H
  H6       1.0000 0.53270  0.61460  0.60420  Biso   1.000  H
  C5       1.0000 0.58020  0.41730  0.29582  Biso   1.000  C
  C6       1.0000 0.41980  0.58270  0.70418  Biso   1.000  C
  H7       1.0000 0.54510  0.37290  0.28630  Biso   1.000  H
  H8       1.0000 0.45490  0.62710  0.71370  Biso   1.000  H
  C7       1.0000 0.67620  0.47460  0.24390  Biso   1.000  C
  C8       1.0000 0.32380  0.52540  0.75610  Biso   1.000  C
  H9       1.0000 0.70960  0.46890  0.19960  Biso   1.000  H
  H10      1.0000 0.29040  0.53110  0.80040  Biso   1.000  H
  C9       1.0000 0.72210  0.53970  0.25758  Biso   1.000  C
  C10      1.0000 0.27790  0.46030  0.74242  Biso   1.000  C
  H11      1.0000 0.78500  0.57950  0.22160  Biso   1.000  H
  H12      1.0000 0.21500  0.42050  0.77840  Biso   1.000  H
  C11      1.0000 0.67820  0.54890  0.32357  Biso   1.000  C
  C12      1.0000 0.32180  0.45110  0.67643  Biso   1.000  C
  C13      1.0000 0.71740  0.62320  0.32766  Biso   1.000  C
  C14      1.0000 0.28260  0.37680  0.67234  Biso   1.000  C
  H13      1.0000 0.77730  0.66000  0.28800  Biso   1.000  H
  H14      1.0000 0.22270  0.34000  0.71200  Biso   1.000  H
  C15      1.0000 0.62820  0.73610  0.43308  Biso   1.000  C
  C16      1.0000 0.37180  0.26390  0.56692  Biso   1.000  C
  C17      1.0000 0.63910  0.81820  0.43070  Biso   1.000  C
  C18      1.0000 0.36090  0.18180  0.56930  Biso   1.000  C
  H15      1.0000 0.66690  0.85300  0.38080  Biso   1.000  H
  H16      1.0000 0.33310  0.14700  0.61920  Biso   1.000  H
  H17      1.0000 0.73160  0.82200  0.46070  Biso   1.000  H
  H18      1.0000 0.26840  0.17800  0.53930  Biso   1.000  H
  C19      1.0000 0.47360  0.84560  0.45760  Biso   1.000  C
  C20      1.0000 0.52640  0.15440  0.54240  Biso   1.000  C
  H19      1.0000 0.37830  0.83600  0.43170  Biso   1.000  H
  H20      1.0000 0.62170  0.16400  0.56830  Biso   1.000  H
  H21      1.0000 0.45280  0.81560  0.50930  Biso   1.000  H
  H22      1.0000 0.54720  0.18440  0.49070  Biso   1.000  H
  C21      1.0000 0.48280  0.93130  0.44560  Biso   1.000  C
  C22      1.0000 0.51720  0.06870  0.55440  Biso   1.000  C
  H23      1.0000 0.56660  0.94010  0.47690  Biso   1.000  H
  H24      1.0000 0.43340  0.05990  0.52310  Biso   1.000  H
  H25      1.0000 0.51930  0.96070  0.39510  Biso   1.000  H
  H26      1.0000 0.48070  0.03930  0.60490  Biso   1.000  H
  Cu3      1.0000 0.06182  0.91708  0.52822  Biso   1.000  Cu
  Cu4      1.0000 0.93818  0.08292  0.47178  Biso   1.000  Cu
  O7       1.0000 0.04180  0.00912  0.55596  Biso   1.000  O
  O8       1.0000 0.95820  0.99088  0.44404  Biso   1.000  O
  O9       1.0000 0.05440  0.81368  0.51721  Biso   1.000  O
  O10      1.0000 0.94560  0.18632  0.48279  Biso   1.000  O
  O11      1.0000 0.81650  0.54183  0.53811  Biso   1.000  O
  O12      1.0000 0.18350  0.45817  0.46189  Biso   1.000  O
  H27      1.0000 0.80600  0.49800  0.56200  Biso   1.000  H
  H28      1.0000 0.19400  0.50200  0.43800  Biso   1.000  H
  N5       1.0000 0.14500  0.85450  0.61966  Biso   1.000  N
  N6       1.0000 0.85500  0.14550  0.38034  Biso   1.000  N
  N7       1.0000 0.16350  0.77693  0.62545  Biso   1.000  N
  N8       1.0000 0.83650  0.22307  0.37455  Biso   1.000  N
  H29      1.0000 0.19400  0.74600  0.65900  Biso   1.000  H
  H30      1.0000 0.80600  0.25400  0.34100  Biso   1.000  H
  C23      1.0000 0.05810  0.01205  0.62171  Biso   1.000  C
  C24      1.0000 0.94190  0.98795  0.37829  Biso   1.000  C
  C25      1.0000 0.00360  0.07770  0.63661  Biso   1.000  C
  C26      1.0000 0.99640  0.92230  0.36339  Biso   1.000  C
  H31      1.0000 0.94850  0.11880  0.60100  Biso   1.000  H
  H32      1.0000 0.05150  0.88120  0.39900  Biso   1.000  H
  C27      1.0000 0.02800  0.08430  0.70230  Biso   1.000  C
  C28      1.0000 0.97200  0.91570  0.29770  Biso   1.000  C
  H33      1.0000 0.98970  0.12970  0.71120  Biso   1.000  H
  H34      1.0000 0.01030  0.87030  0.28880  Biso   1.000  H
  C29      1.0000 0.10870  0.02450  0.75580  Biso   1.000  C
  C30      1.0000 0.89130  0.97550  0.24420  Biso   1.000  C
  H35      1.0000 0.12990  0.02990  0.80020  Biso   1.000  H
  H36      1.0000 0.87010  0.97010  0.19980  Biso   1.000  H
  C31      1.0000 0.15640  0.95860  0.74317  Biso   1.000  C
  C32      1.0000 0.84360  0.04140  0.25683  Biso   1.000  C
  H37      1.0000 0.20840  0.91750  0.78000  Biso   1.000  H
  H38      1.0000 0.79160  0.08250  0.22000  Biso   1.000  H
  C33      1.0000 0.13130  0.94920  0.67739  Biso   1.000  C
  C34      1.0000 0.86870  0.05080  0.32261  Biso   1.000  C
  C35      1.0000 0.16920  0.87370  0.67413  Biso   1.000  C
  C36      1.0000 0.83080  0.12630  0.32587  Biso   1.000  C
  H39      1.0000 0.21510  0.83540  0.71490  Biso   1.000  H
  H40      1.0000 0.78490  0.16460  0.28510  Biso   1.000  H
  C37      1.0000 0.10770  0.75930  0.57068  Biso   1.000  C
  C38      1.0000 0.89230  0.24070  0.42932  Biso   1.000  C
  C39      1.0000 0.11480  0.67710  0.57490  Biso   1.000  C
  C40      1.0000 0.88520  0.32290  0.42510  Biso   1.000  C
  H41      1.0000 0.12370  0.64300  0.62570  Biso   1.000  H
  H42      1.0000 0.87630  0.35700  0.37430  Biso   1.000  H
  H43      1.0000 0.21810  0.66920  0.54800  Biso   1.000  H
  H44      1.0000 0.78190  0.33080  0.45200  Biso   1.000  H
  C41      1.0000 0.96080  0.65250  0.54510  Biso   1.000  C
  C42      1.0000 0.03920  0.34750  0.45490  Biso   1.000  C
  H45      1.0000 0.85560  0.66680  0.56700  Biso   1.000  H
  H46      1.0000 0.14440  0.33320  0.43300  Biso   1.000  H
  H47      1.0000 0.96090  0.68020  0.49260  Biso   1.000  H
  H48      1.0000 0.03910  0.31980  0.50740  Biso   1.000  H
  C43      1.0000 0.96600  0.56540  0.56170  Biso   1.000  C
  C44      1.0000 0.03400  0.43460  0.43830  Biso   1.000  C
  H49      1.0000 0.06710  0.55160  0.53710  Biso   1.000  H
  H50      1.0000 0.93290  0.44840  0.46290  Biso   1.000  H
  H51      1.0000 0.97390  0.53780  0.61390  Biso   1.000  H
  H52      1.0000 0.02610  0.46220  0.38610  Biso   1.000  H
  Cu5      1.0000 0.47438  0.91495  0.03669  Biso   1.000  Cu
  Cu6      1.0000 0.52562  0.08505  0.96331  Biso   1.000  Cu
  O13      1.0000 0.47710  0.01004  0.05858  Biso   1.000  O
  O14      1.0000 0.52290  0.98996  0.94142  Biso   1.000  O
  O15      1.0000 0.52400  0.81183  0.02872  Biso   1.000  O
  O16      1.0000 0.47600  0.18817  0.97128  Biso   1.000  O
  O17      1.0000 0.69670  0.55305  0.04726  Biso   1.000  O
  O18      1.0000 0.30330  0.44695  0.95274  Biso   1.000  O
  H53      1.0000 0.70300  0.51300  0.06200  Biso   1.000  H
  H54      1.0000 0.29700  0.48700  0.93800  Biso   1.000  H
  N9       1.0000 0.43130  0.85191  0.13581  Biso   1.000  N
  N10      1.0000 0.56870  0.14809  0.86419  Biso   1.000  N
  N11      1.0000 0.43960  0.77295  0.14507  Biso   1.000  N
  N12      1.0000 0.56040  0.22705  0.85493  Biso   1.000  N
  H55      1.0000 0.41400  0.74200  0.18500  Biso   1.000  H
  H56      1.0000 0.58600  0.25800  0.81500  Biso   1.000  H
  C45      1.0000 0.45290  0.01680  0.12365  Biso   1.000  C
  C46      1.0000 0.54710  0.98320  0.87635  Biso   1.000  C
  C47      1.0000 0.47290  0.08930  0.13104  Biso   1.000  C
  C48      1.0000 0.52710  0.91070  0.86896  Biso   1.000  C
  H57      1.0000 0.51190  0.13240  0.09060  Biso   1.000  H
  H58      1.0000 0.48810  0.86760  0.90940  Biso   1.000  H
  C49      1.0000 0.43740  0.09950  0.19542  Biso   1.000  C
  C50      1.0000 0.56260  0.90050  0.80458  Biso   1.000  C
  H59      1.0000 0.45050  0.14960  0.19850  Biso   1.000  H
  H60      1.0000 0.54950  0.85040  0.80150  Biso   1.000  H
  C51      1.0000 0.38240  0.03740  0.25630  Biso   1.000  C
  C52      1.0000 0.61760  0.96260  0.74370  Biso   1.000  C
  H61      1.0000 0.35220  0.04510  0.30000  Biso   1.000  H
  H62      1.0000 0.64780  0.95490  0.70000  Biso   1.000  H
  C53      1.0000 0.37330  0.96500  0.25104  Biso   1.000  C
  C54      1.0000 0.62670  0.03500  0.74896  Biso   1.000  C
  H63      1.0000 0.34220  0.92180  0.29280  Biso   1.000  H
  H64      1.0000 0.65780  0.07820  0.70720  Biso   1.000  H
  C55      1.0000 0.40830  0.95210  0.18622  Biso   1.000  C
  C56      1.0000 0.59170  0.04790  0.81378  Biso   1.000  C
  C57      1.0000 0.40330  0.87270  0.18999  Biso   1.000  C
  C58      1.0000 0.59670  0.12730  0.81001  Biso   1.000  C
  H65      1.0000 0.37760  0.83340  0.23530  Biso   1.000  H
  H66      1.0000 0.62240  0.16660  0.76470  Biso   1.000  H
  C59      1.0000 0.49680  0.75660  0.08780  Biso   1.000  C
  C60      1.0000 0.50320  0.24340  0.91220  Biso   1.000  C
  C61      1.0000 0.53220  0.67420  0.09506  Biso   1.000  C
  C62      1.0000 0.46780  0.32580  0.90494  Biso   1.000  C
  H67      1.0000 0.46350  0.63930  0.13650  Biso   1.000  H
  H68      1.0000 0.53650  0.36070  0.86350  Biso   1.000  H
  H69      1.0000 0.65300  0.66240  0.10500  Biso   1.000  H
  H70      1.0000 0.34700  0.33760  0.89500  Biso   1.000  H
  C63      1.0000 0.49280  0.65740  0.02760  Biso   1.000  C
  C64      1.0000 0.50720  0.34260  0.97240  Biso   1.000  C
  H71      1.0000 0.37330  0.67140  0.01640  Biso   1.000  H
  H72      1.0000 0.62670  0.32860  0.98360  Biso   1.000  H
  H73      1.0000 0.56530  0.69050  0.98660  Biso   1.000  H
  H74      1.0000 0.43470  0.30950  0.01340  Biso   1.000  H
  C65      1.0000 0.52170  0.57320  0.03650  Biso   1.000  C
  C66      1.0000 0.47830  0.42680  0.96350  Biso   1.000  C
  H75      1.0000 0.45170  0.53960  0.07810  Biso   1.000  H
  H76      1.0000 0.54830  0.46040  0.92190  Biso   1.000  H
  H77      1.0000 0.48720  0.56410  0.99320  Biso   1.000  H
  H78      1.0000 0.51280  0.43590  0.00680  Biso   1.000  H
  Cu7      1.0000 0.94062  0.58346  0.97112  Biso   1.000  Cu
  Cu8      1.0000 0.05938  0.41654  0.02888  Biso   1.000  Cu
  O19      1.0000 0.94470  0.48978  0.94616  Biso   1.000  O
  O20      1.0000 0.05530  0.51022  0.05384  Biso   1.000  O
  O21      1.0000 0.95360  0.68650  0.98099  Biso   1.000  O
  O22      1.0000 0.04640  0.31350  0.01901  Biso   1.000  O
  O23      1.0000 0.18540  0.91961  0.02318  Biso   1.000  O
  O24      1.0000 0.81460  0.08039  0.97682  Biso   1.000  O
  H79      1.0000 0.14500  0.89800  0.05700  Biso   1.000  H
  H80      1.0000 0.85500  0.10200  0.94300  Biso   1.000  H
  N13      1.0000 0.86260  0.64763  0.87885  Biso   1.000  N
  N14      1.0000 0.13740  0.35237  0.12115  Biso   1.000  N
  N15      1.0000 0.86050  0.72605  0.87034  Biso   1.000  N
  N16      1.0000 0.13950  0.27395  0.12966  Biso   1.000  N
  H81      1.0000 0.83700  0.75600  0.83300  Biso   1.000  H
  H82      1.0000 0.16300  0.24400  0.16700  Biso   1.000  H
  C67      1.0000 0.90350  0.48370  0.88362  Biso   1.000  C
  C68      1.0000 0.09650  0.51630  0.11638  Biso   1.000  C
  C69      1.0000 0.91280  0.41170  0.87459  Biso   1.000  C
  C70      1.0000 0.08720  0.58830  0.12541  Biso   1.000  C
  H83      1.0000 0.95250  0.36750  0.91230  Biso   1.000  H
  H84      1.0000 0.04750  0.63250  0.08770  Biso   1.000  H
  C71      1.0000 0.86580  0.40280  0.81214  Biso   1.000  C
  C72      1.0000 0.13420  0.59720  0.18786  Biso   1.000  C
  H85      1.0000 0.87250  0.35280  0.80780  Biso   1.000  H
  H86      1.0000 0.12750  0.64720  0.19220  Biso   1.000  H
  C73      1.0000 0.80860  0.46660  0.75570  Biso   1.000  C
  C74      1.0000 0.19140  0.53340  0.24430  Biso   1.000  C
  H87      1.0000 0.77250  0.46040  0.71340  Biso   1.000  H
  H88      1.0000 0.22750  0.53960  0.28660  Biso   1.000  H
  C75      1.0000 0.80570  0.53830  0.76246  Biso   1.000  C
  C76      1.0000 0.19430  0.46170  0.23754  Biso   1.000  C
  H89      1.0000 0.77350  0.58250  0.72290  Biso   1.000  H
  H90      1.0000 0.22650  0.41750  0.27710  Biso   1.000  H
  C77      1.0000 0.84820  0.54920  0.82539  Biso   1.000  C
  C78      1.0000 0.15180  0.45080  0.17461  Biso   1.000  C
  C79      1.0000 0.83750  0.62810  0.82437  Biso   1.000  C
  C80      1.0000 0.16250  0.37190  0.17563  Biso   1.000  C
  H91      1.0000 0.81030  0.66810  0.78080  Biso   1.000  H
  H92      1.0000 0.18970  0.33190  0.21920  Biso   1.000  H
  C81      1.0000 0.91590  0.74180  0.92557  Biso   1.000  C
  C82      1.0000 0.08410  0.25820  0.07443  Biso   1.000  C
  C83      1.0000 0.93010  0.82530  0.92120  Biso   1.000  C
  C84      1.0000 0.06990  0.17470  0.07880  Biso   1.000  C
  H93      1.0000 0.81920  0.84340  0.93500  Biso   1.000  H
  H94      1.0000 0.18080  0.15660  0.06500  Biso   1.000  H
  H95      1.0000 0.96130  0.85880  0.87120  Biso   1.000  H
  H96      1.0000 0.03870  0.14120  0.12880  Biso   1.000  H
  C85      1.0000 0.06380  0.83280  0.97080  Biso   1.000  C
  C86      1.0000 0.93620  0.16720  0.02920  Biso   1.000  C
  H97      1.0000 0.03190  0.79920  0.02070  Biso   1.000  H
  H98      1.0000 0.96810  0.20080  0.97930  Biso   1.000  H
  H99      1.0000 0.17400  0.81390  0.95720  Biso   1.000  H
  H100     1.0000 0.82600  0.18610  0.04280  Biso   1.000  H
  C87      1.0000 0.08260  0.91610  0.96742  Biso   1.000  C
  C88      1.0000 0.91740  0.08390  0.03258  Biso   1.000  C
  H101     1.0000 0.13490  0.94790  0.92020  Biso   1.000  H
  H102     1.0000 0.86510  0.05210  0.07980  Biso   1.000  H
  H103     1.0000 0.96930  0.93830  0.97240  Biso   1.000  H
  H104     1.0000 0.03070  0.06170  0.02760  Biso   1.000  H
  Cl1      1.0000 0.86824  0.81463  0.16332  Biso   1.000  Cl
  Cl2      1.0000 0.13176  0.18537  0.83668  Biso   1.000  Cl
  O25      1.0000 0.85110  0.74211  0.15244  Biso   1.000  O
  O26      1.0000 0.14890  0.25789  0.84756  Biso   1.000  O
  O27      1.0000 0.77030  0.81132  0.22778  Biso   1.000  O
  O28      1.0000 0.22970  0.18868  0.77222  Biso   1.000  O
  O29      1.0000 0.04310  0.82852  0.17045  Biso   1.000  O
  O30      1.0000 0.95690  0.17148  0.82955  Biso   1.000  O
  O31      1.0000 0.80740  0.87775  0.10303  Biso   1.000  O
  O32      1.0000 0.19260  0.12225  0.89697  Biso   1.000  O
  Cl3      1.0000 0.23011  0.68502  0.35006  Biso   1.000  Cl
  Cl4      1.0000 0.76989  0.31498  0.64994  Biso   1.000  Cl
  O33      1.0000 0.26300  0.75704  0.35929  Biso   1.000  O
  O34      1.0000 0.73700  0.24296  0.64071  Biso   1.000  O
  O35      1.0000 0.26750  0.62101  0.41515  Biso   1.000  O
  O36      1.0000 0.73250  0.37899  0.58485  Biso   1.000  O
  O37      1.0000 0.34100  0.67889  0.29223  Biso   1.000  O
  O38      1.0000 0.65900  0.32111  0.70777  Biso   1.000  O
  O39      1.0000 0.05930  0.68090  0.33415  Biso   1.000  O
  O40      1.0000 0.94070  0.31910  0.66585  Biso   1.000  O
  Cl5      1.0000 0.69685  0.81134  0.65465  Biso   1.000  Cl
  Cl6      1.0000 0.30315  0.18866  0.34535  Biso   1.000  Cl
  O41      1.0000 0.72660  0.74041  0.64132  Biso   1.000  O
  O42      1.0000 0.27340  0.25959  0.35868  Biso   1.000  O
  O43      1.0000 0.52200  0.82088  0.67079  Biso   1.000  O
  O44      1.0000 0.47800  0.17912  0.32921  Biso   1.000  O
  O45      1.0000 0.79440  0.80988  0.71395  Biso   1.000  O
  O46      1.0000 0.20560  0.19012  0.28605  Biso   1.000  O
  O47      1.0000 0.75300  0.87683  0.59174  Biso   1.000  O
  O48      1.0000 0.24700  0.12317  0.40826  Biso   1.000  O
  Cl7      1.0000 0.30433  0.68300  0.84199  Biso   1.000  Cl
  Cl8      1.0000 0.69567  0.31700  0.15801  Biso   1.000  Cl
  O49      1.0000 0.27410  0.75143  0.85981  Biso   1.000  O
  O50      1.0000 0.72590  0.24857  0.14019  Biso   1.000  O
  O51      1.0000 0.48080  0.67350  0.82802  Biso   1.000  O
  O52      1.0000 0.51920  0.32650  0.17198  Biso   1.000  O
  O53      1.0000 0.21190  0.68942  0.77986  Biso   1.000  O
  O54      1.0000 0.78810  0.31058  0.22014  Biso   1.000  O
  O55      1.0000 0.24290  0.61514  0.90148  Biso   1.000  O
  O56      1.0000 0.75710  0.38486  0.09852  Biso   1.000  O
