data_image0
_cell_length_a       18.308
_cell_length_b       18.308
_cell_length_c       15.887
_cell_angle_alpha    90
_cell_angle_beta     90
_cell_angle_gamma    90

_symmetry_space_group_name_H-M    "P 1"
_symmetry_int_tables_number       1

loop_
  _symmetry_equiv_pos_as_xyz
  'x, y, z'

loop_
  _atom_site_label
  _atom_site_occupancy
  _atom_site_fract_x
  _atom_site_fract_y
  _atom_site_fract_z
  _atom_site_thermal_displace_type
  _atom_site_B_iso_or_equiv
  _atom_site_type_symbol
  Cu1      1.0000 0.75371  0.02976  0.04280  Biso   1.000  Cu
  Cu2      1.0000 0.24629  0.97024  0.54280  Biso   1.000  Cu
  Cu3      1.0000 0.47024  0.25371  0.79280  Biso   1.000  Cu
  Cu4      1.0000 0.52976  0.74629  0.29280  Biso   1.000  Cu
  Cu5      1.0000 0.74629  0.52976  0.70720  Biso   1.000  Cu
  Cu6      1.0000 0.25371  0.47024  0.20720  Biso   1.000  Cu
  Cu7      1.0000 0.02976  0.75371  0.95720  Biso   1.000  Cu
  Cu8      1.0000 0.97024  0.24629  0.45720  Biso   1.000  Cu
  S1       1.0000 0.75787  0.22893  0.03126  Biso   1.000  S
  S2       1.0000 0.24213  0.77107  0.53126  Biso   1.000  S
  S3       1.0000 0.27107  0.25787  0.78126  Biso   1.000  S
  S4       1.0000 0.72893  0.74213  0.28126  Biso   1.000  S
  S5       1.0000 0.74213  0.72893  0.71874  Biso   1.000  S
  S6       1.0000 0.25787  0.27107  0.21874  Biso   1.000  S
  S7       1.0000 0.22893  0.75787  0.96874  Biso   1.000  S
  S8       1.0000 0.77107  0.24213  0.46874  Biso   1.000  S
  S9       1.0000 0.78280  0.78280  0.00000  Biso   1.000  S
  S10      1.0000 0.21720  0.21720  0.50000  Biso   1.000  S
  S11      1.0000 0.71720  0.28280  0.75000  Biso   1.000  S
  S12      1.0000 0.28280  0.71720  0.25000  Biso   1.000  S
  O1       1.0000 0.73670  0.15360  0.04010  Biso   1.000  O
  O2       1.0000 0.26330  0.84640  0.54010  Biso   1.000  O
  O3       1.0000 0.34640  0.23670  0.79010  Biso   1.000  O
  O4       1.0000 0.65360  0.76330  0.29010  Biso   1.000  O
  O5       1.0000 0.76330  0.65360  0.70990  Biso   1.000  O
  O6       1.0000 0.23670  0.34640  0.20990  Biso   1.000  O
  O7       1.0000 0.15360  0.73670  0.95990  Biso   1.000  O
  O8       1.0000 0.84640  0.26330  0.45990  Biso   1.000  O
  O9       1.0000 0.73990  0.27020  0.10410  Biso   1.000  O
  O10      1.0000 0.26010  0.72980  0.60410  Biso   1.000  O
  O11      1.0000 0.22980  0.23990  0.85410  Biso   1.000  O
  O12      1.0000 0.77020  0.76010  0.35410  Biso   1.000  O
  O13      1.0000 0.76010  0.77020  0.64590  Biso   1.000  O
  O14      1.0000 0.23990  0.22980  0.14590  Biso   1.000  O
  O15      1.0000 0.27020  0.73990  0.89590  Biso   1.000  O
  O16      1.0000 0.72980  0.26010  0.39590  Biso   1.000  O
  O17      1.0000 0.71040  0.26050  0.96070  Biso   1.000  O
  O18      1.0000 0.28960  0.73950  0.46070  Biso   1.000  O
  O19      1.0000 0.23950  0.21040  0.71070  Biso   1.000  O
  O20      1.0000 0.76050  0.78960  0.21070  Biso   1.000  O
  O21      1.0000 0.78960  0.76050  0.78930  Biso   1.000  O
  O22      1.0000 0.21040  0.23950  0.28930  Biso   1.000  O
  O23      1.0000 0.26050  0.71040  0.03930  Biso   1.000  O
  O24      1.0000 0.73950  0.28960  0.53930  Biso   1.000  O
  H1       1.0000 0.73220  0.25710  0.91570  Biso   1.000  H
  H2       1.0000 0.26780  0.74290  0.41570  Biso   1.000  H
  H3       1.0000 0.24290  0.23220  0.66570  Biso   1.000  H
  H4       1.0000 0.75710  0.76780  0.16570  Biso   1.000  H
  H5       1.0000 0.76780  0.75710  0.83430  Biso   1.000  H
  H6       1.0000 0.23220  0.24290  0.33430  Biso   1.000  H
  H7       1.0000 0.25710  0.73220  0.08430  Biso   1.000  H
  H8       1.0000 0.74290  0.26780  0.58430  Biso   1.000  H
  O25      1.0000 0.83370  0.23480  0.00550  Biso   1.000  O
  O26      1.0000 0.16630  0.76520  0.50550  Biso   1.000  O
  O27      1.0000 0.26520  0.33370  0.75550  Biso   1.000  O
  O28      1.0000 0.73480  0.66630  0.25550  Biso   1.000  O
  O29      1.0000 0.66630  0.73480  0.74450  Biso   1.000  O
  O30      1.0000 0.33370  0.26520  0.24450  Biso   1.000  O
  O31      1.0000 0.23480  0.83370  0.99450  Biso   1.000  O
  O32      1.0000 0.76520  0.16630  0.49450  Biso   1.000  O
  O33      1.0000 0.77390  0.85610  0.03430  Biso   1.000  O
  O34      1.0000 0.22610  0.14390  0.53430  Biso   1.000  O
  O35      1.0000 0.64390  0.27390  0.78430  Biso   1.000  O
  O36      1.0000 0.35610  0.72610  0.28430  Biso   1.000  O
  O37      1.0000 0.72610  0.35610  0.71570  Biso   1.000  O
  O38      1.0000 0.27390  0.64390  0.21570  Biso   1.000  O
  O39      1.0000 0.85610  0.77390  0.96570  Biso   1.000  O
  O40      1.0000 0.14390  0.22610  0.46570  Biso   1.000  O
  O41      1.0000 0.77020  0.72950  0.06900  Biso   1.000  O
  O42      1.0000 0.22980  0.27050  0.56900  Biso   1.000  O
  O43      1.0000 0.77050  0.27020  0.81900  Biso   1.000  O
  O44      1.0000 0.22950  0.72980  0.31900  Biso   1.000  O
  O45      1.0000 0.72980  0.22950  0.68100  Biso   1.000  O
  O46      1.0000 0.27020  0.77050  0.18100  Biso   1.000  O
  O47      1.0000 0.72950  0.77020  0.93100  Biso   1.000  O
  O48      1.0000 0.27050  0.22980  0.43100  Biso   1.000  O
  O49      1.0000 0.67600  0.32400  0.25000  Biso   1.000  O
  O50      1.0000 0.32400  0.67600  0.75000  Biso   1.000  O
  O51      1.0000 0.17600  0.17600  0.00000  Biso   1.000  O
  O52      1.0000 0.82400  0.82400  0.50000  Biso   1.000  O
  N1       1.0000 0.76880  0.02120  0.91660  Biso   1.000  N
  N2       1.0000 0.23120  0.97880  0.41660  Biso   1.000  N
  N3       1.0000 0.47880  0.26880  0.66660  Biso   1.000  N
  N4       1.0000 0.52120  0.73120  0.16660  Biso   1.000  N
  N5       1.0000 0.73120  0.52120  0.83340  Biso   1.000  N
  N6       1.0000 0.26880  0.47880  0.33340  Biso   1.000  N
  N7       1.0000 0.02120  0.76880  0.08340  Biso   1.000  N
  N8       1.0000 0.97880  0.23120  0.58340  Biso   1.000  N
  N9       1.0000 0.64760  0.00530  0.02120  Biso   1.000  N
  N10      1.0000 0.35240  0.99470  0.52120  Biso   1.000  N
  N11      1.0000 0.49470  0.14760  0.77120  Biso   1.000  N
  N12      1.0000 0.50530  0.85240  0.27120  Biso   1.000  N
  N13      1.0000 0.85240  0.50530  0.72880  Biso   1.000  N
  N14      1.0000 0.14760  0.49470  0.22880  Biso   1.000  N
  N15      1.0000 0.00530  0.64760  0.97880  Biso   1.000  N
  N16      1.0000 0.99470  0.35240  0.47880  Biso   1.000  N
  N17      1.0000 0.26350  0.97550  0.66800  Biso   1.000  N
  N18      1.0000 0.73650  0.02450  0.16800  Biso   1.000  N
  N19      1.0000 0.52450  0.76350  0.41800  Biso   1.000  N
  N20      1.0000 0.47550  0.23650  0.91800  Biso   1.000  N
  N21      1.0000 0.23650  0.47550  0.08200  Biso   1.000  N
  N22      1.0000 0.76350  0.52450  0.58200  Biso   1.000  N
  N23      1.0000 0.97550  0.26350  0.33200  Biso   1.000  N
  N24      1.0000 0.02450  0.73650  0.83200  Biso   1.000  N
  N25      1.0000 0.13880  0.97200  0.56990  Biso   1.000  N
  N26      1.0000 0.86120  0.02800  0.06990  Biso   1.000  N
  N27      1.0000 0.52800  0.63880  0.31990  Biso   1.000  N
  N28      1.0000 0.47200  0.36120  0.81990  Biso   1.000  N
  N29      1.0000 0.36120  0.47200  0.18010  Biso   1.000  N
  N30      1.0000 0.63880  0.52800  0.68010  Biso   1.000  N
  N31      1.0000 0.97200  0.13880  0.43010  Biso   1.000  N
  N32      1.0000 0.02800  0.86120  0.93010  Biso   1.000  N
  C1       1.0000 0.76200  0.95730  0.87780  Biso   1.000  C
  C2       1.0000 0.23800  0.04270  0.37780  Biso   1.000  C
  C3       1.0000 0.54270  0.26200  0.62780  Biso   1.000  C
  C4       1.0000 0.45730  0.73800  0.12780  Biso   1.000  C
  C5       1.0000 0.73800  0.45730  0.87220  Biso   1.000  C
  C6       1.0000 0.26200  0.54270  0.37220  Biso   1.000  C
  C7       1.0000 0.95730  0.76200  0.12220  Biso   1.000  C
  C8       1.0000 0.04270  0.23800  0.62220  Biso   1.000  C
  H9       1.0000 0.75310  0.91620  0.91060  Biso   1.000  H
  H10      1.0000 0.24690  0.08380  0.41060  Biso   1.000  H
  H11      1.0000 0.58380  0.25310  0.66060  Biso   1.000  H
  H12      1.0000 0.41620  0.74690  0.16060  Biso   1.000  H
  H13      1.0000 0.74690  0.41620  0.83940  Biso   1.000  H
  H14      1.0000 0.25310  0.58380  0.33940  Biso   1.000  H
  H15      1.0000 0.91620  0.75310  0.08940  Biso   1.000  H
  H16      1.0000 0.08380  0.24690  0.58940  Biso   1.000  H
  C9       1.0000 0.76720  0.94810  0.79220  Biso   1.000  C
  C10      1.0000 0.23280  0.05190  0.29220  Biso   1.000  C
  C11      1.0000 0.55190  0.26720  0.54220  Biso   1.000  C
  C12      1.0000 0.44810  0.73280  0.04220  Biso   1.000  C
  C13      1.0000 0.73280  0.44810  0.95780  Biso   1.000  C
  C14      1.0000 0.26720  0.55190  0.45780  Biso   1.000  C
  C15      1.0000 0.94810  0.76720  0.20780  Biso   1.000  C
  C16      1.0000 0.05190  0.23280  0.70780  Biso   1.000  C
  H17      1.0000 0.76470  0.90160  0.76900  Biso   1.000  H
  H18      1.0000 0.23530  0.09840  0.26900  Biso   1.000  H
  H19      1.0000 0.59840  0.26470  0.51900  Biso   1.000  H
  H20      1.0000 0.40160  0.73530  0.01900  Biso   1.000  H
  H21      1.0000 0.73530  0.40160  0.98100  Biso   1.000  H
  H22      1.0000 0.26470  0.59840  0.48100  Biso   1.000  H
  H23      1.0000 0.90160  0.76470  0.23100  Biso   1.000  H
  H24      1.0000 0.09840  0.23530  0.73100  Biso   1.000  H
  C17      1.0000 0.77640  0.00820  0.74080  Biso   1.000  C
  C18      1.0000 0.22360  0.99180  0.24080  Biso   1.000  C
  C19      1.0000 0.49180  0.27640  0.49080  Biso   1.000  C
  C20      1.0000 0.50820  0.72360  0.99080  Biso   1.000  C
  C21      1.0000 0.72360  0.50820  0.00920  Biso   1.000  C
  C22      1.0000 0.27640  0.49180  0.50920  Biso   1.000  C
  C23      1.0000 0.00820  0.77640  0.25920  Biso   1.000  C
  C24      1.0000 0.99180  0.22360  0.75920  Biso   1.000  C
  C25      1.0000 0.78170  0.07420  0.78080  Biso   1.000  C
  C26      1.0000 0.21830  0.92580  0.28080  Biso   1.000  C
  C27      1.0000 0.42580  0.28170  0.53080  Biso   1.000  C
  C28      1.0000 0.57420  0.71830  0.03080  Biso   1.000  C
  C29      1.0000 0.71830  0.57420  0.96920  Biso   1.000  C
  C30      1.0000 0.28170  0.42580  0.46920  Biso   1.000  C
  C31      1.0000 0.07420  0.78170  0.21920  Biso   1.000  C
  C32      1.0000 0.92580  0.21830  0.71920  Biso   1.000  C
  H25      1.0000 0.78850  0.11640  0.74910  Biso   1.000  H
  H26      1.0000 0.21150  0.88360  0.24910  Biso   1.000  H
  H27      1.0000 0.38360  0.28850  0.49910  Biso   1.000  H
  H28      1.0000 0.61640  0.71150  0.99910  Biso   1.000  H
  H29      1.0000 0.71150  0.61640  0.00090  Biso   1.000  H
  H30      1.0000 0.28850  0.38360  0.50090  Biso   1.000  H
  H31      1.0000 0.11640  0.78850  0.25090  Biso   1.000  H
  H32      1.0000 0.88360  0.21150  0.75090  Biso   1.000  H
  C33      1.0000 0.77700  0.07950  0.86620  Biso   1.000  C
  C34      1.0000 0.22300  0.92050  0.36620  Biso   1.000  C
  C35      1.0000 0.42050  0.27700  0.61620  Biso   1.000  C
  C36      1.0000 0.57950  0.72300  0.11620  Biso   1.000  C
  C37      1.0000 0.72300  0.57950  0.88380  Biso   1.000  C
  C38      1.0000 0.27700  0.42050  0.38380  Biso   1.000  C
  C39      1.0000 0.07950  0.77700  0.13380  Biso   1.000  C
  C40      1.0000 0.92050  0.22300  0.63380  Biso   1.000  C
  H33      1.0000 0.77980  0.12550  0.89070  Biso   1.000  H
  H34      1.0000 0.22020  0.87450  0.39070  Biso   1.000  H
  H35      1.0000 0.37450  0.27980  0.64070  Biso   1.000  H
  H36      1.0000 0.62550  0.72020  0.14070  Biso   1.000  H
  H37      1.0000 0.72020  0.62550  0.85930  Biso   1.000  H
  H38      1.0000 0.27980  0.37450  0.35930  Biso   1.000  H
  H39      1.0000 0.12550  0.77980  0.10930  Biso   1.000  H
  H40      1.0000 0.87450  0.22020  0.60930  Biso   1.000  H
  C41      1.0000 0.78370  0.00120  0.64730  Biso   1.000  C
  C42      1.0000 0.21630  0.99880  0.14730  Biso   1.000  C
  C43      1.0000 0.49880  0.28370  0.39730  Biso   1.000  C
  C44      1.0000 0.50120  0.71630  0.89730  Biso   1.000  C
  C45      1.0000 0.71630  0.50120  0.10270  Biso   1.000  C
  C46      1.0000 0.28370  0.49880  0.60270  Biso   1.000  C
  C47      1.0000 0.00120  0.78370  0.35270  Biso   1.000  C
  C48      1.0000 0.99880  0.21630  0.85270  Biso   1.000  C
  H41      1.0000 0.74920  0.03390  0.62030  Biso   1.000  H
  H42      1.0000 0.25080  0.96610  0.12030  Biso   1.000  H
  H43      1.0000 0.46610  0.24920  0.37030  Biso   1.000  H
  H44      1.0000 0.53390  0.75080  0.87030  Biso   1.000  H
  H45      1.0000 0.75080  0.53390  0.12970  Biso   1.000  H
  H46      1.0000 0.24920  0.46610  0.62970  Biso   1.000  H
  H47      1.0000 0.03390  0.74920  0.37970  Biso   1.000  H
  H48      1.0000 0.96610  0.25080  0.87970  Biso   1.000  H
  H49      1.0000 0.77140  0.95170  0.63070  Biso   1.000  H
  H50      1.0000 0.22860  0.04830  0.13070  Biso   1.000  H
  H51      1.0000 0.54830  0.27140  0.38070  Biso   1.000  H
  H52      1.0000 0.45170  0.72860  0.88070  Biso   1.000  H
  H53      1.0000 0.72860  0.45170  0.11930  Biso   1.000  H
  H54      1.0000 0.27140  0.54830  0.61930  Biso   1.000  H
  H55      1.0000 0.95170  0.77140  0.36930  Biso   1.000  H
  H56      1.0000 0.04830  0.22860  0.86930  Biso   1.000  H
  C49      1.0000 0.86270  0.01960  0.61600  Biso   1.000  C
  C50      1.0000 0.13730  0.98040  0.11600  Biso   1.000  C
  C51      1.0000 0.48040  0.36270  0.36600  Biso   1.000  C
  C52      1.0000 0.51960  0.63730  0.86600  Biso   1.000  C
  C53      1.0000 0.63730  0.51960  0.13400  Biso   1.000  C
  C54      1.0000 0.36270  0.48040  0.63400  Biso   1.000  C
  C55      1.0000 0.01960  0.86270  0.38400  Biso   1.000  C
  C56      1.0000 0.98040  0.13730  0.88400  Biso   1.000  C
  C57      1.0000 0.91040  0.96440  0.65050  Biso   1.000  C
  C58      1.0000 0.08960  0.03560  0.15050  Biso   1.000  C
  C59      1.0000 0.53560  0.41040  0.40050  Biso   1.000  C
  C60      1.0000 0.46440  0.58960  0.90050  Biso   1.000  C
  C61      1.0000 0.58960  0.46440  0.09950  Biso   1.000  C
  C62      1.0000 0.41040  0.53560  0.59950  Biso   1.000  C
  C63      1.0000 0.96440  0.91040  0.34950  Biso   1.000  C
  C64      1.0000 0.03560  0.08960  0.84950  Biso   1.000  C
  H57      1.0000 0.89230  0.91680  0.63390  Biso   1.000  H
  H58      1.0000 0.10770  0.08320  0.13390  Biso   1.000  H
  H59      1.0000 0.58320  0.39230  0.38390  Biso   1.000  H
  H60      1.0000 0.41680  0.60770  0.88390  Biso   1.000  H
  H61      1.0000 0.60770  0.41680  0.11610  Biso   1.000  H
  H62      1.0000 0.39230  0.58320  0.61610  Biso   1.000  H
  H63      1.0000 0.91680  0.89230  0.36610  Biso   1.000  H
  H64      1.0000 0.08320  0.10770  0.86610  Biso   1.000  H
  H65      1.0000 0.90820  0.96710  0.71150  Biso   1.000  H
  H66      1.0000 0.09180  0.03290  0.21150  Biso   1.000  H
  H67      1.0000 0.53290  0.40820  0.46150  Biso   1.000  H
  H68      1.0000 0.46710  0.59180  0.96150  Biso   1.000  H
  H69      1.0000 0.59180  0.46710  0.03850  Biso   1.000  H
  H70      1.0000 0.40820  0.53290  0.53850  Biso   1.000  H
  H71      1.0000 0.96710  0.90820  0.28850  Biso   1.000  H
  H72      1.0000 0.03290  0.09180  0.78850  Biso   1.000  H
  C65      1.0000 0.60080  0.05680  0.99800  Biso   1.000  C
  C66      1.0000 0.39920  0.94320  0.49800  Biso   1.000  C
  C67      1.0000 0.44320  0.10080  0.74800  Biso   1.000  C
  C68      1.0000 0.55680  0.89920  0.24800  Biso   1.000  C
  C69      1.0000 0.89920  0.55680  0.75200  Biso   1.000  C
  C70      1.0000 0.10080  0.44320  0.25200  Biso   1.000  C
  C71      1.0000 0.05680  0.60080  0.00200  Biso   1.000  C
  C72      1.0000 0.94320  0.39920  0.50200  Biso   1.000  C
  H73      1.0000 0.61800  0.10460  0.99600  Biso   1.000  H
  H74      1.0000 0.38200  0.89540  0.49600  Biso   1.000  H
  H75      1.0000 0.39540  0.11800  0.74600  Biso   1.000  H
  H76      1.0000 0.60460  0.88200  0.24600  Biso   1.000  H
  H77      1.0000 0.88200  0.60460  0.75400  Biso   1.000  H
  H78      1.0000 0.11800  0.39540  0.25400  Biso   1.000  H
  H79      1.0000 0.10460  0.61800  0.00400  Biso   1.000  H
  H80      1.0000 0.89540  0.38200  0.50400  Biso   1.000  H
  C73      1.0000 0.53010  0.04530  0.97710  Biso   1.000  C
  C74      1.0000 0.46990  0.95470  0.47710  Biso   1.000  C
  C75      1.0000 0.45470  0.03010  0.72710  Biso   1.000  C
  C76      1.0000 0.54530  0.96990  0.22710  Biso   1.000  C
  C77      1.0000 0.96990  0.54530  0.77290  Biso   1.000  C
  C78      1.0000 0.03010  0.45470  0.27290  Biso   1.000  C
  C79      1.0000 0.04530  0.53010  0.02290  Biso   1.000  C
  C80      1.0000 0.95470  0.46990  0.52290  Biso   1.000  C
  H81      1.0000 0.50130  0.08460  0.96070  Biso   1.000  H
  H82      1.0000 0.49870  0.91540  0.46070  Biso   1.000  H
  H83      1.0000 0.41540  0.00130  0.71070  Biso   1.000  H
  H84      1.0000 0.58460  0.99870  0.21070  Biso   1.000  H
  H85      1.0000 0.99870  0.58460  0.78930  Biso   1.000  H
  H86      1.0000 0.00130  0.41540  0.28930  Biso   1.000  H
  H87      1.0000 0.08460  0.50130  0.03930  Biso   1.000  H
  H88      1.0000 0.91540  0.49870  0.53930  Biso   1.000  H
  C81      1.0000 0.49970  0.97540  0.97980  Biso   1.000  C
  C82      1.0000 0.50030  0.02460  0.47980  Biso   1.000  C
  C83      1.0000 0.52460  0.99970  0.72980  Biso   1.000  C
  C84      1.0000 0.47540  0.00030  0.22980  Biso   1.000  C
  C85      1.0000 0.00030  0.47540  0.77020  Biso   1.000  C
  C86      1.0000 0.99970  0.52460  0.27020  Biso   1.000  C
  C87      1.0000 0.97540  0.49970  0.02020  Biso   1.000  C
  C88      1.0000 0.02460  0.50030  0.52020  Biso   1.000  C
  C89      1.0000 0.54630  0.92260  0.00820  Biso   1.000  C
  C90      1.0000 0.45370  0.07740  0.50820  Biso   1.000  C
  C91      1.0000 0.57740  0.04630  0.75820  Biso   1.000  C
  C92      1.0000 0.42260  0.95370  0.25820  Biso   1.000  C
  C93      1.0000 0.95370  0.42260  0.74180  Biso   1.000  C
  C94      1.0000 0.04630  0.57740  0.24180  Biso   1.000  C
  C95      1.0000 0.92260  0.54630  0.99180  Biso   1.000  C
  C96      1.0000 0.07740  0.45370  0.49180  Biso   1.000  C
  H89      1.0000 0.52900  0.87520  0.01520  Biso   1.000  H
  H90      1.0000 0.47100  0.12480  0.51520  Biso   1.000  H
  H91      1.0000 0.62480  0.02900  0.76520  Biso   1.000  H
  H92      1.0000 0.37520  0.97100  0.26520  Biso   1.000  H
  H93      1.0000 0.97100  0.37520  0.73480  Biso   1.000  H
  H94      1.0000 0.02900  0.62480  0.23480  Biso   1.000  H
  H95      1.0000 0.87520  0.52900  0.98480  Biso   1.000  H
  H96      1.0000 0.12480  0.47100  0.48480  Biso   1.000  H
  C97      1.0000 0.61930  0.93790  0.02710  Biso   1.000  C
  C98      1.0000 0.38070  0.06210  0.52710  Biso   1.000  C
  C99      1.0000 0.56210  0.11930  0.77710  Biso   1.000  C
  C100     1.0000 0.43790  0.88070  0.27710  Biso   1.000  C
  C101     1.0000 0.88070  0.43790  0.72290  Biso   1.000  C
  C102     1.0000 0.11930  0.56210  0.22290  Biso   1.000  C
  C103     1.0000 0.93790  0.61930  0.97290  Biso   1.000  C
  C104     1.0000 0.06210  0.38070  0.47290  Biso   1.000  C
  H97      1.0000 0.64950  0.89990  0.04440  Biso   1.000  H
  H98      1.0000 0.35050  0.10010  0.54440  Biso   1.000  H
  H99      1.0000 0.60010  0.14950  0.79440  Biso   1.000  H
  H100     1.0000 0.39990  0.85050  0.29440  Biso   1.000  H
  H101     1.0000 0.85050  0.39990  0.70560  Biso   1.000  H
  H102     1.0000 0.14950  0.60010  0.20560  Biso   1.000  H
  H103     1.0000 0.89990  0.64950  0.95560  Biso   1.000  H
  H104     1.0000 0.10010  0.35050  0.45560  Biso   1.000  H
  C105     1.0000 0.25820  0.04000  0.70710  Biso   1.000  C
  C106     1.0000 0.74180  0.96000  0.20710  Biso   1.000  C
  C107     1.0000 0.46000  0.75820  0.45710  Biso   1.000  C
  C108     1.0000 0.54000  0.24180  0.95710  Biso   1.000  C
  C109     1.0000 0.24180  0.54000  0.04290  Biso   1.000  C
  C110     1.0000 0.75820  0.46000  0.54290  Biso   1.000  C
  C111     1.0000 0.04000  0.25820  0.29290  Biso   1.000  C
  C112     1.0000 0.96000  0.74180  0.79290  Biso   1.000  C
  H105     1.0000 0.24810  0.08110  0.67470  Biso   1.000  H
  H106     1.0000 0.75190  0.91890  0.17470  Biso   1.000  H
  H107     1.0000 0.41890  0.74810  0.42470  Biso   1.000  H
  H108     1.0000 0.58110  0.25190  0.92470  Biso   1.000  H
  H109     1.0000 0.25190  0.58110  0.07530  Biso   1.000  H
  H110     1.0000 0.74810  0.41890  0.57530  Biso   1.000  H
  H111     1.0000 0.08110  0.24810  0.32530  Biso   1.000  H
  H112     1.0000 0.91890  0.75190  0.82530  Biso   1.000  H
  C113     1.0000 0.26680  0.04910  0.79170  Biso   1.000  C
  C114     1.0000 0.73320  0.95090  0.29170  Biso   1.000  C
  C115     1.0000 0.45090  0.76680  0.54170  Biso   1.000  C
  C116     1.0000 0.54910  0.23320  0.04170  Biso   1.000  C
  C117     1.0000 0.23320  0.54910  0.95830  Biso   1.000  C
  C118     1.0000 0.76680  0.45090  0.45830  Biso   1.000  C
  C119     1.0000 0.04910  0.26680  0.20830  Biso   1.000  C
  C120     1.0000 0.95090  0.73320  0.70830  Biso   1.000  C
  H113     1.0000 0.26380  0.09530  0.81570  Biso   1.000  H
  H114     1.0000 0.73620  0.90470  0.31570  Biso   1.000  H
  H115     1.0000 0.40470  0.76380  0.56570  Biso   1.000  H
  H116     1.0000 0.59530  0.23620  0.06570  Biso   1.000  H
  H117     1.0000 0.23620  0.59530  0.93430  Biso   1.000  H
  H118     1.0000 0.76380  0.40470  0.43430  Biso   1.000  H
  H119     1.0000 0.09530  0.26380  0.18430  Biso   1.000  H
  H120     1.0000 0.90470  0.73620  0.68430  Biso   1.000  H
  C121     1.0000 0.28040  0.98710  0.84230  Biso   1.000  C
  C122     1.0000 0.71960  0.01290  0.34230  Biso   1.000  C
  C123     1.0000 0.51290  0.78040  0.59230  Biso   1.000  C
  C124     1.0000 0.48710  0.21960  0.09230  Biso   1.000  C
  C125     1.0000 0.21960  0.48710  0.90770  Biso   1.000  C
  C126     1.0000 0.78040  0.51290  0.40770  Biso   1.000  C
  C127     1.0000 0.98710  0.28040  0.15770  Biso   1.000  C
  C128     1.0000 0.01290  0.71960  0.65770  Biso   1.000  C
  C129     1.0000 0.28490  0.92060  0.80250  Biso   1.000  C
  C130     1.0000 0.71510  0.07940  0.30250  Biso   1.000  C
  C131     1.0000 0.57940  0.78490  0.55250  Biso   1.000  C
  C132     1.0000 0.42060  0.21510  0.05250  Biso   1.000  C
  C133     1.0000 0.21510  0.42060  0.94750  Biso   1.000  C
  C134     1.0000 0.78490  0.57940  0.44750  Biso   1.000  C
  C135     1.0000 0.92060  0.28490  0.19750  Biso   1.000  C
  C136     1.0000 0.07940  0.71510  0.69750  Biso   1.000  C
  H121     1.0000 0.29350  0.87840  0.83360  Biso   1.000  H
  H122     1.0000 0.70650  0.12160  0.33360  Biso   1.000  H
  H123     1.0000 0.62160  0.79350  0.58360  Biso   1.000  H
  H124     1.0000 0.37840  0.20650  0.08360  Biso   1.000  H
  H125     1.0000 0.20650  0.37840  0.91640  Biso   1.000  H
  H126     1.0000 0.79350  0.62160  0.41640  Biso   1.000  H
  H127     1.0000 0.87840  0.29350  0.16640  Biso   1.000  H
  H128     1.0000 0.12160  0.70650  0.66640  Biso   1.000  H
  C137     1.0000 0.27650  0.91670  0.71610  Biso   1.000  C
  C138     1.0000 0.72350  0.08330  0.21610  Biso   1.000  C
  C139     1.0000 0.58330  0.77650  0.46610  Biso   1.000  C
  C140     1.0000 0.41670  0.22350  0.96610  Biso   1.000  C
  C141     1.0000 0.22350  0.41670  0.03390  Biso   1.000  C
  C142     1.0000 0.77650  0.58330  0.53390  Biso   1.000  C
  C143     1.0000 0.91670  0.27650  0.28390  Biso   1.000  C
  C144     1.0000 0.08330  0.72350  0.78390  Biso   1.000  C
  H129     1.0000 0.28000  0.87120  0.69020  Biso   1.000  H
  H130     1.0000 0.72000  0.12880  0.19020  Biso   1.000  H
  H131     1.0000 0.62880  0.78000  0.44020  Biso   1.000  H
  H132     1.0000 0.37120  0.22000  0.94020  Biso   1.000  H
  H133     1.0000 0.22000  0.37120  0.05980  Biso   1.000  H
  H134     1.0000 0.78000  0.62880  0.55980  Biso   1.000  H
  H135     1.0000 0.87120  0.28000  0.30980  Biso   1.000  H
  H136     1.0000 0.12880  0.72000  0.80980  Biso   1.000  H
  C145     1.0000 0.29130  0.99630  0.93590  Biso   1.000  C
  C146     1.0000 0.70870  0.00370  0.43590  Biso   1.000  C
  C147     1.0000 0.50370  0.79130  0.68590  Biso   1.000  C
  C148     1.0000 0.49630  0.20870  0.18590  Biso   1.000  C
  C149     1.0000 0.20870  0.49630  0.81410  Biso   1.000  C
  C150     1.0000 0.79130  0.50370  0.31410  Biso   1.000  C
  C151     1.0000 0.99630  0.29130  0.06410  Biso   1.000  C
  C152     1.0000 0.00370  0.70870  0.56410  Biso   1.000  C
  H137     1.0000 0.27950  0.95040  0.96320  Biso   1.000  H
  H138     1.0000 0.72050  0.04960  0.46320  Biso   1.000  H
  H139     1.0000 0.54960  0.77950  0.71320  Biso   1.000  H
  H140     1.0000 0.45040  0.22050  0.21320  Biso   1.000  H
  H141     1.0000 0.22050  0.45040  0.78680  Biso   1.000  H
  H142     1.0000 0.77950  0.54960  0.28680  Biso   1.000  H
  H143     1.0000 0.95040  0.27950  0.03680  Biso   1.000  H
  H144     1.0000 0.04960  0.72050  0.53680  Biso   1.000  H
  H145     1.0000 0.25700  0.03260  0.95600  Biso   1.000  H
  H146     1.0000 0.74300  0.96740  0.45600  Biso   1.000  H
  H147     1.0000 0.46740  0.75700  0.70600  Biso   1.000  H
  H148     1.0000 0.53260  0.24300  0.20600  Biso   1.000  H
  H149     1.0000 0.24300  0.53260  0.79400  Biso   1.000  H
  H150     1.0000 0.75700  0.46740  0.29400  Biso   1.000  H
  H151     1.0000 0.03260  0.25700  0.04400  Biso   1.000  H
  H152     1.0000 0.96740  0.74300  0.54400  Biso   1.000  H
  C153     1.0000 0.36830  0.01910  0.96300  Biso   1.000  C
  C154     1.0000 0.63170  0.98090  0.46300  Biso   1.000  C
  C155     1.0000 0.48090  0.86830  0.71300  Biso   1.000  C
  C156     1.0000 0.51910  0.13170  0.21300  Biso   1.000  C
  C157     1.0000 0.13170  0.51910  0.78700  Biso   1.000  C
  C158     1.0000 0.86830  0.48090  0.28700  Biso   1.000  C
  C159     1.0000 0.01910  0.36830  0.03700  Biso   1.000  C
  C160     1.0000 0.98090  0.63170  0.53700  Biso   1.000  C
  H153     1.0000 0.38380  0.06070  0.92970  Biso   1.000  H
  H154     1.0000 0.61620  0.93930  0.42970  Biso   1.000  H
  H155     1.0000 0.43930  0.88380  0.67970  Biso   1.000  H
  H156     1.0000 0.56070  0.11620  0.17970  Biso   1.000  H
  H157     1.0000 0.11620  0.56070  0.82030  Biso   1.000  H
  H158     1.0000 0.88380  0.43930  0.32030  Biso   1.000  H
  H159     1.0000 0.06070  0.38380  0.07030  Biso   1.000  H
  H160     1.0000 0.93930  0.61620  0.57030  Biso   1.000  H
  H161     1.0000 0.36720  0.03410  0.02160  Biso   1.000  H
  H162     1.0000 0.63280  0.96590  0.52160  Biso   1.000  H
  H163     1.0000 0.46590  0.86720  0.77160  Biso   1.000  H
  H164     1.0000 0.53410  0.13280  0.27160  Biso   1.000  H
  H165     1.0000 0.13280  0.53410  0.72840  Biso   1.000  H
  H166     1.0000 0.86720  0.46590  0.22840  Biso   1.000  H
  H167     1.0000 0.03410  0.36720  0.97840  Biso   1.000  H
  H168     1.0000 0.96590  0.63280  0.47840  Biso   1.000  H
  C161     1.0000 0.42240  0.95800  0.95250  Biso   1.000  C
  C162     1.0000 0.57760  0.04200  0.45250  Biso   1.000  C
  C163     1.0000 0.54200  0.92240  0.70250  Biso   1.000  C
  C164     1.0000 0.45800  0.07760  0.20250  Biso   1.000  C
  C165     1.0000 0.07760  0.45800  0.79750  Biso   1.000  C
  C166     1.0000 0.92240  0.54200  0.29750  Biso   1.000  C
  C167     1.0000 0.95800  0.42240  0.04750  Biso   1.000  C
  C168     1.0000 0.04200  0.57760  0.54750  Biso   1.000  C
  H169     1.0000 0.42320  0.94380  0.89370  Biso   1.000  H
  H170     1.0000 0.57680  0.05620  0.39370  Biso   1.000  H
  H171     1.0000 0.55620  0.92320  0.64370  Biso   1.000  H
  H172     1.0000 0.44380  0.07680  0.14370  Biso   1.000  H
  H173     1.0000 0.07680  0.44380  0.85630  Biso   1.000  H
  H174     1.0000 0.92320  0.55620  0.35630  Biso   1.000  H
  H175     1.0000 0.94380  0.42320  0.10630  Biso   1.000  H
  H176     1.0000 0.05620  0.57680  0.60630  Biso   1.000  H
  H177     1.0000 0.40530  0.91620  0.98460  Biso   1.000  H
  H178     1.0000 0.59470  0.08380  0.48460  Biso   1.000  H
  H179     1.0000 0.58380  0.90530  0.73460  Biso   1.000  H
  H180     1.0000 0.41620  0.09470  0.23460  Biso   1.000  H
  H181     1.0000 0.09470  0.41620  0.76540  Biso   1.000  H
  H182     1.0000 0.90530  0.58380  0.26540  Biso   1.000  H
  H183     1.0000 0.91620  0.40530  0.01540  Biso   1.000  H
  H184     1.0000 0.08380  0.59470  0.51540  Biso   1.000  H
  C169     1.0000 0.10190  0.03450  0.58540  Biso   1.000  C
  C170     1.0000 0.89810  0.96550  0.08540  Biso   1.000  C
  C171     1.0000 0.46550  0.60190  0.33540  Biso   1.000  C
  C172     1.0000 0.53450  0.39810  0.83540  Biso   1.000  C
  C173     1.0000 0.39810  0.53450  0.16460  Biso   1.000  C
  C174     1.0000 0.60190  0.46550  0.66460  Biso   1.000  C
  C175     1.0000 0.03450  0.10190  0.41460  Biso   1.000  C
  C176     1.0000 0.96550  0.89810  0.91460  Biso   1.000  C
  H185     1.0000 0.12530  0.07890  0.57670  Biso   1.000  H
  H186     1.0000 0.87470  0.92110  0.07670  Biso   1.000  H
  H187     1.0000 0.42110  0.62530  0.32670  Biso   1.000  H
  H188     1.0000 0.57890  0.37470  0.82670  Biso   1.000  H
  H189     1.0000 0.37470  0.57890  0.17330  Biso   1.000  H
  H190     1.0000 0.62530  0.42110  0.67330  Biso   1.000  H
  H191     1.0000 0.07890  0.12530  0.42330  Biso   1.000  H
  H192     1.0000 0.92110  0.87470  0.92330  Biso   1.000  H
  C177     1.0000 0.03070  0.03460  0.61380  Biso   1.000  C
  C178     1.0000 0.96930  0.96540  0.11380  Biso   1.000  C
  C179     1.0000 0.46540  0.53070  0.36380  Biso   1.000  C
  C180     1.0000 0.53460  0.46930  0.86380  Biso   1.000  C
  C181     1.0000 0.46930  0.53460  0.13620  Biso   1.000  C
  C182     1.0000 0.53070  0.46540  0.63620  Biso   1.000  C
  C183     1.0000 0.03460  0.03070  0.38620  Biso   1.000  C
  C184     1.0000 0.96540  0.96930  0.88620  Biso   1.000  C
  H193     1.0000 0.00870  0.07880  0.62740  Biso   1.000  H
  H194     1.0000 0.99130  0.92120  0.12740  Biso   1.000  H
  H195     1.0000 0.42120  0.50870  0.37740  Biso   1.000  H
  H196     1.0000 0.57880  0.49130  0.87740  Biso   1.000  H
  H197     1.0000 0.49130  0.57880  0.12260  Biso   1.000  H
  H198     1.0000 0.50870  0.42120  0.62260  Biso   1.000  H
  H199     1.0000 0.07880  0.00870  0.37260  Biso   1.000  H
  H200     1.0000 0.92120  0.99130  0.87260  Biso   1.000  H
  C185     1.0000 0.99190  0.97130  0.62230  Biso   1.000  C
  C186     1.0000 0.00810  0.02870  0.12230  Biso   1.000  C
  C187     1.0000 0.52870  0.49190  0.37230  Biso   1.000  C
  C188     1.0000 0.47130  0.50810  0.87230  Biso   1.000  C
  C189     1.0000 0.50810  0.47130  0.12770  Biso   1.000  C
  C190     1.0000 0.49190  0.52870  0.62770  Biso   1.000  C
  C191     1.0000 0.97130  0.99190  0.37770  Biso   1.000  C
  C192     1.0000 0.02870  0.00810  0.87770  Biso   1.000  C
  C193     1.0000 0.02920  0.91010  0.60760  Biso   1.000  C
  C194     1.0000 0.97080  0.08990  0.10760  Biso   1.000  C
  C195     1.0000 0.58990  0.52920  0.35760  Biso   1.000  C
  C196     1.0000 0.41010  0.47080  0.85760  Biso   1.000  C
  C197     1.0000 0.47080  0.41010  0.14240  Biso   1.000  C
  C198     1.0000 0.52920  0.58990  0.64240  Biso   1.000  C
  C199     1.0000 0.91010  0.02920  0.39240  Biso   1.000  C
  C200     1.0000 0.08990  0.97080  0.89240  Biso   1.000  C
  H201     1.0000 0.00650  0.86520  0.61600  Biso   1.000  H
  H202     1.0000 0.99350  0.13480  0.11600  Biso   1.000  H
  H203     1.0000 0.63480  0.50650  0.36600  Biso   1.000  H
  H204     1.0000 0.36520  0.49350  0.86600  Biso   1.000  H
  H205     1.0000 0.49350  0.36520  0.13400  Biso   1.000  H
  H206     1.0000 0.50650  0.63480  0.63400  Biso   1.000  H
  H207     1.0000 0.86520  0.00650  0.38400  Biso   1.000  H
  H208     1.0000 0.13480  0.99350  0.88400  Biso   1.000  H
  C201     1.0000 0.10010  0.91180  0.58030  Biso   1.000  C
  C202     1.0000 0.89990  0.08820  0.08030  Biso   1.000  C
  C203     1.0000 0.58820  0.60010  0.33030  Biso   1.000  C
  C204     1.0000 0.41180  0.39990  0.83030  Biso   1.000  C
  C205     1.0000 0.39990  0.41180  0.16970  Biso   1.000  C
  C206     1.0000 0.60010  0.58820  0.66970  Biso   1.000  C
  C207     1.0000 0.91180  0.10010  0.41970  Biso   1.000  C
  C208     1.0000 0.08820  0.89990  0.91970  Biso   1.000  C
  H209     1.0000 0.12270  0.86750  0.56820  Biso   1.000  H
  H210     1.0000 0.87730  0.13250  0.06820  Biso   1.000  H
  H211     1.0000 0.63250  0.62270  0.31820  Biso   1.000  H
  H212     1.0000 0.36750  0.37730  0.81820  Biso   1.000  H
  H213     1.0000 0.37730  0.36750  0.18180  Biso   1.000  H
  H214     1.0000 0.62270  0.63250  0.68180  Biso   1.000  H
  H215     1.0000 0.86750  0.12270  0.43180  Biso   1.000  H
  H216     1.0000 0.13250  0.87730  0.93180  Biso   1.000  H
