data_image0
_cell_length_a       9.5884
_cell_length_b       11.1794
_cell_length_c       11.2621
_cell_angle_alpha    90.654
_cell_angle_beta     90.089
_cell_angle_gamma    110.455

_symmetry_space_group_name_H-M    "P 1"
_symmetry_int_tables_number       1

loop_
  _symmetry_equiv_pos_as_xyz
  'x, y, z'

loop_
  _atom_site_label
  _atom_site_occupancy
  _atom_site_fract_x
  _atom_site_fract_y
  _atom_site_fract_z
  _atom_site_thermal_displace_type
  _atom_site_B_iso_or_equiv
  _atom_site_type_symbol
  O1       1.0000 0.81700  0.19400  0.75200  Biso   1.000  O
  O2       1.0000 0.18300  0.80600  0.24800  Biso   1.000  O
  O3       1.0000 0.38320  0.36840  0.75070  Biso   1.000  O
  O4       1.0000 0.61680  0.63160  0.24930  Biso   1.000  O
  Cu1      1.0000 0.12354  0.28759  0.75048  Biso   1.000  Cu
  Cu2      1.0000 0.87646  0.71241  0.24952  Biso   1.000  Cu
  Cl1      1.0000 0.65979  0.15720  0.75640  Biso   1.000  Cl
  Cl2      1.0000 0.34021  0.84280  0.24360  Biso   1.000  Cl
  O5       1.0000 0.10960  0.23816  0.91750  Biso   1.000  O
  O6       1.0000 0.89040  0.76184  0.08250  Biso   1.000  O
  O7       1.0000 0.10790  0.32638  0.58305  Biso   1.000  O
  O8       1.0000 0.89210  0.67362  0.41695  Biso   1.000  O
  O9       1.0000 0.11860  0.11855  0.70296  Biso   1.000  O
  O10      1.0000 0.88140  0.88145  0.29704  Biso   1.000  O
  O11      1.0000 0.12080  0.45448  0.79834  Biso   1.000  O
  O12      1.0000 0.87920  0.54552  0.20166  Biso   1.000  O
  N1       1.0000 0.06190  0.47360  0.89994  Biso   1.000  N
  N2       1.0000 0.93810  0.52640  0.10006  Biso   1.000  N
  N3       1.0000 0.05600  0.11840  0.95461  Biso   1.000  N
  N4       1.0000 0.94400  0.88160  0.04539  Biso   1.000  N
  N5       1.0000 0.05540  0.41440  0.54508  Biso   1.000  N
  N6       1.0000 0.94460  0.58560  0.45492  Biso   1.000  N
  N7       1.0000 0.06020  0.06350  0.60073  Biso   1.000  N
  N8       1.0000 0.93980  0.93650  0.39927  Biso   1.000  N
  C1       1.0000 0.90980  0.06370  0.97290  Biso   1.000  C
  C2       1.0000 0.09020  0.93630  0.02710  Biso   1.000  C
  H1       1.0000 0.84740  0.10840  0.95410  Biso   1.000  H
  H2       1.0000 0.15260  0.89160  0.04590  Biso   1.000  H
  C3       1.0000 0.90870  0.38520  0.53330  Biso   1.000  C
  C4       1.0000 0.09130  0.61480  0.46670  Biso   1.000  C
  H3       1.0000 0.84540  0.30480  0.55600  Biso   1.000  H
  H4       1.0000 0.15460  0.69520  0.44400  Biso   1.000  H
  C5       1.0000 0.15190  0.52940  0.51140  Biso   1.000  C
  C6       1.0000 0.84810  0.47060  0.48860  Biso   1.000  C
  C7       1.0000 0.91620  0.45470  0.90370  Biso   1.000  C
  C8       1.0000 0.08380  0.54530  0.09630  Biso   1.000  C
  H5       1.0000 0.85830  0.42320  0.83630  Biso   1.000  H
  H6       1.0000 0.14170  0.57680  0.16370  Biso   1.000  H
  C9       1.0000 0.15080  0.51960  0.99580  Biso   1.000  C
  C10      1.0000 0.84920  0.48040  0.00420  Biso   1.000  C
  C11      1.0000 0.15050  0.05640  0.98140  Biso   1.000  C
  C12      1.0000 0.84950  0.94360  0.01860  Biso   1.000  C
  C13      1.0000 0.91340  0.00160  0.59230  Biso   1.000  C
  C14      1.0000 0.08660  0.99840  0.40770  Biso   1.000  C
  H7       1.0000 0.85370  0.00290  0.65690  Biso   1.000  H
  H8       1.0000 0.14630  0.99710  0.34310  Biso   1.000  H
  C15      1.0000 0.15170  0.06390  0.50880  Biso   1.000  C
  C16      1.0000 0.84830  0.93610  0.49120  Biso   1.000  C
  C17      1.0000 0.31120  0.53870  0.98950  Biso   1.000  C
  C18      1.0000 0.68880  0.46130  0.01050  Biso   1.000  C
  H9       1.0000 0.32330  0.46050  0.96480  Biso   1.000  H
  H10      1.0000 0.67670  0.53950  0.03520  Biso   1.000  H
  H11      1.0000 0.35610  0.56390  0.06630  Biso   1.000  H
  H12      1.0000 0.64390  0.43610  0.93370  Biso   1.000  H
  H13      1.0000 0.35840  0.60420  0.93330  Biso   1.000  H
  H14      1.0000 0.64160  0.39580  0.06670  Biso   1.000  H
  C19      1.0000 0.31330  0.55600  0.52150  Biso   1.000  C
  C20      1.0000 0.68670  0.44400  0.47850  Biso   1.000  C
  H15      1.0000 0.33750  0.54160  0.60150  Biso   1.000  H
  H16      1.0000 0.66250  0.45840  0.39850  Biso   1.000  H
  H17      1.0000 0.36640  0.64320  0.50100  Biso   1.000  H
  H18      1.0000 0.63360  0.35680  0.49900  Biso   1.000  H
  H19      1.0000 0.34100  0.50040  0.46840  Biso   1.000  H
  H20      1.0000 0.65900  0.49960  0.53160  Biso   1.000  H
  Cl3      1.0000 0.99889  0.24765  0.25253  Biso   1.000  Cl
  Cl4      1.0000 0.00111  0.75235  0.74747  Biso   1.000  Cl
  O13      1.0000 0.09640  0.37270  0.28890  Biso   1.000  O
  O14      1.0000 0.90360  0.62730  0.71110  Biso   1.000  O
  O15      1.0000 0.90560  0.25910  0.15700  Biso   1.000  O
  O16      1.0000 0.09440  0.74090  0.84300  Biso   1.000  O
  O17      1.0000 0.90990  0.18640  0.35110  Biso   1.000  O
  O18      1.0000 0.09010  0.81360  0.64890  Biso   1.000  O
  O19      1.0000 0.08680  0.17440  0.21320  Biso   1.000  O
  O20      1.0000 0.91320  0.82560  0.78680  Biso   1.000  O
  C21      1.0000 0.31170  0.12090  0.96040  Biso   1.000  C
  C22      1.0000 0.68830  0.87910  0.03960  Biso   1.000  C
  H21      1.0000 0.36470  0.06760  0.98740  Biso   1.000  H
  H22      1.0000 0.63530  0.93240  0.01260  Biso   1.000  H
  H23      1.0000 0.34620  0.20070  0.00310  Biso   1.000  H
  H24      1.0000 0.65380  0.79930  0.99690  Biso   1.000  H
  H25      1.0000 0.32860  0.13610  0.87700  Biso   1.000  H
  H26      1.0000 0.67140  0.86390  0.12300  Biso   1.000  H
  O21      1.0000 0.61570  0.26230  0.73760  Biso   1.000  O
  O22      1.0000 0.38430  0.73770  0.26240  Biso   1.000  O
  O23      1.0000 0.63470  0.15280  0.89270  Biso   1.000  O
  O24      1.0000 0.36530  0.84720  0.10730  Biso   1.000  O
  O25      1.0000 0.59000  0.05870  0.82710  Biso   1.000  O
  O26      1.0000 0.41000  0.94130  0.17290  Biso   1.000  O
  O27      1.0000 0.57770  0.04630  0.70720  Biso   1.000  O
  O28      1.0000 0.42230  0.95370  0.29280  Biso   1.000  O
  O29      1.0000 0.62760  0.10760  0.62260  Biso   1.000  O
  O30      1.0000 0.37240  0.89240  0.37740  Biso   1.000  O
  C23      1.0000 0.31340  0.13390  0.52170  Biso   1.000  C
  C24      1.0000 0.68660  0.86610  0.47830  Biso   1.000  C
  H27      1.0000 0.33090  0.22270  0.53660  Biso   1.000  H
  H28      1.0000 0.66910  0.77730  0.46340  Biso   1.000  H
  H29      1.0000 0.36290  0.12470  0.45000  Biso   1.000  H
  H30      1.0000 0.63710  0.87530  0.55000  Biso   1.000  H
  H31      1.0000 0.35140  0.09970  0.58700  Biso   1.000  H
  H32      1.0000 0.64860  0.90030  0.41300  Biso   1.000  H
  O31      1.0000 0.57350  0.62060  0.75320  Biso   1.000  O
  O32      1.0000 0.42650  0.37940  0.24680  Biso   1.000  O
  O33      1.0000 0.41980  0.78830  0.78450  Biso   1.000  O
  O34      1.0000 0.58020  0.21170  0.21550  Biso   1.000  O
  O35      1.0000 0.41330  0.78700  0.73030  Biso   1.000  O
  O36      1.0000 0.58670  0.21300  0.26970  Biso   1.000  O
  H33      1.0000 0.43400  0.32100  0.74000  Biso   1.000  H
  H34      1.0000 0.56600  0.67900  0.26000  Biso   1.000  H
  H35      1.0000 0.44000  0.44470  0.76100  Biso   1.000  H
  H36      1.0000 0.56000  0.55530  0.23900  Biso   1.000  H
  H37      1.0000 0.46400  0.86840  0.79400  Biso   1.000  H
  H38      1.0000 0.53600  0.13160  0.20600  Biso   1.000  H
  H39      1.0000 0.32900  0.77300  0.76700  Biso   1.000  H
  H40      1.0000 0.67100  0.22700  0.23300  Biso   1.000  H
  H41      1.0000 0.66650  0.65400  0.74200  Biso   1.000  H
  H42      1.0000 0.33350  0.34600  0.25800  Biso   1.000  H
  H43      1.0000 0.53400  0.67700  0.76200  Biso   1.000  H
  H44      1.0000 0.46600  0.32300  0.23800  Biso   1.000  H
