data_image0
_cell_length_a       7.5168
_cell_length_b       21.771
_cell_length_c       12.1053
_cell_angle_alpha    90
_cell_angle_beta     122.872
_cell_angle_gamma    90

_symmetry_space_group_name_H-M    "P 1"
_symmetry_int_tables_number       1

loop_
  _symmetry_equiv_pos_as_xyz
  'x, y, z'

loop_
  _atom_site_label
  _atom_site_occupancy
  _atom_site_fract_x
  _atom_site_fract_y
  _atom_site_fract_z
  _atom_site_thermal_displace_type
  _atom_site_B_iso_or_equiv
  _atom_site_type_symbol
  Cu1      1.0000 0.81377  0.20909  0.00988  Biso   1.000  Cu
  Cu2      1.0000 0.18623  0.70909  0.49012  Biso   1.000  Cu
  Cu3      1.0000 0.18623  0.79091  0.99012  Biso   1.000  Cu
  Cu4      1.0000 0.81377  0.29091  0.50988  Biso   1.000  Cu
  N1       1.0000 0.87610  0.12300  0.07680  Biso   1.000  N
  N2       1.0000 0.12390  0.62300  0.42320  Biso   1.000  N
  N3       1.0000 0.12390  0.87700  0.92320  Biso   1.000  N
  N4       1.0000 0.87610  0.37700  0.57680  Biso   1.000  N
  C1       1.0000 0.03730  0.11200  0.19900  Biso   1.000  C
  C2       1.0000 0.96270  0.61200  0.30100  Biso   1.000  C
  C3       1.0000 0.96270  0.88800  0.80100  Biso   1.000  C
  C4       1.0000 0.03730  0.38800  0.69900  Biso   1.000  C
  H1       1.0000 0.11520  0.14510  0.25200  Biso   1.000  H
  H2       1.0000 0.88480  0.64510  0.24800  Biso   1.000  H
  H3       1.0000 0.88480  0.85490  0.74800  Biso   1.000  H
  H4       1.0000 0.11520  0.35490  0.75200  Biso   1.000  H
  C5       1.0000 0.09330  0.05350  0.24990  Biso   1.000  C
  C6       1.0000 0.90670  0.55350  0.25010  Biso   1.000  C
  C7       1.0000 0.90670  0.94650  0.75010  Biso   1.000  C
  C8       1.0000 0.09330  0.44650  0.74990  Biso   1.000  C
  H5       1.0000 0.20800  0.04710  0.33530  Biso   1.000  H
  H6       1.0000 0.79200  0.54710  0.16470  Biso   1.000  H
  H7       1.0000 0.79200  0.95290  0.66470  Biso   1.000  H
  H8       1.0000 0.20800  0.45290  0.83530  Biso   1.000  H
  C9       1.0000 0.97600  0.00460  0.17170  Biso   1.000  C
  C10      1.0000 0.02400  0.50460  0.32830  Biso   1.000  C
  C11      1.0000 0.02400  0.99540  0.82830  Biso   1.000  C
  C12      1.0000 0.97600  0.49540  0.67170  Biso   1.000  C
  H9       1.0000 0.01240  0.96470  0.20400  Biso   1.000  H
  H10      1.0000 0.98760  0.46470  0.29600  Biso   1.000  H
  H11      1.0000 0.98760  0.03530  0.79600  Biso   1.000  H
  H12      1.0000 0.01240  0.53530  0.70400  Biso   1.000  H
  C13      1.0000 0.80460  0.01480  0.04550  Biso   1.000  C
  C14      1.0000 0.19540  0.51480  0.45450  Biso   1.000  C
  C15      1.0000 0.19540  0.98520  0.95450  Biso   1.000  C
  C16      1.0000 0.80460  0.48520  0.54550  Biso   1.000  C
  C17      1.0000 0.75890  0.07560  0.99920  Biso   1.000  C
  C18      1.0000 0.24110  0.57560  0.50080  Biso   1.000  C
  C19      1.0000 0.24110  0.92440  0.00080  Biso   1.000  C
  C20      1.0000 0.75890  0.42440  0.49920  Biso   1.000  C
  H13      1.0000 0.64610  0.08340  0.91380  Biso   1.000  H
  H14      1.0000 0.35390  0.58340  0.58620  Biso   1.000  H
  H15      1.0000 0.35390  0.91660  0.08620  Biso   1.000  H
  H16      1.0000 0.64610  0.41660  0.41380  Biso   1.000  H
  N5       1.0000 0.68820  0.96404  0.97010  Biso   1.000  N
  N6       1.0000 0.31180  0.46404  0.52990  Biso   1.000  N
  N7       1.0000 0.31180  0.03596  0.02990  Biso   1.000  N
  N8       1.0000 0.68820  0.53596  0.47010  Biso   1.000  N
  H17      1.0000 0.72350  0.92920  0.01010  Biso   1.000  H
  H18      1.0000 0.27650  0.42920  0.48990  Biso   1.000  H
  H19      1.0000 0.27650  0.07080  0.98990  Biso   1.000  H
  H20      1.0000 0.72350  0.57080  0.51010  Biso   1.000  H
  C21      1.0000 0.52680  0.96270  0.84190  Biso   1.000  C
  C22      1.0000 0.47320  0.46270  0.65810  Biso   1.000  C
  C23      1.0000 0.47320  0.03730  0.15810  Biso   1.000  C
  C24      1.0000 0.52680  0.53730  0.34190  Biso   1.000  C
  O1       1.0000 0.44820  0.00848  0.77200  Biso   1.000  O
  O2       1.0000 0.55180  0.50848  0.72800  Biso   1.000  O
  O3       1.0000 0.55180  0.99152  0.22800  Biso   1.000  O
  O4       1.0000 0.44820  0.49152  0.27200  Biso   1.000  O
  N9       1.0000 0.45980  0.90380  0.79720  Biso   1.000  N
  N10      1.0000 0.54020  0.40380  0.70280  Biso   1.000  N
  N11      1.0000 0.54020  0.09620  0.20280  Biso   1.000  N
  N12      1.0000 0.45980  0.59620  0.29720  Biso   1.000  N
  H21      1.0000 0.51630  0.87500  0.85490  Biso   1.000  H
  H22      1.0000 0.48370  0.37500  0.64510  Biso   1.000  H
  H23      1.0000 0.48370  0.12500  0.14510  Biso   1.000  H
  H24      1.0000 0.51630  0.62500  0.35490  Biso   1.000  H
  C25      1.0000 0.31070  0.88580  0.66890  Biso   1.000  C
  C26      1.0000 0.68930  0.38580  0.83110  Biso   1.000  C
  C27      1.0000 0.68930  0.11420  0.33110  Biso   1.000  C
  C28      1.0000 0.31070  0.61420  0.16890  Biso   1.000  C
  C29      1.0000 0.31530  0.82430  0.63900  Biso   1.000  C
  C30      1.0000 0.68470  0.32430  0.86100  Biso   1.000  C
  C31      1.0000 0.68470  0.17570  0.36100  Biso   1.000  C
  C32      1.0000 0.31530  0.67570  0.13900  Biso   1.000  C
  H25      1.0000 0.41750  0.79900  0.70500  Biso   1.000  H
  H26      1.0000 0.58250  0.29900  0.79500  Biso   1.000  H
  H27      1.0000 0.58250  0.20100  0.29500  Biso   1.000  H
  H28      1.0000 0.41750  0.70100  0.20500  Biso   1.000  H
  N13      1.0000 0.18250  0.79970  0.52220  Biso   1.000  N
  N14      1.0000 0.81750  0.29970  0.97780  Biso   1.000  N
  N15      1.0000 0.81750  0.20030  0.47780  Biso   1.000  N
  N16      1.0000 0.18250  0.70030  0.02220  Biso   1.000  N
  C33      1.0000 0.03610  0.83600  0.42560  Biso   1.000  C
  C34      1.0000 0.96390  0.33600  0.07440  Biso   1.000  C
  C35      1.0000 0.96390  0.16400  0.57440  Biso   1.000  C
  C36      1.0000 0.03610  0.66400  0.92560  Biso   1.000  C
  H29      1.0000 0.94370  0.81930  0.34270  Biso   1.000  H
  H30      1.0000 0.05630  0.31930  0.15730  Biso   1.000  H
  H31      1.0000 0.05630  0.18070  0.65730  Biso   1.000  H
  H32      1.0000 0.94370  0.68070  0.84270  Biso   1.000  H
  C37      1.0000 0.02010  0.89730  0.44660  Biso   1.000  C
  C38      1.0000 0.97990  0.39730  0.05340  Biso   1.000  C
  C39      1.0000 0.97990  0.10270  0.55340  Biso   1.000  C
  C40      1.0000 0.02010  0.60270  0.94660  Biso   1.000  C
  H33      1.0000 0.91730  0.92160  0.37850  Biso   1.000  H
  H34      1.0000 0.08270  0.42160  0.12150  Biso   1.000  H
  H35      1.0000 0.08270  0.07840  0.62150  Biso   1.000  H
  H36      1.0000 0.91730  0.57840  0.87850  Biso   1.000  H
  C41      1.0000 0.15690  0.92260  0.56930  Biso   1.000  C
  C42      1.0000 0.84310  0.42260  0.93070  Biso   1.000  C
  C43      1.0000 0.84310  0.07740  0.43070  Biso   1.000  C
  C44      1.0000 0.15690  0.57740  0.06930  Biso   1.000  C
  H37      1.0000 0.14590  0.96390  0.58470  Biso   1.000  H
  H38      1.0000 0.85410  0.46390  0.91530  Biso   1.000  H
  H39      1.0000 0.85410  0.03610  0.41530  Biso   1.000  H
  H40      1.0000 0.14590  0.53610  0.08470  Biso   1.000  H
  O5       1.0000 0.91020  0.18881  0.89030  Biso   1.000  O
  O6       1.0000 0.08980  0.68881  0.60970  Biso   1.000  O
  O7       1.0000 0.08980  0.81119  0.10970  Biso   1.000  O
  O8       1.0000 0.91020  0.31119  0.39030  Biso   1.000  O
  S1       1.0000 0.13800  0.20378  0.94880  Biso   1.000  S
  S2       1.0000 0.86200  0.70378  0.55120  Biso   1.000  S
  S3       1.0000 0.86200  0.79622  0.05120  Biso   1.000  S
  S4       1.0000 0.13800  0.29622  0.44880  Biso   1.000  S
  O9       1.0000 0.24300  0.21020  0.09160  Biso   1.000  O
  O10      1.0000 0.75700  0.71020  0.40840  Biso   1.000  O
  O11      1.0000 0.75700  0.78980  0.90840  Biso   1.000  O
  O12      1.0000 0.24300  0.28980  0.59160  Biso   1.000  O
  O13      1.0000 0.23440  0.15390  0.91690  Biso   1.000  O
  O14      1.0000 0.76560  0.65390  0.58310  Biso   1.000  O
  O15      1.0000 0.76560  0.84610  0.08310  Biso   1.000  O
  O16      1.0000 0.23440  0.34610  0.41690  Biso   1.000  O
  O17      1.0000 0.14970  0.26126  0.88840  Biso   1.000  O
  O18      1.0000 0.85030  0.76126  0.61160  Biso   1.000  O
  O19      1.0000 0.85030  0.73874  0.11160  Biso   1.000  O
  O20      1.0000 0.14970  0.23874  0.38840  Biso   1.000  O
  O21      1.0000 0.48930  0.19319  0.83910  Biso   1.000  O
  O22      1.0000 0.51070  0.69319  0.66090  Biso   1.000  O
  O23      1.0000 0.51070  0.80681  0.16090  Biso   1.000  O
  O24      1.0000 0.48930  0.30681  0.33910  Biso   1.000  O
  O25      1.0000 0.76440  0.22819  0.15140  Biso   1.000  O
  O26      1.0000 0.23560  0.72819  0.34860  Biso   1.000  O
  O27      1.0000 0.23560  0.77181  0.84860  Biso   1.000  O
  O28      1.0000 0.76440  0.27181  0.65140  Biso   1.000  O
  O29      1.0000 0.50000  0.17580  0.60110  Biso   1.000  O
  O30      1.0000 0.50000  0.67580  0.89890  Biso   1.000  O
  O31      1.0000 0.50000  0.82420  0.39890  Biso   1.000  O
  O32      1.0000 0.50000  0.32420  0.10110  Biso   1.000  O
  O33      1.0000 0.52180  0.04980  0.58100  Biso   1.000  O
  O34      1.0000 0.47820  0.54980  0.91900  Biso   1.000  O
  O35      1.0000 0.47820  0.95020  0.41900  Biso   1.000  O
  O36      1.0000 0.52180  0.45020  0.08100  Biso   1.000  O
  H41      1.0000 0.39820  0.18370  0.85930  Biso   1.000  H
  H42      1.0000 0.60180  0.68370  0.64070  Biso   1.000  H
  H43      1.0000 0.60180  0.81630  0.14070  Biso   1.000  H
  H44      1.0000 0.39820  0.31630  0.35930  Biso   1.000  H
  H45      1.0000 0.43890  0.18610  0.75580  Biso   1.000  H
  H46      1.0000 0.56110  0.68610  0.74420  Biso   1.000  H
  H47      1.0000 0.56110  0.81390  0.24420  Biso   1.000  H
  H48      1.0000 0.43890  0.31390  0.25580  Biso   1.000  H
  H49      1.0000 0.67570  0.26230  0.14080  Biso   1.000  H
  H50      1.0000 0.32430  0.76230  0.35920  Biso   1.000  H
  H51      1.0000 0.32430  0.73770  0.85920  Biso   1.000  H
  H52      1.0000 0.67570  0.23770  0.64080  Biso   1.000  H
  H53      1.0000 0.90620  0.22860  0.23190  Biso   1.000  H
  H54      1.0000 0.09380  0.72860  0.26810  Biso   1.000  H
  H55      1.0000 0.09380  0.77140  0.76810  Biso   1.000  H
  H56      1.0000 0.90620  0.27140  0.73190  Biso   1.000  H
  H57      1.0000 0.37090  0.19180  0.53170  Biso   1.000  H
  H58      1.0000 0.62910  0.69180  0.96830  Biso   1.000  H
  H59      1.0000 0.62910  0.80820  0.46830  Biso   1.000  H
  H60      1.0000 0.37090  0.30820  0.03170  Biso   1.000  H
  H61      1.0000 0.46930  0.13880  0.58230  Biso   1.000  H
  H62      1.0000 0.53070  0.63880  0.91770  Biso   1.000  H
  H63      1.0000 0.53070  0.86120  0.41770  Biso   1.000  H
  H64      1.0000 0.46930  0.36120  0.08230  Biso   1.000  H
  H65      1.0000 0.47300  0.04520  0.64290  Biso   1.000  H
  H66      1.0000 0.52700  0.54520  0.85710  Biso   1.000  H
  H67      1.0000 0.52700  0.95480  0.35710  Biso   1.000  H
  H68      1.0000 0.47300  0.45480  0.14290  Biso   1.000  H
  H69      1.0000 0.47300  0.02990  0.52510  Biso   1.000  H
  H70      1.0000 0.52700  0.52990  0.97490  Biso   1.000  H
  H71      1.0000 0.52700  0.97010  0.47490  Biso   1.000  H
  H72      1.0000 0.47300  0.47010  0.02510  Biso   1.000  H
