data_image0
_cell_length_a       8.206
_cell_length_b       6.196
_cell_length_c       29.917
_cell_angle_alpha    90
_cell_angle_beta     92.91
_cell_angle_gamma    90

_symmetry_space_group_name_H-M    "P 1"
_symmetry_int_tables_number       1

loop_
  _symmetry_equiv_pos_as_xyz
  'x, y, z'

loop_
  _atom_site_label
  _atom_site_occupancy
  _atom_site_fract_x
  _atom_site_fract_y
  _atom_site_fract_z
  _atom_site_thermal_displace_type
  _atom_site_B_iso_or_equiv
  _atom_site_type_symbol
  Cu1      1.0000 0.06870  0.24910  0.01590  Biso   1.000  Cu
  Cu2      1.0000 0.93130  0.74910  0.48410  Biso   1.000  Cu
  Cu3      1.0000 0.93130  0.75090  0.98410  Biso   1.000  Cu
  Cu4      1.0000 0.06870  0.25090  0.51590  Biso   1.000  Cu
  Cl1      1.0000 0.02690  0.37010  0.94240  Biso   1.000  Cl
  Cl2      1.0000 0.97310  0.87010  0.55760  Biso   1.000  Cl
  Cl3      1.0000 0.97310  0.62990  0.05760  Biso   1.000  Cl
  Cl4      1.0000 0.02690  0.12990  0.44240  Biso   1.000  Cl
  Cl5      1.0000 0.99070  0.57190  0.04980  Biso   1.000  Cl
  Cl6      1.0000 0.00930  0.07190  0.45020  Biso   1.000  Cl
  Cl7      1.0000 0.00930  0.42810  0.95020  Biso   1.000  Cl
  Cl8      1.0000 0.99070  0.92810  0.54980  Biso   1.000  Cl
  Cl9      1.0000 0.80930  0.12300  0.01710  Biso   1.000  Cl
  Cl10     1.0000 0.19070  0.62300  0.48290  Biso   1.000  Cl
  Cl11     1.0000 0.19070  0.87700  0.98290  Biso   1.000  Cl
  Cl12     1.0000 0.80930  0.37700  0.51710  Biso   1.000  Cl
  Cl13     1.0000 0.20470  0.98190  0.98470  Biso   1.000  Cl
  Cl14     1.0000 0.79530  0.48190  0.51530  Biso   1.000  Cl
  Cl15     1.0000 0.79530  0.01810  0.01530  Biso   1.000  Cl
  Cl16     1.0000 0.20470  0.51810  0.48470  Biso   1.000  Cl
  N1       1.0000 0.11770  0.12210  0.07830  Biso   1.000  N
  N2       1.0000 0.88230  0.62210  0.42170  Biso   1.000  N
  N3       1.0000 0.88230  0.87790  0.92170  Biso   1.000  N
  N4       1.0000 0.11770  0.37790  0.57830  Biso   1.000  N
  C1       1.0000 0.55810  0.08440  0.11320  Biso   1.000  C
  C2       1.0000 0.44190  0.58440  0.38680  Biso   1.000  C
  C3       1.0000 0.44190  0.91560  0.88680  Biso   1.000  C
  C4       1.0000 0.55810  0.41560  0.61320  Biso   1.000  C
  C5       1.0000 0.40470  0.02930  0.09440  Biso   1.000  C
  C6       1.0000 0.59530  0.52930  0.40560  Biso   1.000  C
  C7       1.0000 0.59530  0.97070  0.90560  Biso   1.000  C
  C8       1.0000 0.40470  0.47070  0.59440  Biso   1.000  C
  C9       1.0000 0.27410  0.17030  0.09910  Biso   1.000  C
  C10      1.0000 0.72590  0.67030  0.40090  Biso   1.000  C
  C11      1.0000 0.72590  0.82970  0.90090  Biso   1.000  C
  C12      1.0000 0.27410  0.32970  0.59910  Biso   1.000  C
  C13      1.0000 0.29760  0.36160  0.12220  Biso   1.000  C
  C14      1.0000 0.70240  0.86160  0.37780  Biso   1.000  C
  C15      1.0000 0.70240  0.63840  0.87780  Biso   1.000  C
  C16      1.0000 0.29760  0.13840  0.62220  Biso   1.000  C
  C17      1.0000 0.44900  0.41350  0.14090  Biso   1.000  C
  C18      1.0000 0.55100  0.91350  0.35910  Biso   1.000  C
  C19      1.0000 0.55100  0.58650  0.85910  Biso   1.000  C
  C20      1.0000 0.44900  0.08650  0.64090  Biso   1.000  C
  C21      1.0000 0.58140  0.27540  0.13630  Biso   1.000  C
  C22      1.0000 0.41860  0.77540  0.36370  Biso   1.000  C
  C23      1.0000 0.41860  0.72460  0.86370  Biso   1.000  C
  C24      1.0000 0.58140  0.22460  0.63630  Biso   1.000  C
  C25      1.0000 0.74830  0.33670  0.15410  Biso   1.000  C
  C26      1.0000 0.25170  0.83670  0.34590  Biso   1.000  C
  C27      1.0000 0.25170  0.66330  0.84590  Biso   1.000  C
  C28      1.0000 0.74830  0.16330  0.65410  Biso   1.000  C
  O1       1.0000 0.87040  0.25370  0.13970  Biso   1.000  O
  O2       1.0000 0.12960  0.75370  0.36030  Biso   1.000  O
  O3       1.0000 0.12960  0.74630  0.86030  Biso   1.000  O
  O4       1.0000 0.87040  0.24630  0.63970  Biso   1.000  O
  C29      1.0000 0.76630  0.50460  0.18980  Biso   1.000  C
  C30      1.0000 0.23370  0.00460  0.31020  Biso   1.000  C
  C31      1.0000 0.23370  0.49540  0.81020  Biso   1.000  C
  C32      1.0000 0.76630  0.99540  0.68980  Biso   1.000  C
  C33      1.0000 0.68500  0.48320  0.22920  Biso   1.000  C
  C34      1.0000 0.31500  0.98320  0.27080  Biso   1.000  C
  C35      1.0000 0.31500  0.51680  0.77080  Biso   1.000  C
  C36      1.0000 0.68500  0.01680  0.72920  Biso   1.000  C
  C37      1.0000 0.70840  0.63050  0.26330  Biso   1.000  C
  C38      1.0000 0.29160  0.13050  0.23670  Biso   1.000  C
  C39      1.0000 0.29160  0.36950  0.73670  Biso   1.000  C
  C40      1.0000 0.70840  0.86950  0.76330  Biso   1.000  C
  C41      1.0000 0.80580  0.80500  0.25800  Biso   1.000  C
  C42      1.0000 0.19420  0.30500  0.24200  Biso   1.000  C
  C43      1.0000 0.19420  0.19500  0.74200  Biso   1.000  C
  C44      1.0000 0.80580  0.69500  0.75800  Biso   1.000  C
  C45      1.0000 0.88560  0.83100  0.21950  Biso   1.000  C
  C46      1.0000 0.11440  0.33100  0.28050  Biso   1.000  C
  C47      1.0000 0.11440  0.16900  0.78050  Biso   1.000  C
  C48      1.0000 0.88560  0.66900  0.71950  Biso   1.000  C
  C49      1.0000 0.86690  0.67990  0.18510  Biso   1.000  C
  C50      1.0000 0.13310  0.17990  0.31490  Biso   1.000  C
  C51      1.0000 0.13310  0.32010  0.81490  Biso   1.000  C
  C52      1.0000 0.86690  0.82010  0.68510  Biso   1.000  C
  O5       1.0000 0.28720  0.41400  0.01620  Biso   1.000  O
  O6       1.0000 0.71280  0.91400  0.48380  Biso   1.000  O
  O7       1.0000 0.71280  0.58600  0.98380  Biso   1.000  O
  O8       1.0000 0.28720  0.08600  0.51620  Biso   1.000  O
  C53      1.0000 0.41800  0.35480  0.99060  Biso   1.000  C
  C54      1.0000 0.58200  0.85480  0.50940  Biso   1.000  C
  C55      1.0000 0.58200  0.64520  0.00940  Biso   1.000  C
  C56      1.0000 0.41800  0.14520  0.49060  Biso   1.000  C
  C57      1.0000 0.44120  0.48740  0.00240  Biso   1.000  C
  C58      1.0000 0.55880  0.98740  0.49760  Biso   1.000  C
  C59      1.0000 0.55880  0.51260  0.99760  Biso   1.000  C
  C60      1.0000 0.44120  0.01260  0.50240  Biso   1.000  C
