data_image0
_cell_length_a       29.903
_cell_length_b       6.202
_cell_length_c       8.195
_cell_angle_alpha    90
_cell_angle_beta     92.88
_cell_angle_gamma    90

_symmetry_space_group_name_H-M    "P 1"
_symmetry_int_tables_number       1

loop_
  _symmetry_equiv_pos_as_xyz
  'x, y, z'

loop_
  _atom_site_label
  _atom_site_occupancy
  _atom_site_fract_x
  _atom_site_fract_y
  _atom_site_fract_z
  _atom_site_thermal_displace_type
  _atom_site_B_iso_or_equiv
  _atom_site_type_symbol
  Cu1      1.0000 0.48410  0.25140  0.43130  Biso   1.000  Cu
  Cu2      1.0000 0.01590  0.75140  0.56870  Biso   1.000  Cu
  Cu3      1.0000 0.51590  0.74860  0.56870  Biso   1.000  Cu
  Cu4      1.0000 0.98410  0.24860  0.43130  Biso   1.000  Cu
  Cl1      1.0000 0.44620  0.89600  0.51780  Biso   1.000  Cl
  Cl2      1.0000 0.05380  0.39600  0.48220  Biso   1.000  Cl
  Cl3      1.0000 0.55380  0.10400  0.48220  Biso   1.000  Cl
  Cl4      1.0000 0.94620  0.60400  0.51780  Biso   1.000  Cl
  Cl5      1.0000 0.51640  0.56840  0.30280  Biso   1.000  Cl
  Cl6      1.0000 0.98360  0.06840  0.69720  Biso   1.000  Cl
  Cl7      1.0000 0.48360  0.43160  0.69720  Biso   1.000  Cl
  Cl8      1.0000 0.01640  0.93160  0.30280  Biso   1.000  Cl
  O1       1.0000 0.48240  0.08610  0.21310  Biso   1.000  O
  O2       1.0000 0.01760  0.58610  0.78690  Biso   1.000  O
  O3       1.0000 0.51760  0.91390  0.78690  Biso   1.000  O
  O4       1.0000 0.98240  0.41390  0.21310  Biso   1.000  O
  N1       1.0000 0.42210  0.37640  0.38300  Biso   1.000  N
  N2       1.0000 0.07790  0.87640  0.61700  Biso   1.000  N
  N3       1.0000 0.57790  0.62360  0.61700  Biso   1.000  N
  N4       1.0000 0.92210  0.12360  0.38300  Biso   1.000  N
  C1       1.0000 0.40070  0.32970  0.22360  Biso   1.000  C
  C2       1.0000 0.09930  0.82970  0.77640  Biso   1.000  C
  C3       1.0000 0.59930  0.67030  0.77640  Biso   1.000  C
  C4       1.0000 0.90070  0.17030  0.22360  Biso   1.000  C
  C5       1.0000 0.37740  0.13700  0.20310  Biso   1.000  C
  C6       1.0000 0.12260  0.63700  0.79690  Biso   1.000  C
  C7       1.0000 0.62260  0.86300  0.79690  Biso   1.000  C
  C8       1.0000 0.87740  0.36300  0.20310  Biso   1.000  C
  C9       1.0000 0.35890  0.08870  0.05020  Biso   1.000  C
  C10      1.0000 0.14110  0.58870  0.94980  Biso   1.000  C
  C11      1.0000 0.64110  0.91130  0.94980  Biso   1.000  C
  C12      1.0000 0.85890  0.41130  0.05020  Biso   1.000  C
  C13      1.0000 0.36400  0.22290  0.91860  Biso   1.000  C
  C14      1.0000 0.13600  0.72290  0.08140  Biso   1.000  C
  C15      1.0000 0.63600  0.77710  0.08140  Biso   1.000  C
  C16      1.0000 0.86400  0.27710  0.91860  Biso   1.000  C
  C17      1.0000 0.38710  0.41660  0.94270  Biso   1.000  C
  C18      1.0000 0.11290  0.91660  0.05730  Biso   1.000  C
  C19      1.0000 0.61290  0.58340  0.05730  Biso   1.000  C
  C20      1.0000 0.88710  0.08340  0.94270  Biso   1.000  C
  C21      1.0000 0.40590  0.46900  0.09600  Biso   1.000  C
  C22      1.0000 0.09410  0.96900  0.90400  Biso   1.000  C
  C23      1.0000 0.59410  0.53100  0.90400  Biso   1.000  C
  C24      1.0000 0.90590  0.03100  0.09600  Biso   1.000  C
  O5       1.0000 0.36060  0.24750  0.62950  Biso   1.000  O
  O6       1.0000 0.13940  0.74750  0.37050  Biso   1.000  O
  O7       1.0000 0.63940  0.75250  0.37050  Biso   1.000  O
  O8       1.0000 0.86060  0.25250  0.62950  Biso   1.000  O
  C25      1.0000 0.34580  0.16230  0.75010  Biso   1.000  C
  C26      1.0000 0.15420  0.66230  0.24990  Biso   1.000  C
  C27      1.0000 0.65420  0.83770  0.24990  Biso   1.000  C
  C28      1.0000 0.84580  0.33770  0.75010  Biso   1.000  C
  C29      1.0000 0.31000  0.99630  0.73480  Biso   1.000  C
  C30      1.0000 0.19000  0.49630  0.26520  Biso   1.000  C
  C31      1.0000 0.69000  0.00370  0.26520  Biso   1.000  C
  C32      1.0000 0.81000  0.50370  0.73480  Biso   1.000  C
  C33      1.0000 0.27090  0.01740  0.81320  Biso   1.000  C
  C34      1.0000 0.22910  0.51740  0.18680  Biso   1.000  C
  C35      1.0000 0.72910  0.98260  0.18680  Biso   1.000  C
  C36      1.0000 0.77090  0.48260  0.81320  Biso   1.000  C
  C37      1.0000 0.23630  0.87130  0.78800  Biso   1.000  C
  C38      1.0000 0.26370  0.37130  0.21200  Biso   1.000  C
  C39      1.0000 0.76370  0.12870  0.21200  Biso   1.000  C
  C40      1.0000 0.73630  0.62870  0.78800  Biso   1.000  C
  C41      1.0000 0.24290  0.69350  0.69360  Biso   1.000  C
  C42      1.0000 0.25710  0.19350  0.30640  Biso   1.000  C
  C43      1.0000 0.75710  0.30650  0.30640  Biso   1.000  C
  C44      1.0000 0.74290  0.80650  0.69360  Biso   1.000  C
  C45      1.0000 0.28060  0.66870  0.61410  Biso   1.000  C
  C46      1.0000 0.21940  0.16870  0.38590  Biso   1.000  C
  C47      1.0000 0.71940  0.33130  0.38590  Biso   1.000  C
  C48      1.0000 0.78060  0.83130  0.61410  Biso   1.000  C
  C49      1.0000 0.31570  0.82240  0.63180  Biso   1.000  C
  C50      1.0000 0.18430  0.32240  0.36820  Biso   1.000  C
  C51      1.0000 0.68430  0.17760  0.36820  Biso   1.000  C
  C52      1.0000 0.81570  0.67760  0.63180  Biso   1.000  C
  C53      1.0000 0.49920  0.01390  0.06190  Biso   1.000  C
  C54      1.0000 0.00080  0.51390  0.93810  Biso   1.000  C
  C55      1.0000 0.50080  0.98610  0.93810  Biso   1.000  C
  C56      1.0000 0.99920  0.48610  0.06190  Biso   1.000  C
  C57      1.0000 0.51330  0.14620  0.08120  Biso   1.000  C
  C58      1.0000 0.98670  0.64620  0.91880  Biso   1.000  C
  C59      1.0000 0.48670  0.85380  0.91880  Biso   1.000  C
  C60      1.0000 0.01330  0.35380  0.08120  Biso   1.000  C
  H1       1.0000 0.37400  0.04100  0.29200  Biso   1.000  H
  H2       1.0000 0.12600  0.54100  0.70800  Biso   1.000  H
  H3       1.0000 0.62600  0.95900  0.70800  Biso   1.000  H
  H4       1.0000 0.87400  0.45900  0.29200  Biso   1.000  H
  H5       1.0000 0.34200  0.96000  0.03500  Biso   1.000  H
  H6       1.0000 0.15800  0.46000  0.96500  Biso   1.000  H
  H7       1.0000 0.65800  0.04000  0.96500  Biso   1.000  H
  H8       1.0000 0.84200  0.54000  0.03500  Biso   1.000  H
  H9       1.0000 0.39000  0.51300  0.85400  Biso   1.000  H
  H10      1.0000 0.11000  0.01300  0.14600  Biso   1.000  H
  H11      1.0000 0.61000  0.48700  0.14600  Biso   1.000  H
  H12      1.0000 0.89000  0.98700  0.85400  Biso   1.000  H
  H13      1.0000 0.42200  0.60000  0.11200  Biso   1.000  H
  H14      1.0000 0.07800  0.10000  0.88800  Biso   1.000  H
  H15      1.0000 0.57800  0.40000  0.88800  Biso   1.000  H
  H16      1.0000 0.92200  0.90000  0.11200  Biso   1.000  H
  H17      1.0000 0.26700  0.13500  0.88600  Biso   1.000  H
  H18      1.0000 0.23300  0.63500  0.11400  Biso   1.000  H
  H19      1.0000 0.73300  0.86500  0.11400  Biso   1.000  H
  H20      1.0000 0.76700  0.36500  0.88600  Biso   1.000  H
  H21      1.0000 0.20800  0.89500  0.83600  Biso   1.000  H
  H22      1.0000 0.29200  0.39500  0.16400  Biso   1.000  H
  H23      1.0000 0.79200  0.10500  0.16400  Biso   1.000  H
  H24      1.0000 0.70800  0.60500  0.83600  Biso   1.000  H
  H25      1.0000 0.22000  0.58600  0.68400  Biso   1.000  H
  H26      1.0000 0.28000  0.08600  0.31600  Biso   1.000  H
  H27      1.0000 0.78000  0.41400  0.31600  Biso   1.000  H
  H28      1.0000 0.72000  0.91400  0.68400  Biso   1.000  H
  H29      1.0000 0.28400  0.54700  0.54500  Biso   1.000  H
  H30      1.0000 0.21600  0.04700  0.45500  Biso   1.000  H
  H31      1.0000 0.71600  0.45300  0.45500  Biso   1.000  H
  H32      1.0000 0.78400  0.95300  0.54500  Biso   1.000  H
  H33      1.0000 0.34200  0.80600  0.57500  Biso   1.000  H
  H34      1.0000 0.15800  0.30600  0.42500  Biso   1.000  H
  H35      1.0000 0.65800  0.19400  0.42500  Biso   1.000  H
  H36      1.0000 0.84200  0.69400  0.57500  Biso   1.000  H
  H37      1.0000 0.42400  0.52900  0.39200  Biso   1.000  H
  H38      1.0000 0.07600  0.02900  0.60800  Biso   1.000  H
  H39      1.0000 0.57600  0.47100  0.60800  Biso   1.000  H
  H40      1.0000 0.92400  0.97100  0.39200  Biso   1.000  H
  H41      1.0000 0.40300  0.32400  0.46400  Biso   1.000  H
  H42      1.0000 0.09700  0.82400  0.53600  Biso   1.000  H
  H43      1.0000 0.59700  0.67600  0.53600  Biso   1.000  H
  H44      1.0000 0.90300  0.17600  0.46400  Biso   1.000  H
