data_image0
_cell_length_a       6.869
_cell_length_b       22.985
_cell_length_c       6.298
_cell_angle_alpha    90
_cell_angle_beta     90
_cell_angle_gamma    90

_symmetry_space_group_name_H-M    "P 1"
_symmetry_int_tables_number       1

loop_
  _symmetry_equiv_pos_as_xyz
  'x, y, z'

loop_
  _atom_site_label
  _atom_site_occupancy
  _atom_site_fract_x
  _atom_site_fract_y
  _atom_site_fract_z
  _atom_site_thermal_displace_type
  _atom_site_B_iso_or_equiv
  _atom_site_type_symbol
  Cu1      1.0000 0.50000  0.50000  0.50000  Biso   1.000  Cu
  Cu2      1.0000 0.00000  0.00000  0.00000  Biso   1.000  Cu
  Cu3      1.0000 0.00000  0.00000  0.50000  Biso   1.000  Cu
  Cu4      1.0000 0.50000  0.50000  0.00000  Biso   1.000  Cu
  O1       1.0000 0.52240  0.58100  0.42680  Biso   1.000  O
  O2       1.0000 0.97760  0.91900  0.92680  Biso   1.000  O
  O3       1.0000 0.02240  0.91900  0.57320  Biso   1.000  O
  O4       1.0000 0.47760  0.58100  0.07320  Biso   1.000  O
  O5       1.0000 0.47760  0.41900  0.57320  Biso   1.000  O
  O6       1.0000 0.02240  0.08100  0.07320  Biso   1.000  O
  O7       1.0000 0.97760  0.08100  0.42680  Biso   1.000  O
  O8       1.0000 0.52240  0.41900  0.92680  Biso   1.000  O
  C1       1.0000 0.50000  0.60540  0.25000  Biso   1.000  C
  C2       1.0000 0.00000  0.89460  0.75000  Biso   1.000  C
  C3       1.0000 0.50000  0.39460  0.75000  Biso   1.000  C
  C4       1.0000 0.00000  0.10540  0.25000  Biso   1.000  C
  C5       1.0000 0.50000  0.67110  0.25000  Biso   1.000  C
  C6       1.0000 0.00000  0.82890  0.75000  Biso   1.000  C
  C7       1.0000 0.50000  0.32890  0.75000  Biso   1.000  C
  C8       1.0000 0.00000  0.17110  0.25000  Biso   1.000  C
  C9       1.0000 0.43490  0.70150  0.07070  Biso   1.000  C
  C10      1.0000 0.06510  0.79850  0.57070  Biso   1.000  C
  C11      1.0000 0.93490  0.79850  0.92930  Biso   1.000  C
  C12      1.0000 0.56510  0.70150  0.42930  Biso   1.000  C
  C13      1.0000 0.56510  0.29850  0.92930  Biso   1.000  C
  C14      1.0000 0.93490  0.20150  0.42930  Biso   1.000  C
  C15      1.0000 0.06510  0.20150  0.07070  Biso   1.000  C
  C16      1.0000 0.43490  0.29850  0.57070  Biso   1.000  C
  C17      1.0000 0.43000  0.76150  0.07370  Biso   1.000  C
  C18      1.0000 0.07000  0.73850  0.57370  Biso   1.000  C
  C19      1.0000 0.93000  0.73850  0.92630  Biso   1.000  C
  C20      1.0000 0.57000  0.76150  0.42630  Biso   1.000  C
  C21      1.0000 0.57000  0.23850  0.92630  Biso   1.000  C
  C22      1.0000 0.93000  0.26150  0.42630  Biso   1.000  C
  C23      1.0000 0.07000  0.26150  0.07370  Biso   1.000  C
  C24      1.0000 0.43000  0.23850  0.57370  Biso   1.000  C
  C25      1.0000 0.50000  0.79150  0.25000  Biso   1.000  C
  C26      1.0000 0.00000  0.70850  0.75000  Biso   1.000  C
  C27      1.0000 0.50000  0.20850  0.75000  Biso   1.000  C
  C28      1.0000 0.00000  0.29150  0.25000  Biso   1.000  C
  C29      1.0000 0.50000  0.85790  0.25000  Biso   1.000  C
  C30      1.0000 0.00000  0.64210  0.75000  Biso   1.000  C
  C31      1.0000 0.50000  0.14210  0.75000  Biso   1.000  C
  C32      1.0000 0.00000  0.35790  0.25000  Biso   1.000  C
  O9       1.0000 0.40210  0.88280  0.10880  Biso   1.000  O
  O10      1.0000 0.09790  0.61720  0.60880  Biso   1.000  O
  O11      1.0000 0.90210  0.61720  0.89120  Biso   1.000  O
  O12      1.0000 0.59790  0.88280  0.39120  Biso   1.000  O
  O13      1.0000 0.59790  0.11720  0.89120  Biso   1.000  O
  O14      1.0000 0.90210  0.38280  0.39120  Biso   1.000  O
  O15      1.0000 0.09790  0.38280  0.10880  Biso   1.000  O
  O16      1.0000 0.40210  0.11720  0.60880  Biso   1.000  O
  O17      1.0000 0.71770  0.48080  0.30600  Biso   1.000  O
  O18      1.0000 0.78230  0.01920  0.80600  Biso   1.000  O
  O19      1.0000 0.21770  0.01920  0.69400  Biso   1.000  O
  O20      1.0000 0.28230  0.48080  0.19400  Biso   1.000  O
  O21      1.0000 0.28230  0.51920  0.69400  Biso   1.000  O
  O22      1.0000 0.21770  0.98080  0.19400  Biso   1.000  O
  O23      1.0000 0.78230  0.98080  0.30600  Biso   1.000  O
  O24      1.0000 0.71770  0.51920  0.80600  Biso   1.000  O
  H1       1.0000 0.38100  0.68500  0.95500  Biso   1.000  H
  H2       1.0000 0.11900  0.81500  0.45500  Biso   1.000  H
  H3       1.0000 0.88100  0.81500  0.04500  Biso   1.000  H
  H4       1.0000 0.61900  0.68500  0.54500  Biso   1.000  H
  H5       1.0000 0.61900  0.31500  0.04500  Biso   1.000  H
  H6       1.0000 0.88100  0.18500  0.54500  Biso   1.000  H
  H7       1.0000 0.11900  0.18500  0.95500  Biso   1.000  H
  H8       1.0000 0.38100  0.31500  0.45500  Biso   1.000  H
  H9       1.0000 0.38000  0.77800  0.95600  Biso   1.000  H
  H10      1.0000 0.12000  0.72200  0.45600  Biso   1.000  H
  H11      1.0000 0.88000  0.72200  0.04400  Biso   1.000  H
  H12      1.0000 0.62000  0.77800  0.54400  Biso   1.000  H
  H13      1.0000 0.62000  0.22200  0.04400  Biso   1.000  H
  H14      1.0000 0.88000  0.27800  0.54400  Biso   1.000  H
  H15      1.0000 0.12000  0.27800  0.95600  Biso   1.000  H
  H16      1.0000 0.38000  0.22200  0.45600  Biso   1.000  H
  H17      1.0000 0.78100  0.50500  0.26700  Biso   1.000  H
  H18      1.0000 0.71900  0.99500  0.76700  Biso   1.000  H
  H19      1.0000 0.28100  0.99500  0.73300  Biso   1.000  H
  H20      1.0000 0.21900  0.50500  0.23300  Biso   1.000  H
  H21      1.0000 0.21900  0.49500  0.73300  Biso   1.000  H
  H22      1.0000 0.28100  0.00500  0.23300  Biso   1.000  H
  H23      1.0000 0.71900  0.00500  0.26700  Biso   1.000  H
  H24      1.0000 0.78100  0.49500  0.76700  Biso   1.000  H
  H25      1.0000 0.77200  0.45000  0.33200  Biso   1.000  H
  H26      1.0000 0.72800  0.05000  0.83200  Biso   1.000  H
  H27      1.0000 0.27200  0.05000  0.66800  Biso   1.000  H
  H28      1.0000 0.22800  0.45000  0.16800  Biso   1.000  H
  H29      1.0000 0.22800  0.55000  0.66800  Biso   1.000  H
  H30      1.0000 0.27200  0.95000  0.16800  Biso   1.000  H
  H31      1.0000 0.72800  0.95000  0.33200  Biso   1.000  H
  H32      1.0000 0.77200  0.55000  0.83200  Biso   1.000  H
  O25      1.0000 0.50000  0.93970  0.75000  Biso   1.000  O
  O26      1.0000 0.00000  0.56030  0.25000  Biso   1.000  O
  O27      1.0000 0.50000  0.06030  0.25000  Biso   1.000  O
  O28      1.0000 0.00000  0.43970  0.75000  Biso   1.000  O
  H33      1.0000 0.51300  0.92600  0.64200  Biso   1.000  H
  H34      1.0000 0.98700  0.57400  0.14200  Biso   1.000  H
  H35      1.0000 0.01300  0.57400  0.35800  Biso   1.000  H
  H36      1.0000 0.48700  0.92600  0.85800  Biso   1.000  H
  H37      1.0000 0.48700  0.07400  0.35800  Biso   1.000  H
  H38      1.0000 0.01300  0.42600  0.85800  Biso   1.000  H
  H39      1.0000 0.98700  0.42600  0.64200  Biso   1.000  H
  H40      1.0000 0.51300  0.07400  0.14200  Biso   1.000  H
