data_image0
_cell_length_a       6.874
_cell_length_b       22.9815
_cell_length_c       6.2999
_cell_angle_alpha    90
_cell_angle_beta     90
_cell_angle_gamma    90

_symmetry_space_group_name_H-M    "P 1"
_symmetry_int_tables_number       1

loop_
  _symmetry_equiv_pos_as_xyz
  'x, y, z'

loop_
  _atom_site_label
  _atom_site_occupancy
  _atom_site_fract_x
  _atom_site_fract_y
  _atom_site_fract_z
  _atom_site_thermal_displace_type
  _atom_site_B_iso_or_equiv
  _atom_site_type_symbol
  C1       1.0000 0.50000  0.67010  0.25000  Biso   1.000  C
  C2       1.0000 0.00000  0.82990  0.75000  Biso   1.000  C
  C3       1.0000 0.50000  0.32990  0.75000  Biso   1.000  C
  C4       1.0000 0.00000  0.17010  0.25000  Biso   1.000  C
  C5       1.0000 0.44220  0.70050  0.06850  Biso   1.000  C
  C6       1.0000 0.05780  0.79950  0.56850  Biso   1.000  C
  C7       1.0000 0.94220  0.79950  0.93150  Biso   1.000  C
  C8       1.0000 0.55780  0.70050  0.43150  Biso   1.000  C
  C9       1.0000 0.55780  0.29950  0.93150  Biso   1.000  C
  C10      1.0000 0.94220  0.20050  0.43150  Biso   1.000  C
  C11      1.0000 0.05780  0.20050  0.06850  Biso   1.000  C
  C12      1.0000 0.44220  0.29950  0.56850  Biso   1.000  C
  C13      1.0000 0.44220  0.76140  0.06850  Biso   1.000  C
  C14      1.0000 0.05780  0.73860  0.56850  Biso   1.000  C
  C15      1.0000 0.94220  0.73860  0.93150  Biso   1.000  C
  C16      1.0000 0.55780  0.76140  0.43150  Biso   1.000  C
  C17      1.0000 0.55780  0.23860  0.93150  Biso   1.000  C
  C18      1.0000 0.94220  0.26140  0.43150  Biso   1.000  C
  C19      1.0000 0.05780  0.26140  0.06850  Biso   1.000  C
  C20      1.0000 0.44220  0.23860  0.56850  Biso   1.000  C
  C21      1.0000 0.50000  0.79180  0.25000  Biso   1.000  C
  C22      1.0000 0.00000  0.70820  0.75000  Biso   1.000  C
  C23      1.0000 0.50000  0.20820  0.75000  Biso   1.000  C
  C24      1.0000 0.00000  0.29180  0.25000  Biso   1.000  C
  H1       1.0000 0.40230  0.67960  0.94330  Biso   1.000  H
  H2       1.0000 0.09770  0.82040  0.44330  Biso   1.000  H
  H3       1.0000 0.90230  0.82040  0.05670  Biso   1.000  H
  H4       1.0000 0.59770  0.67960  0.55670  Biso   1.000  H
  H5       1.0000 0.59770  0.32040  0.05670  Biso   1.000  H
  H6       1.0000 0.90230  0.17960  0.55670  Biso   1.000  H
  H7       1.0000 0.09770  0.17960  0.94330  Biso   1.000  H
  H8       1.0000 0.40230  0.32040  0.44330  Biso   1.000  H
  H9       1.0000 0.40230  0.78230  0.94330  Biso   1.000  H
  H10      1.0000 0.09770  0.71770  0.44330  Biso   1.000  H
  H11      1.0000 0.90230  0.71770  0.05670  Biso   1.000  H
  H12      1.0000 0.59770  0.78230  0.55670  Biso   1.000  H
  H13      1.0000 0.59770  0.21770  0.05670  Biso   1.000  H
  H14      1.0000 0.90230  0.28230  0.55670  Biso   1.000  H
  H15      1.0000 0.09770  0.28230  0.94330  Biso   1.000  H
  H16      1.0000 0.40230  0.21770  0.44330  Biso   1.000  H
  C25      1.0000 0.50000  0.60660  0.25000  Biso   1.000  C
  C26      1.0000 0.00000  0.89340  0.75000  Biso   1.000  C
  C27      1.0000 0.50000  0.39340  0.75000  Biso   1.000  C
  C28      1.0000 0.00000  0.10660  0.25000  Biso   1.000  C
  O1       1.0000 0.52760  0.58049  0.42770  Biso   1.000  O
  O2       1.0000 0.97240  0.91951  0.92770  Biso   1.000  O
  O3       1.0000 0.02760  0.91951  0.57230  Biso   1.000  O
  O4       1.0000 0.47240  0.58049  0.07230  Biso   1.000  O
  O5       1.0000 0.47240  0.41951  0.57230  Biso   1.000  O
  O6       1.0000 0.02760  0.08049  0.07230  Biso   1.000  O
  O7       1.0000 0.97240  0.08049  0.42770  Biso   1.000  O
  O8       1.0000 0.52760  0.41951  0.92770  Biso   1.000  O
  C29      1.0000 0.50000  0.85910  0.25000  Biso   1.000  C
  C30      1.0000 0.00000  0.64090  0.75000  Biso   1.000  C
  C31      1.0000 0.50000  0.14090  0.75000  Biso   1.000  C
  C32      1.0000 0.00000  0.35910  0.25000  Biso   1.000  C
  O9       1.0000 0.40350  0.88380  0.10230  Biso   1.000  O
  O10      1.0000 0.09650  0.61620  0.60230  Biso   1.000  O
  O11      1.0000 0.90350  0.61620  0.89770  Biso   1.000  O
  O12      1.0000 0.59650  0.88380  0.39770  Biso   1.000  O
  O13      1.0000 0.59650  0.11620  0.89770  Biso   1.000  O
  O14      1.0000 0.90350  0.38380  0.39770  Biso   1.000  O
  O15      1.0000 0.09650  0.38380  0.10230  Biso   1.000  O
  O16      1.0000 0.40350  0.11620  0.60230  Biso   1.000  O
  Cu1      1.0000 0.50000  0.50000  0.50000  Biso   1.000  Cu
  Cu2      1.0000 0.00000  0.00000  0.00000  Biso   1.000  Cu
  Cu3      1.0000 0.00000  0.00000  0.50000  Biso   1.000  Cu
  Cu4      1.0000 0.50000  0.50000  0.00000  Biso   1.000  Cu
  O17      1.0000 0.72100  0.48240  0.32550  Biso   1.000  O
  O18      1.0000 0.77900  0.01760  0.82550  Biso   1.000  O
  O19      1.0000 0.22100  0.01760  0.67450  Biso   1.000  O
  O20      1.0000 0.27900  0.48240  0.17450  Biso   1.000  O
  O21      1.0000 0.27900  0.51760  0.67450  Biso   1.000  O
  O22      1.0000 0.22100  0.98240  0.17450  Biso   1.000  O
  O23      1.0000 0.77900  0.98240  0.32550  Biso   1.000  O
  O24      1.0000 0.72100  0.51760  0.82550  Biso   1.000  O
  H17      1.0000 0.78100  0.50500  0.26700  Biso   1.000  H
  H18      1.0000 0.71900  0.99500  0.76700  Biso   1.000  H
  H19      1.0000 0.28100  0.99500  0.73300  Biso   1.000  H
  H20      1.0000 0.21900  0.50500  0.23300  Biso   1.000  H
  H21      1.0000 0.21900  0.49500  0.73300  Biso   1.000  H
  H22      1.0000 0.28100  0.00500  0.23300  Biso   1.000  H
  H23      1.0000 0.71900  0.00500  0.26700  Biso   1.000  H
  H24      1.0000 0.78100  0.49500  0.76700  Biso   1.000  H
  H25      1.0000 0.77200  0.45000  0.33200  Biso   1.000  H
  H26      1.0000 0.72800  0.05000  0.83200  Biso   1.000  H
  H27      1.0000 0.27200  0.05000  0.66800  Biso   1.000  H
  H28      1.0000 0.22800  0.45000  0.16800  Biso   1.000  H
  H29      1.0000 0.22800  0.55000  0.66800  Biso   1.000  H
  H30      1.0000 0.27200  0.95000  0.16800  Biso   1.000  H
  H31      1.0000 0.72800  0.95000  0.33200  Biso   1.000  H
  H32      1.0000 0.77200  0.55000  0.83200  Biso   1.000  H
  O25      1.0000 0.50000  0.93530  0.75000  Biso   1.000  O
  O26      1.0000 0.00000  0.56470  0.25000  Biso   1.000  O
  O27      1.0000 0.50000  0.06470  0.25000  Biso   1.000  O
  O28      1.0000 0.00000  0.43530  0.75000  Biso   1.000  O
  H33      1.0000 0.51300  0.92600  0.64200  Biso   1.000  H
  H34      1.0000 0.98700  0.57400  0.14200  Biso   1.000  H
  H35      1.0000 0.01300  0.57400  0.35800  Biso   1.000  H
  H36      1.0000 0.48700  0.92600  0.85800  Biso   1.000  H
  H37      1.0000 0.48700  0.07400  0.35800  Biso   1.000  H
  H38      1.0000 0.01300  0.42600  0.85800  Biso   1.000  H
  H39      1.0000 0.98700  0.42600  0.64200  Biso   1.000  H
  H40      1.0000 0.51300  0.07400  0.14200  Biso   1.000  H
