data_image0
_cell_length_a       6.3015
_cell_length_b       6.8743
_cell_length_c       22.9972
_cell_angle_alpha    90
_cell_angle_beta     90
_cell_angle_gamma    90

_symmetry_space_group_name_H-M    "P 1"
_symmetry_int_tables_number       1

loop_
  _symmetry_equiv_pos_as_xyz
  'x, y, z'

loop_
  _atom_site_label
  _atom_site_occupancy
  _atom_site_fract_x
  _atom_site_fract_y
  _atom_site_fract_z
  _atom_site_thermal_displace_type
  _atom_site_B_iso_or_equiv
  _atom_site_type_symbol
  Cu1      1.0000 0.24990  0.00026  0.24998  Biso   1.000  Cu
  Cu2      1.0000 0.75010  0.99974  0.24998  Biso   1.000  Cu
  Cu3      1.0000 0.25010  0.50026  0.75002  Biso   1.000  Cu
  Cu4      1.0000 0.74990  0.49974  0.75002  Biso   1.000  Cu
  O1       1.0000 0.32470  0.02280  0.16917  Biso   1.000  O
  O2       1.0000 0.67530  0.97720  0.16917  Biso   1.000  O
  O3       1.0000 0.17530  0.52280  0.83083  Biso   1.000  O
  O4       1.0000 0.82470  0.47720  0.83083  Biso   1.000  O
  O5       1.0000 0.35910  0.09840  0.86713  Biso   1.000  O
  O6       1.0000 0.64090  0.90160  0.86713  Biso   1.000  O
  O7       1.0000 0.14090  0.59840  0.13287  Biso   1.000  O
  O8       1.0000 0.85910  0.40160  0.13287  Biso   1.000  O
  O9       1.0000 0.82240  0.02310  0.33087  Biso   1.000  O
  O10      1.0000 0.17760  0.97690  0.33087  Biso   1.000  O
  O11      1.0000 0.67760  0.52310  0.66913  Biso   1.000  O
  O12      1.0000 0.32240  0.47690  0.66913  Biso   1.000  O
  O13      1.0000 0.85870  0.09660  0.63292  Biso   1.000  O
  O14      1.0000 0.14130  0.90340  0.63292  Biso   1.000  O
  O15      1.0000 0.64130  0.59660  0.36708  Biso   1.000  O
  O16      1.0000 0.35870  0.40340  0.36708  Biso   1.000  O
  O17      1.0000 0.94420  0.21830  0.23064  Biso   1.000  O
  O18      1.0000 0.05580  0.78170  0.23064  Biso   1.000  O
  O19      1.0000 0.55580  0.71830  0.76936  Biso   1.000  O
  O20      1.0000 0.44420  0.28170  0.76936  Biso   1.000  O
  H1       1.0000 0.92500  0.28300  0.20160  Biso   1.000  H
  H2       1.0000 0.07500  0.71700  0.20160  Biso   1.000  H
  H3       1.0000 0.57500  0.78300  0.79840  Biso   1.000  H
  H4       1.0000 0.42500  0.21700  0.79840  Biso   1.000  H
  H5       1.0000 0.00200  0.13200  0.24870  Biso   1.000  H
  H6       1.0000 0.99800  0.86800  0.24870  Biso   1.000  H
  H7       1.0000 0.49800  0.63200  0.75130  Biso   1.000  H
  H8       1.0000 0.50200  0.36800  0.75130  Biso   1.000  H
  O21      1.0000 0.44440  0.21680  0.26927  Biso   1.000  O
  O22      1.0000 0.55560  0.78320  0.26927  Biso   1.000  O
  O23      1.0000 0.05560  0.71680  0.73073  Biso   1.000  O
  O24      1.0000 0.94440  0.28320  0.73073  Biso   1.000  O
  H9       1.0000 0.44200  0.29800  0.24030  Biso   1.000  H
  H10      1.0000 0.55800  0.70200  0.24030  Biso   1.000  H
  H11      1.0000 0.05800  0.79800  0.75970  Biso   1.000  H
  H12      1.0000 0.94200  0.20200  0.75970  Biso   1.000  H
  H13      1.0000 0.41800  0.26000  0.30370  Biso   1.000  H
  H14      1.0000 0.58200  0.74000  0.30370  Biso   1.000  H
  H15      1.0000 0.08200  0.76000  0.69630  Biso   1.000  H
  H16      1.0000 0.91800  0.24000  0.69630  Biso   1.000  H
  C1       1.0000 0.50000  0.00000  0.14482  Biso   1.000  C
  C2       1.0000 0.00000  0.50000  0.85518  Biso   1.000  C
  C3       1.0000 0.50000  0.00000  0.07950  Biso   1.000  C
  C4       1.0000 0.00000  0.50000  0.92050  Biso   1.000  C
  C5       1.0000 0.31930  0.06440  0.04717  Biso   1.000  C
  C6       1.0000 0.68070  0.93560  0.04717  Biso   1.000  C
  C7       1.0000 0.18070  0.56440  0.95283  Biso   1.000  C
  C8       1.0000 0.81930  0.43560  0.95283  Biso   1.000  C
  H17      1.0000 0.19790  0.10390  0.06690  Biso   1.000  H
  H18      1.0000 0.80210  0.89610  0.06690  Biso   1.000  H
  H19      1.0000 0.30210  0.60390  0.93310  Biso   1.000  H
  H20      1.0000 0.69790  0.39610  0.93310  Biso   1.000  H
  C9       1.0000 0.32230  0.06900  0.98759  Biso   1.000  C
  C10      1.0000 0.67770  0.93100  0.98759  Biso   1.000  C
  C11      1.0000 0.17770  0.56900  0.01241  Biso   1.000  C
  C12      1.0000 0.82230  0.43100  0.01241  Biso   1.000  C
  H21      1.0000 0.20680  0.11750  0.96700  Biso   1.000  H
  H22      1.0000 0.79320  0.88250  0.96700  Biso   1.000  H
  H23      1.0000 0.29320  0.61750  0.03300  Biso   1.000  H
  H24      1.0000 0.70680  0.38250  0.03300  Biso   1.000  H
  C13      1.0000 0.50000  0.00000  0.95834  Biso   1.000  C
  C14      1.0000 0.00000  0.50000  0.04166  Biso   1.000  C
  C15      1.0000 0.50000  0.00000  0.89246  Biso   1.000  C
  C16      1.0000 0.00000  0.50000  0.10754  Biso   1.000  C
  C17      1.0000 0.00000  0.00000  0.35637  Biso   1.000  C
  C18      1.0000 0.50000  0.50000  0.64363  Biso   1.000  C
  C19      1.0000 0.00000  0.00000  0.42139  Biso   1.000  C
  C20      1.0000 0.50000  0.50000  0.57861  Biso   1.000  C
  C21      1.0000 0.82510  0.06590  0.44975  Biso   1.000  C
  C22      1.0000 0.17490  0.93410  0.44975  Biso   1.000  C
  C23      1.0000 0.67490  0.56590  0.55025  Biso   1.000  C
  C24      1.0000 0.32510  0.43410  0.55025  Biso   1.000  C
  H25      1.0000 0.70700  0.10800  0.42900  Biso   1.000  H
  H26      1.0000 0.29300  0.89200  0.42900  Biso   1.000  H
  H27      1.0000 0.79300  0.60800  0.57100  Biso   1.000  H
  H28      1.0000 0.20700  0.39200  0.57100  Biso   1.000  H
  C25      1.0000 0.82460  0.06960  0.51064  Biso   1.000  C
  C26      1.0000 0.17540  0.93040  0.51064  Biso   1.000  C
  C27      1.0000 0.67540  0.56960  0.48936  Biso   1.000  C
  C28      1.0000 0.32460  0.43040  0.48936  Biso   1.000  C
  H29      1.0000 0.70740  0.11850  0.53040  Biso   1.000  H
  H30      1.0000 0.29260  0.88150  0.53040  Biso   1.000  H
  H31      1.0000 0.79260  0.61850  0.46960  Biso   1.000  H
  H32      1.0000 0.20740  0.38150  0.46960  Biso   1.000  H
  C29      1.0000 0.00000  0.00000  0.54221  Biso   1.000  C
  C30      1.0000 0.50000  0.50000  0.45779  Biso   1.000  C
  C31      1.0000 0.00000  0.00000  0.60728  Biso   1.000  C
  C32      1.0000 0.50000  0.50000  0.39272  Biso   1.000  C
  O25      1.0000 0.50000  0.50000  0.18966  Biso   1.000  O
  O26      1.0000 0.00000  0.00000  0.81034  Biso   1.000  O
  H33      1.0000 0.61200  0.49800  0.17100  Biso   1.000  H
  H34      1.0000 0.38800  0.50200  0.17100  Biso   1.000  H
  H35      1.0000 0.88800  0.99800  0.82900  Biso   1.000  H
  H36      1.0000 0.11200  0.00200  0.82900  Biso   1.000  H
  O27      1.0000 0.00000  0.50000  0.31054  Biso   1.000  O
  O28      1.0000 0.50000  0.00000  0.68946  Biso   1.000  O
  H37      1.0000 0.09400  0.47000  0.33390  Biso   1.000  H
  H38      1.0000 0.90600  0.53000  0.33390  Biso   1.000  H
  H39      1.0000 0.40600  0.97000  0.66610  Biso   1.000  H
  H40      1.0000 0.59400  0.03000  0.66610  Biso   1.000  H
