data_image0
_cell_length_a       7.94
_cell_length_b       12.622
_cell_length_c       12.568
_cell_angle_alpha    107.29
_cell_angle_beta     103.91
_cell_angle_gamma    109.78

_symmetry_space_group_name_H-M    "P 1"
_symmetry_int_tables_number       1

loop_
  _symmetry_equiv_pos_as_xyz
  'x, y, z'

loop_
  _atom_site_label
  _atom_site_occupancy
  _atom_site_fract_x
  _atom_site_fract_y
  _atom_site_fract_z
  _atom_site_thermal_displace_type
  _atom_site_B_iso_or_equiv
  _atom_site_type_symbol
  Cu1      1.0000 0.39097  0.22571  0.33716  Biso   1.000  Cu
  Cu2      1.0000 0.60903  0.77429  0.66284  Biso   1.000  Cu
  O1       1.0000 0.43440  0.31440  0.50250  Biso   1.000  O
  O2       1.0000 0.56560  0.68560  0.49750  Biso   1.000  O
  O3       1.0000 0.62660  0.24910  0.59680  Biso   1.000  O
  O4       1.0000 0.37340  0.75090  0.40320  Biso   1.000  O
  O5       1.0000 0.99430  0.68900  0.97140  Biso   1.000  O
  O6       1.0000 0.00570  0.31100  0.02860  Biso   1.000  O
  O7       1.0000 0.16100  0.32150  0.27880  Biso   1.000  O
  O8       1.0000 0.83900  0.67850  0.72120  Biso   1.000  O
  O9       1.0000 0.62190  0.12540  0.37930  Biso   1.000  O
  O10      1.0000 0.37810  0.87460  0.62070  Biso   1.000  O
  O11      1.0000 0.61380  0.12530  0.75410  Biso   1.000  O
  O12      1.0000 0.38620  0.87470  0.24590  Biso   1.000  O
  N1       1.0000 0.72560  0.51810  0.93080  Biso   1.000  N
  N2       1.0000 0.27440  0.48190  0.06920  Biso   1.000  N
  N3       1.0000 0.60910  0.36720  0.33950  Biso   1.000  N
  N4       1.0000 0.39090  0.63280  0.66050  Biso   1.000  N
  C1       1.0000 0.54000  0.31450  0.59590  Biso   1.000  C
  C2       1.0000 0.46000  0.68550  0.40410  Biso   1.000  C
  C3       1.0000 0.55750  0.40470  0.71300  Biso   1.000  C
  C4       1.0000 0.44250  0.59530  0.28700  Biso   1.000  C
  C5       1.0000 0.72400  0.43450  0.82170  Biso   1.000  C
  C6       1.0000 0.27600  0.56550  0.17830  Biso   1.000  C
  C7       1.0000 0.85740  0.63440  0.99470  Biso   1.000  C
  C8       1.0000 0.14260  0.36560  0.00530  Biso   1.000  C
  C9       1.0000 0.63900  0.34530  0.23600  Biso   1.000  C
  C10      1.0000 0.36100  0.65470  0.76400  Biso   1.000  C
  C11      1.0000 0.78680  0.43200  0.22450  Biso   1.000  C
  C12      1.0000 0.21320  0.56800  0.77550  Biso   1.000  C
  C13      1.0000 0.90530  0.54470  0.32140  Biso   1.000  C
  C14      1.0000 0.09470  0.45530  0.67860  Biso   1.000  C
  C15      1.0000 0.87230  0.56750  0.42690  Biso   1.000  C
  C16      1.0000 0.12770  0.43250  0.57310  Biso   1.000  C
  C17      1.0000 0.72240  0.47670  0.43280  Biso   1.000  C
  C18      1.0000 0.27760  0.52330  0.56720  Biso   1.000  C
  O13      1.0000 0.18270  0.07620  0.31880  Biso   1.000  O
  O14      1.0000 0.81730  0.92380  0.68120  Biso   1.000  O
  O15      1.0000 0.95980  0.14200  0.33940  Biso   1.000  O
  O16      1.0000 0.04020  0.85800  0.66060  Biso   1.000  O
  O17      1.0000 0.66530  0.65320  0.11420  Biso   1.000  O
  O18      1.0000 0.33470  0.34680  0.88580  Biso   1.000  O
  N5       1.0000 0.98140  0.79140  0.19640  Biso   1.000  N
  N6       1.0000 0.01860  0.20860  0.80360  Biso   1.000  N
  N7       1.0000 0.36830  0.15130  0.16710  Biso   1.000  N
  N8       1.0000 0.63170  0.84870  0.83290  Biso   1.000  N
  C19      1.0000 0.02340  0.06320  0.32960  Biso   1.000  C
  C20      1.0000 0.97660  0.93680  0.67040  Biso   1.000  C
  C21      1.0000 0.89990  0.94080  0.32890  Biso   1.000  C
  C22      1.0000 0.10010  0.05920  0.67110  Biso   1.000  C
  C23      1.0000 0.98310  0.84810  0.31640  Biso   1.000  C
  C24      1.0000 0.01690  0.15190  0.68360  Biso   1.000  C
  C25      1.0000 0.82510  0.69540  0.10810  Biso   1.000  C
  C26      1.0000 0.17490  0.30460  0.89190  Biso   1.000  C
  C27      1.0000 0.50230  0.22220  0.13750  Biso   1.000  C
  C28      1.0000 0.49770  0.77780  0.86250  Biso   1.000  C
  C29      1.0000 0.50860  0.18020  0.02450  Biso   1.000  C
  C30      1.0000 0.49140  0.81980  0.97550  Biso   1.000  C
  C31      1.0000 0.37510  0.06290  0.94030  Biso   1.000  C
  C32      1.0000 0.62490  0.93710  0.05970  Biso   1.000  C
  C33      1.0000 0.23710  0.99070  0.97070  Biso   1.000  C
  C34      1.0000 0.76290  0.00930  0.02930  Biso   1.000  C
  C35      1.0000 0.23910  0.03740  0.08480  Biso   1.000  C
  C36      1.0000 0.76090  0.96260  0.91520  Biso   1.000  C
  H1       1.0000 0.63200  0.49000  0.95300  Biso   1.000  H
  H2       1.0000 0.36800  0.51000  0.04700  Biso   1.000  H
  H3       1.0000 0.07600  0.27400  0.29200  Biso   1.000  H
  H4       1.0000 0.92400  0.72600  0.70800  Biso   1.000  H
  H5       1.0000 0.10400  0.31000  0.21200  Biso   1.000  H
  H6       1.0000 0.89600  0.69000  0.78800  Biso   1.000  H
  H7       1.0000 0.55100  0.04800  0.71400  Biso   1.000  H
  H8       1.0000 0.44900  0.95200  0.28600  Biso   1.000  H
  H9       1.0000 0.61200  0.15700  0.71000  Biso   1.000  H
  H10      1.0000 0.38800  0.84300  0.29000  Biso   1.000  H
  H11      1.0000 0.64200  0.16300  0.44900  Biso   1.000  H
  H12      1.0000 0.35800  0.83700  0.55100  Biso   1.000  H
  H13      1.0000 0.71500  0.13600  0.37800  Biso   1.000  H
  H14      1.0000 0.28500  0.86400  0.62200  Biso   1.000  H
  H15      1.0000 0.57200  0.48100  0.70400  Biso   1.000  H
  H16      1.0000 0.42800  0.51900  0.29600  Biso   1.000  H
  H17      1.0000 0.44200  0.37600  0.72400  Biso   1.000  H
  H18      1.0000 0.55800  0.62400  0.27600  Biso   1.000  H
  H19      1.0000 0.85200  0.47900  0.82100  Biso   1.000  H
  H20      1.0000 0.14800  0.52100  0.17900  Biso   1.000  H
  H21      1.0000 0.71500  0.35500  0.83100  Biso   1.000  H
  H22      1.0000 0.28500  0.64500  0.16900  Biso   1.000  H
  H23      1.0000 0.80500  0.41400  0.15400  Biso   1.000  H
  H24      1.0000 0.19500  0.58600  0.84600  Biso   1.000  H
  H25      1.0000 0.01400  0.60800  0.31400  Biso   1.000  H
  H26      1.0000 0.98600  0.39200  0.68600  Biso   1.000  H
  H27      1.0000 0.94300  0.64300  0.49600  Biso   1.000  H
  H28      1.0000 0.05700  0.35700  0.50400  Biso   1.000  H
  H29      1.0000 0.07800  0.81000  0.19000  Biso   1.000  H
  H30      1.0000 0.92200  0.19000  0.81000  Biso   1.000  H
  H31      1.0000 0.87700  0.96000  0.40100  Biso   1.000  H
  H32      1.0000 0.12300  0.04000  0.59900  Biso   1.000  H
  H33      1.0000 0.78300  0.90100  0.26300  Biso   1.000  H
  H34      1.0000 0.21700  0.09900  0.73700  Biso   1.000  H
  H35      1.0000 0.09200  0.78500  0.34000  Biso   1.000  H
  H36      1.0000 0.90800  0.21500  0.66000  Biso   1.000  H
  H37      1.0000 0.11500  0.88300  0.37100  Biso   1.000  H
  H38      1.0000 0.88500  0.11700  0.62900  Biso   1.000  H
  H39      1.0000 0.60200  0.22900  0.00400  Biso   1.000  H
  H40      1.0000 0.39800  0.77100  0.99600  Biso   1.000  H
  H41      1.0000 0.37700  0.02200  0.86000  Biso   1.000  H
  H42      1.0000 0.62300  0.97800  0.14000  Biso   1.000  H
  H43      1.0000 0.14600  0.09000  0.91600  Biso   1.000  H
  H44      1.0000 0.85400  0.91000  0.08400  Biso   1.000  H
  H45      1.0000 0.14800  0.00700  0.10400  Biso   1.000  H
  H46      1.0000 0.85200  0.99300  0.89600  Biso   1.000  H
