data_image0
_cell_length_a       9.3311
_cell_length_b       13.2097
_cell_length_c       19.9741
_cell_angle_alpha    90
_cell_angle_beta     93.275
_cell_angle_gamma    90

_symmetry_space_group_name_H-M    "P 1"
_symmetry_int_tables_number       1

loop_
  _symmetry_equiv_pos_as_xyz
  'x, y, z'

loop_
  _atom_site_label
  _atom_site_occupancy
  _atom_site_fract_x
  _atom_site_fract_y
  _atom_site_fract_z
  _atom_site_thermal_displace_type
  _atom_site_B_iso_or_equiv
  _atom_site_type_symbol
  Nb1      1.0000 0.98997  0.55369  0.28466  Biso   1.000  Nb
  Nb2      1.0000 0.01003  0.05369  0.21534  Biso   1.000  Nb
  Nb3      1.0000 0.01003  0.44631  0.71534  Biso   1.000  Nb
  Nb4      1.0000 0.98997  0.94631  0.78466  Biso   1.000  Nb
  Cu1      1.0000 0.94485  0.29853  0.35415  Biso   1.000  Cu
  Cu2      1.0000 0.05515  0.79853  0.14585  Biso   1.000  Cu
  Cu3      1.0000 0.05515  0.70147  0.64585  Biso   1.000  Cu
  Cu4      1.0000 0.94485  0.20147  0.85415  Biso   1.000  Cu
  O1       1.0000 0.97683  0.44027  0.32895  Biso   1.000  O
  O2       1.0000 0.02317  0.94027  0.17105  Biso   1.000  O
  O3       1.0000 0.02317  0.55973  0.67105  Biso   1.000  O
  O4       1.0000 0.97683  0.05973  0.82895  Biso   1.000  O
  F1       1.0000 0.01511  0.68153  0.22280  Biso   1.000  F
  F2       1.0000 0.98489  0.18153  0.27720  Biso   1.000  F
  F3       1.0000 0.98489  0.31847  0.77720  Biso   1.000  F
  F4       1.0000 0.01511  0.81847  0.72280  Biso   1.000  F
  F5       1.0000 0.17511  0.59753  0.32193  Biso   1.000  F
  F6       1.0000 0.82489  0.09753  0.17807  Biso   1.000  F
  F7       1.0000 0.82489  0.40247  0.67807  Biso   1.000  F
  F8       1.0000 0.17511  0.90247  0.82193  Biso   1.000  F
  F9       1.0000 0.08481  0.49216  0.21034  Biso   1.000  F
  F10      1.0000 0.91519  0.99216  0.28966  Biso   1.000  F
  F11      1.0000 0.91519  0.50784  0.78966  Biso   1.000  F
  F12      1.0000 0.08481  0.00784  0.71034  Biso   1.000  F
  F13      1.0000 0.81021  0.54624  0.23210  Biso   1.000  F
  F14      1.0000 0.18979  0.04624  0.26790  Biso   1.000  F
  F15      1.0000 0.18979  0.45376  0.76790  Biso   1.000  F
  F16      1.0000 0.81021  0.95376  0.73210  Biso   1.000  F
  F17      1.0000 0.89958  0.64102  0.34505  Biso   1.000  F
  F18      1.0000 0.10042  0.14102  0.15495  Biso   1.000  F
  F19      1.0000 0.10042  0.35898  0.65495  Biso   1.000  F
  F20      1.0000 0.89958  0.85898  0.84505  Biso   1.000  F
  N1       1.0000 0.74726  0.31105  0.31201  Biso   1.000  N
  N2       1.0000 0.25274  0.81105  0.18799  Biso   1.000  N
  N3       1.0000 0.25274  0.68895  0.68799  Biso   1.000  N
  N4       1.0000 0.74726  0.18895  0.81201  Biso   1.000  N
  N5       1.0000 0.70180  0.25001  0.26095  Biso   1.000  N
  N6       1.0000 0.29820  0.75001  0.23905  Biso   1.000  N
  N7       1.0000 0.29820  0.74999  0.73905  Biso   1.000  N
  N8       1.0000 0.70180  0.24999  0.76095  Biso   1.000  N
  H1       1.0000 0.75220  0.20100  0.24520  Biso   1.000  H
  H2       1.0000 0.24780  0.70100  0.25480  Biso   1.000  H
  H3       1.0000 0.24780  0.79900  0.75480  Biso   1.000  H
  H4       1.0000 0.75220  0.29900  0.74520  Biso   1.000  H
  N9       1.0000 0.88627  0.19313  0.42090  Biso   1.000  N
  N10      1.0000 0.11373  0.69313  0.07910  Biso   1.000  N
  N11      1.0000 0.11373  0.80687  0.57910  Biso   1.000  N
  N12      1.0000 0.88627  0.30687  0.92090  Biso   1.000  N
  N13      1.0000 0.86170  0.09488  0.40436  Biso   1.000  N
  N14      1.0000 0.13830  0.59488  0.09564  Biso   1.000  N
  N15      1.0000 0.13830  0.90512  0.59564  Biso   1.000  N
  N16      1.0000 0.86170  0.40512  0.90436  Biso   1.000  N
  H5       1.0000 0.86860  0.07020  0.36430  Biso   1.000  H
  H6       1.0000 0.13140  0.57020  0.13570  Biso   1.000  H
  H7       1.0000 0.13140  0.92980  0.63570  Biso   1.000  H
  H8       1.0000 0.86860  0.42980  0.86430  Biso   1.000  H
  N17      1.0000 0.15083  0.28444  0.38533  Biso   1.000  N
  N18      1.0000 0.84917  0.78444  0.11467  Biso   1.000  N
  N19      1.0000 0.84917  0.71556  0.61467  Biso   1.000  N
  N20      1.0000 0.15083  0.21556  0.88533  Biso   1.000  N
  N21      1.0000 0.22811  0.20595  0.36390  Biso   1.000  N
  N22      1.0000 0.77189  0.70595  0.13610  Biso   1.000  N
  N23      1.0000 0.77189  0.79405  0.63610  Biso   1.000  N
  N24      1.0000 0.22811  0.29405  0.86390  Biso   1.000  N
  H9       1.0000 0.19770  0.16390  0.33270  Biso   1.000  H
  H10      1.0000 0.80230  0.66390  0.16730  Biso   1.000  H
  H11      1.0000 0.80230  0.83610  0.66730  Biso   1.000  H
  H12      1.0000 0.19770  0.33610  0.83270  Biso   1.000  H
  C1       1.0000 0.63860  0.37535  0.32103  Biso   1.000  C
  C2       1.0000 0.36140  0.87535  0.17897  Biso   1.000  C
  C3       1.0000 0.36140  0.62465  0.67897  Biso   1.000  C
  C4       1.0000 0.63860  0.12465  0.82103  Biso   1.000  C
  C5       1.0000 0.52410  0.35500  0.27476  Biso   1.000  C
  C6       1.0000 0.47590  0.85500  0.22524  Biso   1.000  C
  C7       1.0000 0.47590  0.64500  0.72524  Biso   1.000  C
  C8       1.0000 0.52410  0.14500  0.77476  Biso   1.000  C
  C9       1.0000 0.56750  0.27500  0.23748  Biso   1.000  C
  C10      1.0000 0.43250  0.77500  0.26252  Biso   1.000  C
  C11      1.0000 0.43250  0.72500  0.76252  Biso   1.000  C
  C12      1.0000 0.56750  0.22500  0.73748  Biso   1.000  C
  C13      1.0000 0.64950  0.45590  0.37347  Biso   1.000  C
  C14      1.0000 0.35050  0.95590  0.12653  Biso   1.000  C
  C15      1.0000 0.35050  0.54410  0.62653  Biso   1.000  C
  C16      1.0000 0.64950  0.04410  0.87347  Biso   1.000  C
  H13      1.0000 0.71940  0.43590  0.40880  Biso   1.000  H
  H14      1.0000 0.28060  0.93590  0.09120  Biso   1.000  H
  H15      1.0000 0.28060  0.56410  0.59120  Biso   1.000  H
  H16      1.0000 0.71940  0.06410  0.90880  Biso   1.000  H
  H17      1.0000 0.55670  0.46530  0.39210  Biso   1.000  H
  H18      1.0000 0.44330  0.96530  0.10790  Biso   1.000  H
  H19      1.0000 0.44330  0.53470  0.60790  Biso   1.000  H
  H20      1.0000 0.55670  0.03470  0.89210  Biso   1.000  H
  H21      1.0000 0.67960  0.51880  0.35360  Biso   1.000  H
  H22      1.0000 0.32040  0.01880  0.14640  Biso   1.000  H
  H23      1.0000 0.32040  0.48120  0.64640  Biso   1.000  H
  H24      1.0000 0.67960  0.98120  0.85360  Biso   1.000  H
  C17      1.0000 0.38440  0.40940  0.26729  Biso   1.000  C
  C18      1.0000 0.61560  0.90940  0.23271  Biso   1.000  C
  C19      1.0000 0.61560  0.59060  0.73271  Biso   1.000  C
  C20      1.0000 0.38440  0.09060  0.76729  Biso   1.000  C
  H25      1.0000 0.39410  0.46800  0.23860  Biso   1.000  H
  H26      1.0000 0.60590  0.96800  0.26140  Biso   1.000  H
  H27      1.0000 0.60590  0.53200  0.76140  Biso   1.000  H
  H28      1.0000 0.39410  0.03200  0.73860  Biso   1.000  H
  H29      1.0000 0.35630  0.43130  0.31100  Biso   1.000  H
  H30      1.0000 0.64370  0.93130  0.18900  Biso   1.000  H
  H31      1.0000 0.64370  0.56870  0.68900  Biso   1.000  H
  H32      1.0000 0.35630  0.06870  0.81100  Biso   1.000  H
  H33      1.0000 0.31170  0.36450  0.24740  Biso   1.000  H
  H34      1.0000 0.68830  0.86450  0.25260  Biso   1.000  H
  H35      1.0000 0.68830  0.63550  0.75260  Biso   1.000  H
  H36      1.0000 0.31170  0.13550  0.74740  Biso   1.000  H
  C21      1.0000 0.49260  0.21750  0.18131  Biso   1.000  C
  C22      1.0000 0.50740  0.71750  0.31869  Biso   1.000  C
  C23      1.0000 0.50740  0.78250  0.81869  Biso   1.000  C
  C24      1.0000 0.49260  0.28250  0.68131  Biso   1.000  C
  H37      1.0000 0.41520  0.17800  0.19850  Biso   1.000  H
  H38      1.0000 0.58480  0.67800  0.30150  Biso   1.000  H
  H39      1.0000 0.58480  0.82200  0.80150  Biso   1.000  H
  H40      1.0000 0.41520  0.32200  0.69850  Biso   1.000  H
  H41      1.0000 0.56030  0.17250  0.16120  Biso   1.000  H
  H42      1.0000 0.43970  0.67250  0.33880  Biso   1.000  H
  H43      1.0000 0.43970  0.82750  0.83880  Biso   1.000  H
  H44      1.0000 0.56030  0.32750  0.66120  Biso   1.000  H
  H45      1.0000 0.45370  0.26460  0.14770  Biso   1.000  H
  H46      1.0000 0.54630  0.76460  0.35230  Biso   1.000  H
  H47      1.0000 0.54630  0.73540  0.85230  Biso   1.000  H
  H48      1.0000 0.45370  0.23540  0.64770  Biso   1.000  H
  C25      1.0000 0.86360  0.19970  0.48607  Biso   1.000  C
  C26      1.0000 0.13640  0.69970  0.01393  Biso   1.000  C
  C27      1.0000 0.13640  0.80030  0.51393  Biso   1.000  C
  C28      1.0000 0.86360  0.30030  0.98607  Biso   1.000  C
  C29      1.0000 0.82520  0.10480  0.51116  Biso   1.000  C
  C30      1.0000 0.17480  0.60480  0.98884  Biso   1.000  C
  C31      1.0000 0.17480  0.89520  0.48884  Biso   1.000  C
  C32      1.0000 0.82520  0.39520  0.01116  Biso   1.000  C
  C33      1.0000 0.82530  0.04040  0.45774  Biso   1.000  C
  C34      1.0000 0.17470  0.54040  0.04226  Biso   1.000  C
  C35      1.0000 0.17470  0.95960  0.54226  Biso   1.000  C
  C36      1.0000 0.82530  0.45960  0.95774  Biso   1.000  C
  C37      1.0000 0.88140  0.29720  0.52358  Biso   1.000  C
  C38      1.0000 0.11860  0.79720  0.97642  Biso   1.000  C
  C39      1.0000 0.11860  0.70280  0.47642  Biso   1.000  C
  C40      1.0000 0.88140  0.20280  0.02358  Biso   1.000  C
  H49      1.0000 0.96660  0.29370  0.55370  Biso   1.000  H
  H50      1.0000 0.03340  0.79370  0.94630  Biso   1.000  H
  H51      1.0000 0.03340  0.70630  0.44630  Biso   1.000  H
  H52      1.0000 0.96660  0.20630  0.05370  Biso   1.000  H
  H53      1.0000 0.79790  0.30880  0.54940  Biso   1.000  H
  H54      1.0000 0.20210  0.80880  0.95060  Biso   1.000  H
  H55      1.0000 0.20210  0.69120  0.45060  Biso   1.000  H
  H56      1.0000 0.79790  0.19120  0.04940  Biso   1.000  H
  H57      1.0000 0.89120  0.35230  0.49210  Biso   1.000  H
  H58      1.0000 0.10880  0.85230  0.00790  Biso   1.000  H
  H59      1.0000 0.10880  0.64770  0.50790  Biso   1.000  H
  H60      1.0000 0.89120  0.14770  0.99210  Biso   1.000  H
  C41      1.0000 0.79530  0.08100  0.58272  Biso   1.000  C
  C42      1.0000 0.20470  0.58100  0.91728  Biso   1.000  C
  C43      1.0000 0.20470  0.91900  0.41728  Biso   1.000  C
  C44      1.0000 0.79530  0.41900  0.08272  Biso   1.000  C
  H61      1.0000 0.69960  0.10400  0.59170  Biso   1.000  H
  H62      1.0000 0.30040  0.60400  0.90830  Biso   1.000  H
  H63      1.0000 0.30040  0.89600  0.40830  Biso   1.000  H
  H64      1.0000 0.69960  0.39600  0.09170  Biso   1.000  H
  H65      1.0000 0.86520  0.11520  0.61260  Biso   1.000  H
  H66      1.0000 0.13480  0.61520  0.88740  Biso   1.000  H
  H67      1.0000 0.13480  0.88480  0.38740  Biso   1.000  H
  H68      1.0000 0.86520  0.38480  0.11260  Biso   1.000  H
  H69      1.0000 0.80200  0.00850  0.58990  Biso   1.000  H
  H70      1.0000 0.19800  0.50850  0.91010  Biso   1.000  H
  H71      1.0000 0.19800  0.99150  0.41010  Biso   1.000  H
  H72      1.0000 0.80200  0.49150  0.08990  Biso   1.000  H
  C45      1.0000 0.79320  0.92900  0.45176  Biso   1.000  C
  C46      1.0000 0.20680  0.42900  0.04824  Biso   1.000  C
  C47      1.0000 0.20680  0.07100  0.54824  Biso   1.000  C
  C48      1.0000 0.79320  0.57100  0.95176  Biso   1.000  C
  H73      1.0000 0.84630  0.89280  0.48740  Biso   1.000  H
  H74      1.0000 0.15370  0.39280  0.01260  Biso   1.000  H
  H75      1.0000 0.15370  0.10720  0.51260  Biso   1.000  H
  H76      1.0000 0.84630  0.60720  0.98740  Biso   1.000  H
  H77      1.0000 0.82150  0.90460  0.40870  Biso   1.000  H
  H78      1.0000 0.17850  0.40460  0.09130  Biso   1.000  H
  H79      1.0000 0.17850  0.09540  0.59130  Biso   1.000  H
  H80      1.0000 0.82150  0.59540  0.90870  Biso   1.000  H
  H81      1.0000 0.69120  0.91800  0.45530  Biso   1.000  H
  H82      1.0000 0.30880  0.41800  0.04470  Biso   1.000  H
  H83      1.0000 0.30880  0.08200  0.54470  Biso   1.000  H
  H84      1.0000 0.69120  0.58200  0.95530  Biso   1.000  H
  C49      1.0000 0.23440  0.33045  0.43324  Biso   1.000  C
  C50      1.0000 0.76560  0.83045  0.06676  Biso   1.000  C
  C51      1.0000 0.76560  0.66955  0.56676  Biso   1.000  C
  C52      1.0000 0.23440  0.16955  0.93324  Biso   1.000  C
  C53      1.0000 0.36500  0.27830  0.44213  Biso   1.000  C
  C54      1.0000 0.63500  0.77830  0.05787  Biso   1.000  C
  C55      1.0000 0.63500  0.72170  0.55787  Biso   1.000  C
  C56      1.0000 0.36500  0.22170  0.94213  Biso   1.000  C
  C57      1.0000 0.35780  0.20040  0.39649  Biso   1.000  C
  C58      1.0000 0.64220  0.70040  0.10351  Biso   1.000  C
  C59      1.0000 0.64220  0.79960  0.60351  Biso   1.000  C
  C60      1.0000 0.35780  0.29960  0.89649  Biso   1.000  C
  C61      1.0000 0.19000  0.42420  0.46736  Biso   1.000  C
  C62      1.0000 0.81000  0.92420  0.03264  Biso   1.000  C
  C63      1.0000 0.81000  0.57580  0.53264  Biso   1.000  C
  C64      1.0000 0.19000  0.07580  0.96736  Biso   1.000  C
  H85      1.0000 0.09770  0.44650  0.44790  Biso   1.000  H
  H86      1.0000 0.90230  0.94650  0.05210  Biso   1.000  H
  H87      1.0000 0.90230  0.55350  0.55210  Biso   1.000  H
  H88      1.0000 0.09770  0.05350  0.94790  Biso   1.000  H
  H89      1.0000 0.26100  0.47670  0.46170  Biso   1.000  H
  H90      1.0000 0.73900  0.97670  0.03830  Biso   1.000  H
  H91      1.0000 0.73900  0.52330  0.53830  Biso   1.000  H
  H92      1.0000 0.26100  0.02330  0.96170  Biso   1.000  H
  H93      1.0000 0.18230  0.41080  0.51480  Biso   1.000  H
  H94      1.0000 0.81770  0.91080  0.98520  Biso   1.000  H
  H95      1.0000 0.81770  0.58920  0.48520  Biso   1.000  H
  H96      1.0000 0.18230  0.08920  0.01480  Biso   1.000  H
  C65      1.0000 0.48680  0.30000  0.49242  Biso   1.000  C
  C66      1.0000 0.51320  0.80000  0.00758  Biso   1.000  C
  C67      1.0000 0.51320  0.70000  0.50758  Biso   1.000  C
  C68      1.0000 0.48680  0.20000  0.99242  Biso   1.000  C
  H97      1.0000 0.50180  0.24220  0.52190  Biso   1.000  H
  H98      1.0000 0.49820  0.74220  0.97810  Biso   1.000  H
  H99      1.0000 0.49820  0.75780  0.47810  Biso   1.000  H
  H100     1.0000 0.50180  0.25780  0.02190  Biso   1.000  H
  H101     1.0000 0.46380  0.35900  0.51870  Biso   1.000  H
  H102     1.0000 0.53620  0.85900  0.98130  Biso   1.000  H
  H103     1.0000 0.53620  0.64100  0.48130  Biso   1.000  H
  H104     1.0000 0.46380  0.14100  0.01870  Biso   1.000  H
  H105     1.0000 0.57340  0.31290  0.46920  Biso   1.000  H
  H106     1.0000 0.42660  0.81290  0.03080  Biso   1.000  H
  H107     1.0000 0.42660  0.68710  0.53080  Biso   1.000  H
  H108     1.0000 0.57340  0.18710  0.96920  Biso   1.000  H
  C69      1.0000 0.46640  0.12240  0.37989  Biso   1.000  C
  C70      1.0000 0.53360  0.62240  0.12011  Biso   1.000  C
  C71      1.0000 0.53360  0.87760  0.62011  Biso   1.000  C
  C72      1.0000 0.46640  0.37760  0.87989  Biso   1.000  C
  H109     1.0000 0.42650  0.07890  0.34440  Biso   1.000  H
  H110     1.0000 0.57350  0.57890  0.15560  Biso   1.000  H
  H111     1.0000 0.57350  0.92110  0.65560  Biso   1.000  H
  H112     1.0000 0.42650  0.42110  0.84440  Biso   1.000  H
  H113     1.0000 0.49150  0.08200  0.41940  Biso   1.000  H
  H114     1.0000 0.50850  0.58200  0.08060  Biso   1.000  H
  H115     1.0000 0.50850  0.91800  0.58060  Biso   1.000  H
  H116     1.0000 0.49150  0.41800  0.91940  Biso   1.000  H
  H117     1.0000 0.55170  0.15570  0.36510  Biso   1.000  H
  H118     1.0000 0.44830  0.65570  0.13490  Biso   1.000  H
  H119     1.0000 0.44830  0.84430  0.63490  Biso   1.000  H
  H120     1.0000 0.55170  0.34430  0.86510  Biso   1.000  H
