data_image0
_cell_length_a       9.3367
_cell_length_b       13.1541
_cell_length_c       20.0036
_cell_angle_alpha    90
_cell_angle_beta     93.232
_cell_angle_gamma    90

_symmetry_space_group_name_H-M    "P 1"
_symmetry_int_tables_number       1

loop_
  _symmetry_equiv_pos_as_xyz
  'x, y, z'

loop_
  _atom_site_label
  _atom_site_occupancy
  _atom_site_fract_x
  _atom_site_fract_y
  _atom_site_fract_z
  _atom_site_thermal_displace_type
  _atom_site_B_iso_or_equiv
  _atom_site_type_symbol
  Ta1      1.0000 0.98901  0.55499  0.28505  Biso   1.000  Ta
  Ta2      1.0000 0.01099  0.05499  0.21495  Biso   1.000  Ta
  Ta3      1.0000 0.01099  0.44501  0.71495  Biso   1.000  Ta
  Ta4      1.0000 0.98901  0.94501  0.78505  Biso   1.000  Ta
  Cu1      1.0000 0.94422  0.30148  0.35545  Biso   1.000  Cu
  Cu2      1.0000 0.05578  0.80148  0.14455  Biso   1.000  Cu
  Cu3      1.0000 0.05578  0.69852  0.64455  Biso   1.000  Cu
  Cu4      1.0000 0.94422  0.19852  0.85545  Biso   1.000  Cu
  O1       1.0000 0.97510  0.44084  0.33123  Biso   1.000  O
  O2       1.0000 0.02490  0.94084  0.16877  Biso   1.000  O
  O3       1.0000 0.02490  0.55916  0.66877  Biso   1.000  O
  O4       1.0000 0.97510  0.05916  0.83123  Biso   1.000  O
  F1       1.0000 0.01400  0.68133  0.22341  Biso   1.000  F
  F2       1.0000 0.98600  0.18133  0.27659  Biso   1.000  F
  F3       1.0000 0.98600  0.31867  0.77659  Biso   1.000  F
  F4       1.0000 0.01400  0.81867  0.72341  Biso   1.000  F
  F5       1.0000 0.17380  0.59924  0.32167  Biso   1.000  F
  F6       1.0000 0.82620  0.09924  0.17833  Biso   1.000  F
  F7       1.0000 0.82620  0.40076  0.67833  Biso   1.000  F
  F8       1.0000 0.17380  0.90076  0.82167  Biso   1.000  F
  F9       1.0000 0.08380  0.49229  0.21171  Biso   1.000  F
  F10      1.0000 0.91620  0.99229  0.28829  Biso   1.000  F
  F11      1.0000 0.91620  0.50771  0.78829  Biso   1.000  F
  F12      1.0000 0.08380  0.00771  0.71171  Biso   1.000  F
  F13      1.0000 0.81040  0.54658  0.23248  Biso   1.000  F
  F14      1.0000 0.18960  0.04658  0.26752  Biso   1.000  F
  F15      1.0000 0.18960  0.45342  0.76752  Biso   1.000  F
  F16      1.0000 0.81040  0.95342  0.73248  Biso   1.000  F
  F17      1.0000 0.89730  0.64379  0.34469  Biso   1.000  F
  F18      1.0000 0.10270  0.14379  0.15531  Biso   1.000  F
  F19      1.0000 0.10270  0.35621  0.65531  Biso   1.000  F
  F20      1.0000 0.89730  0.85621  0.84469  Biso   1.000  F
  N1       1.0000 0.74700  0.31190  0.31305  Biso   1.000  N
  N2       1.0000 0.25300  0.81190  0.18695  Biso   1.000  N
  N3       1.0000 0.25300  0.68810  0.68695  Biso   1.000  N
  N4       1.0000 0.74700  0.18810  0.81305  Biso   1.000  N
  N5       1.0000 0.70210  0.25130  0.26134  Biso   1.000  N
  N6       1.0000 0.29790  0.75130  0.23866  Biso   1.000  N
  N7       1.0000 0.29790  0.74870  0.73866  Biso   1.000  N
  N8       1.0000 0.70210  0.24870  0.76134  Biso   1.000  N
  H1       1.0000 0.75320  0.20270  0.24530  Biso   1.000  H
  H2       1.0000 0.24680  0.70270  0.25470  Biso   1.000  H
  H3       1.0000 0.24680  0.79730  0.75470  Biso   1.000  H
  H4       1.0000 0.75320  0.29730  0.74530  Biso   1.000  H
  N9       1.0000 0.88640  0.19329  0.42046  Biso   1.000  N
  N10      1.0000 0.11360  0.69329  0.07954  Biso   1.000  N
  N11      1.0000 0.11360  0.80671  0.57954  Biso   1.000  N
  N12      1.0000 0.88640  0.30671  0.92046  Biso   1.000  N
  N13      1.0000 0.86160  0.09490  0.40310  Biso   1.000  N
  N14      1.0000 0.13840  0.59490  0.09690  Biso   1.000  N
  N15      1.0000 0.13840  0.90510  0.59690  Biso   1.000  N
  N16      1.0000 0.86160  0.40510  0.90310  Biso   1.000  N
  H5       1.0000 0.86790  0.07070  0.36290  Biso   1.000  H
  H6       1.0000 0.13210  0.57070  0.13710  Biso   1.000  H
  H7       1.0000 0.13210  0.92930  0.63710  Biso   1.000  H
  H8       1.0000 0.86790  0.42930  0.86290  Biso   1.000  H
  N17      1.0000 0.15010  0.28565  0.38600  Biso   1.000  N
  N18      1.0000 0.84990  0.78565  0.11400  Biso   1.000  N
  N19      1.0000 0.84990  0.71435  0.61400  Biso   1.000  N
  N20      1.0000 0.15010  0.21435  0.88600  Biso   1.000  N
  N21      1.0000 0.22770  0.20680  0.36442  Biso   1.000  N
  N22      1.0000 0.77230  0.70680  0.13558  Biso   1.000  N
  N23      1.0000 0.77230  0.79320  0.63558  Biso   1.000  N
  N24      1.0000 0.22770  0.29320  0.86442  Biso   1.000  N
  H9       1.0000 0.19740  0.16470  0.33320  Biso   1.000  H
  H10      1.0000 0.80260  0.66470  0.16680  Biso   1.000  H
  H11      1.0000 0.80260  0.83530  0.66680  Biso   1.000  H
  H12      1.0000 0.19740  0.33530  0.83320  Biso   1.000  H
  C1       1.0000 0.63800  0.37570  0.32148  Biso   1.000  C
  C2       1.0000 0.36200  0.87570  0.17852  Biso   1.000  C
  C3       1.0000 0.36200  0.62430  0.67852  Biso   1.000  C
  C4       1.0000 0.63800  0.12430  0.82148  Biso   1.000  C
  C5       1.0000 0.52450  0.35560  0.27530  Biso   1.000  C
  C6       1.0000 0.47550  0.85560  0.22470  Biso   1.000  C
  C7       1.0000 0.47550  0.64440  0.72470  Biso   1.000  C
  C8       1.0000 0.52450  0.14440  0.77530  Biso   1.000  C
  C9       1.0000 0.56920  0.27530  0.23790  Biso   1.000  C
  C10      1.0000 0.43080  0.77530  0.26210  Biso   1.000  C
  C11      1.0000 0.43080  0.72470  0.76210  Biso   1.000  C
  C12      1.0000 0.56920  0.22470  0.73790  Biso   1.000  C
  C13      1.0000 0.64750  0.45640  0.37360  Biso   1.000  C
  C14      1.0000 0.35250  0.95640  0.12640  Biso   1.000  C
  C15      1.0000 0.35250  0.54360  0.62640  Biso   1.000  C
  C16      1.0000 0.64750  0.04360  0.87360  Biso   1.000  C
  H13      1.0000 0.72010  0.43810  0.40810  Biso   1.000  H
  H14      1.0000 0.27990  0.93810  0.09190  Biso   1.000  H
  H15      1.0000 0.27990  0.56190  0.59190  Biso   1.000  H
  H16      1.0000 0.72010  0.06190  0.90810  Biso   1.000  H
  H17      1.0000 0.55550  0.46340  0.39330  Biso   1.000  H
  H18      1.0000 0.44450  0.96340  0.10670  Biso   1.000  H
  H19      1.0000 0.44450  0.53660  0.60670  Biso   1.000  H
  H20      1.0000 0.55550  0.03660  0.89330  Biso   1.000  H
  H21      1.0000 0.67320  0.52040  0.35330  Biso   1.000  H
  H22      1.0000 0.32680  0.02040  0.14670  Biso   1.000  H
  H23      1.0000 0.32680  0.47960  0.64670  Biso   1.000  H
  H24      1.0000 0.67320  0.97960  0.85330  Biso   1.000  H
  C17      1.0000 0.38360  0.40980  0.26770  Biso   1.000  C
  C18      1.0000 0.61640  0.90980  0.23230  Biso   1.000  C
  C19      1.0000 0.61640  0.59020  0.73230  Biso   1.000  C
  C20      1.0000 0.38360  0.09020  0.76770  Biso   1.000  C
  H25      1.0000 0.39480  0.47160  0.24200  Biso   1.000  H
  H26      1.0000 0.60520  0.97160  0.25800  Biso   1.000  H
  H27      1.0000 0.60520  0.52840  0.75800  Biso   1.000  H
  H28      1.0000 0.39480  0.02840  0.74200  Biso   1.000  H
  H29      1.0000 0.35140  0.42690  0.31160  Biso   1.000  H
  H30      1.0000 0.64860  0.92690  0.18840  Biso   1.000  H
  H31      1.0000 0.64860  0.57310  0.68840  Biso   1.000  H
  H32      1.0000 0.35140  0.07310  0.81160  Biso   1.000  H
  H33      1.0000 0.31330  0.36620  0.24450  Biso   1.000  H
  H34      1.0000 0.68670  0.86620  0.25550  Biso   1.000  H
  H35      1.0000 0.68670  0.63380  0.75550  Biso   1.000  H
  H36      1.0000 0.31330  0.13380  0.74450  Biso   1.000  H
  C21      1.0000 0.49370  0.21840  0.18160  Biso   1.000  C
  C22      1.0000 0.50630  0.71840  0.31840  Biso   1.000  C
  C23      1.0000 0.50630  0.78160  0.81840  Biso   1.000  C
  C24      1.0000 0.49370  0.28160  0.68160  Biso   1.000  C
  H37      1.0000 0.41700  0.17800  0.19870  Biso   1.000  H
  H38      1.0000 0.58300  0.67800  0.30130  Biso   1.000  H
  H39      1.0000 0.58300  0.82200  0.80130  Biso   1.000  H
  H40      1.0000 0.41700  0.32200  0.69870  Biso   1.000  H
  H41      1.0000 0.56130  0.17410  0.16080  Biso   1.000  H
  H42      1.0000 0.43870  0.67410  0.33920  Biso   1.000  H
  H43      1.0000 0.43870  0.82590  0.83920  Biso   1.000  H
  H44      1.0000 0.56130  0.32590  0.66080  Biso   1.000  H
  H45      1.0000 0.45380  0.26630  0.14870  Biso   1.000  H
  H46      1.0000 0.54620  0.76630  0.35130  Biso   1.000  H
  H47      1.0000 0.54620  0.73370  0.85130  Biso   1.000  H
  H48      1.0000 0.45380  0.23370  0.64870  Biso   1.000  H
  C25      1.0000 0.86470  0.19900  0.48491  Biso   1.000  C
  C26      1.0000 0.13530  0.69900  0.01509  Biso   1.000  C
  C27      1.0000 0.13530  0.80100  0.51509  Biso   1.000  C
  C28      1.0000 0.86470  0.30100  0.98491  Biso   1.000  C
  C29      1.0000 0.82660  0.10320  0.51040  Biso   1.000  C
  C30      1.0000 0.17340  0.60320  0.98960  Biso   1.000  C
  C31      1.0000 0.17340  0.89680  0.48960  Biso   1.000  C
  C32      1.0000 0.82660  0.39680  0.01040  Biso   1.000  C
  C33      1.0000 0.82590  0.03980  0.45640  Biso   1.000  C
  C34      1.0000 0.17410  0.53980  0.04360  Biso   1.000  C
  C35      1.0000 0.17410  0.96020  0.54360  Biso   1.000  C
  C36      1.0000 0.82590  0.46020  0.95640  Biso   1.000  C
  C37      1.0000 0.88240  0.29630  0.52280  Biso   1.000  C
  C38      1.0000 0.11760  0.79630  0.97720  Biso   1.000  C
  C39      1.0000 0.11760  0.70370  0.47720  Biso   1.000  C
  C40      1.0000 0.88240  0.20370  0.02280  Biso   1.000  C
  H49      1.0000 0.97350  0.29580  0.54860  Biso   1.000  H
  H50      1.0000 0.02650  0.79580  0.95140  Biso   1.000  H
  H51      1.0000 0.02650  0.70420  0.45140  Biso   1.000  H
  H52      1.0000 0.97350  0.20420  0.04860  Biso   1.000  H
  H53      1.0000 0.80490  0.30350  0.55280  Biso   1.000  H
  H54      1.0000 0.19510  0.80350  0.94720  Biso   1.000  H
  H55      1.0000 0.19510  0.69650  0.44720  Biso   1.000  H
  H56      1.0000 0.80490  0.19650  0.05280  Biso   1.000  H
  H57      1.0000 0.88030  0.35280  0.49160  Biso   1.000  H
  H58      1.0000 0.11970  0.85280  0.00840  Biso   1.000  H
  H59      1.0000 0.11970  0.64720  0.50840  Biso   1.000  H
  H60      1.0000 0.88030  0.14720  0.99160  Biso   1.000  H
  C41      1.0000 0.79590  0.07900  0.58120  Biso   1.000  C
  C42      1.0000 0.20410  0.57900  0.91880  Biso   1.000  C
  C43      1.0000 0.20410  0.92100  0.41880  Biso   1.000  C
  C44      1.0000 0.79590  0.42100  0.08120  Biso   1.000  C
  H61      1.0000 0.69710  0.09620  0.58880  Biso   1.000  H
  H62      1.0000 0.30290  0.59620  0.91120  Biso   1.000  H
  H63      1.0000 0.30290  0.90380  0.41120  Biso   1.000  H
  H64      1.0000 0.69710  0.40380  0.08880  Biso   1.000  H
  H65      1.0000 0.85950  0.11810  0.61130  Biso   1.000  H
  H66      1.0000 0.14050  0.61810  0.88870  Biso   1.000  H
  H67      1.0000 0.14050  0.88190  0.38870  Biso   1.000  H
  H68      1.0000 0.85950  0.38190  0.11130  Biso   1.000  H
  H69      1.0000 0.81120  0.00700  0.58930  Biso   1.000  H
  H70      1.0000 0.18880  0.50700  0.91070  Biso   1.000  H
  H71      1.0000 0.18880  0.99300  0.41070  Biso   1.000  H
  H72      1.0000 0.81120  0.49300  0.08930  Biso   1.000  H
  C45      1.0000 0.79290  0.92840  0.44940  Biso   1.000  C
  C46      1.0000 0.20710  0.42840  0.05060  Biso   1.000  C
  C47      1.0000 0.20710  0.07160  0.55060  Biso   1.000  C
  C48      1.0000 0.79290  0.57160  0.94940  Biso   1.000  C
  H73      1.0000 0.82980  0.89280  0.48920  Biso   1.000  H
  H74      1.0000 0.17020  0.39280  0.01080  Biso   1.000  H
  H75      1.0000 0.17020  0.10720  0.51080  Biso   1.000  H
  H76      1.0000 0.82980  0.60720  0.98920  Biso   1.000  H
  H77      1.0000 0.83760  0.90160  0.41050  Biso   1.000  H
  H78      1.0000 0.16240  0.40160  0.08950  Biso   1.000  H
  H79      1.0000 0.16240  0.09840  0.58950  Biso   1.000  H
  H80      1.0000 0.83760  0.59840  0.91050  Biso   1.000  H
  H81      1.0000 0.68980  0.91890  0.44400  Biso   1.000  H
  H82      1.0000 0.31020  0.41890  0.05600  Biso   1.000  H
  H83      1.0000 0.31020  0.08110  0.55600  Biso   1.000  H
  H84      1.0000 0.68980  0.58110  0.94400  Biso   1.000  H
  C49      1.0000 0.23470  0.33030  0.43360  Biso   1.000  C
  C50      1.0000 0.76530  0.83030  0.06640  Biso   1.000  C
  C51      1.0000 0.76530  0.66970  0.56640  Biso   1.000  C
  C52      1.0000 0.23470  0.16970  0.93360  Biso   1.000  C
  C53      1.0000 0.36350  0.27870  0.44240  Biso   1.000  C
  C54      1.0000 0.63650  0.77870  0.05760  Biso   1.000  C
  C55      1.0000 0.63650  0.72130  0.55760  Biso   1.000  C
  C56      1.0000 0.36350  0.22130  0.94240  Biso   1.000  C
  C57      1.0000 0.35650  0.20110  0.39660  Biso   1.000  C
  C58      1.0000 0.64350  0.70110  0.10340  Biso   1.000  C
  C59      1.0000 0.64350  0.79890  0.60340  Biso   1.000  C
  C60      1.0000 0.35650  0.29890  0.89660  Biso   1.000  C
  C61      1.0000 0.18920  0.42500  0.46860  Biso   1.000  C
  C62      1.0000 0.81080  0.92500  0.03140  Biso   1.000  C
  C63      1.0000 0.81080  0.57500  0.53140  Biso   1.000  C
  C64      1.0000 0.18920  0.07500  0.96860  Biso   1.000  C
  H85      1.0000 0.09940  0.44940  0.44770  Biso   1.000  H
  H86      1.0000 0.90060  0.94940  0.05230  Biso   1.000  H
  H87      1.0000 0.90060  0.55060  0.55230  Biso   1.000  H
  H88      1.0000 0.09940  0.05060  0.94770  Biso   1.000  H
  H89      1.0000 0.26230  0.47690  0.46530  Biso   1.000  H
  H90      1.0000 0.73770  0.97690  0.03470  Biso   1.000  H
  H91      1.0000 0.73770  0.52310  0.53470  Biso   1.000  H
  H92      1.0000 0.26230  0.02310  0.96530  Biso   1.000  H
  H93      1.0000 0.17660  0.41000  0.51540  Biso   1.000  H
  H94      1.0000 0.82340  0.91000  0.98460  Biso   1.000  H
  H95      1.0000 0.82340  0.59000  0.48460  Biso   1.000  H
  H96      1.0000 0.17660  0.09000  0.01540  Biso   1.000  H
  C65      1.0000 0.48660  0.29970  0.49290  Biso   1.000  C
  C66      1.0000 0.51340  0.79970  0.00710  Biso   1.000  C
  C67      1.0000 0.51340  0.70030  0.50710  Biso   1.000  C
  C68      1.0000 0.48660  0.20030  0.99290  Biso   1.000  C
  H97      1.0000 0.48490  0.25080  0.52910  Biso   1.000  H
  H98      1.0000 0.51510  0.75080  0.97090  Biso   1.000  H
  H99      1.0000 0.51510  0.74920  0.47090  Biso   1.000  H
  H100     1.0000 0.48490  0.24920  0.02910  Biso   1.000  H
  H101     1.0000 0.47730  0.36780  0.51070  Biso   1.000  H
  H102     1.0000 0.52270  0.86780  0.98930  Biso   1.000  H
  H103     1.0000 0.52270  0.63220  0.48930  Biso   1.000  H
  H104     1.0000 0.47730  0.13220  0.01070  Biso   1.000  H
  H105     1.0000 0.57670  0.29400  0.47120  Biso   1.000  H
  H106     1.0000 0.42330  0.79400  0.02880  Biso   1.000  H
  H107     1.0000 0.42330  0.70600  0.52880  Biso   1.000  H
  H108     1.0000 0.57670  0.20600  0.97120  Biso   1.000  H
  C69      1.0000 0.46650  0.12280  0.38030  Biso   1.000  C
  C70      1.0000 0.53350  0.62280  0.11970  Biso   1.000  C
  C71      1.0000 0.53350  0.87720  0.61970  Biso   1.000  C
  C72      1.0000 0.46650  0.37720  0.88030  Biso   1.000  C
  H109     1.0000 0.42690  0.07830  0.34530  Biso   1.000  H
  H110     1.0000 0.57310  0.57830  0.15470  Biso   1.000  H
  H111     1.0000 0.57310  0.92170  0.65470  Biso   1.000  H
  H112     1.0000 0.42690  0.42170  0.84530  Biso   1.000  H
  H113     1.0000 0.49240  0.08310  0.42000  Biso   1.000  H
  H114     1.0000 0.50760  0.58310  0.08000  Biso   1.000  H
  H115     1.0000 0.50760  0.91690  0.58000  Biso   1.000  H
  H116     1.0000 0.49240  0.41690  0.92000  Biso   1.000  H
  H117     1.0000 0.55110  0.15650  0.36510  Biso   1.000  H
  H118     1.0000 0.44890  0.65650  0.13490  Biso   1.000  H
  H119     1.0000 0.44890  0.84350  0.63490  Biso   1.000  H
  H120     1.0000 0.55110  0.34350  0.86510  Biso   1.000  H
