data_image0
_cell_length_a       9.5494
_cell_length_b       13.1792
_cell_length_c       16.342
_cell_angle_alpha    107.713
_cell_angle_beta     103.017
_cell_angle_gamma    93.646

_symmetry_space_group_name_H-M    "P 1"
_symmetry_int_tables_number       1

loop_
  _symmetry_equiv_pos_as_xyz
  'x, y, z'

loop_
  _atom_site_label
  _atom_site_occupancy
  _atom_site_fract_x
  _atom_site_fract_y
  _atom_site_fract_z
  _atom_site_thermal_displace_type
  _atom_site_B_iso_or_equiv
  _atom_site_type_symbol
  C1       1.0000 0.43560  0.21110  0.12690  Biso   1.000  C
  C2       1.0000 0.56440  0.78890  0.87310  Biso   1.000  C
  C3       1.0000 0.39980  0.25180  0.05780  Biso   1.000  C
  C4       1.0000 0.60020  0.74820  0.94220  Biso   1.000  C
  C5       1.0000 0.47120  0.22460  0.99110  Biso   1.000  C
  C6       1.0000 0.52880  0.77540  0.00890  Biso   1.000  C
  C7       1.0000 0.57690  0.15790  0.99590  Biso   1.000  C
  C8       1.0000 0.42310  0.84210  0.00410  Biso   1.000  C
  C9       1.0000 0.60820  0.11960  0.06710  Biso   1.000  C
  C10      1.0000 0.39180  0.88040  0.93290  Biso   1.000  C
  C11      1.0000 0.71550  0.04620  0.07870  Biso   1.000  C
  C12      1.0000 0.28450  0.95380  0.92130  Biso   1.000  C
  C13      1.0000 0.79320  0.00210  0.01740  Biso   1.000  C
  C14      1.0000 0.20680  0.99790  0.98260  Biso   1.000  C
  C15      1.0000 0.88750  0.93150  0.03430  Biso   1.000  C
  C16      1.0000 0.11250  0.06850  0.96570  Biso   1.000  C
  C17      1.0000 0.90540  0.90840  0.11200  Biso   1.000  C
  C18      1.0000 0.09460  0.09160  0.88800  Biso   1.000  C
  C19      1.0000 0.82710  0.95520  0.17130  Biso   1.000  C
  C20      1.0000 0.17290  0.04480  0.82870  Biso   1.000  C
  C21      1.0000 0.49880  0.23170  0.56570  Biso   1.000  C
  C22      1.0000 0.50120  0.76830  0.43430  Biso   1.000  C
  C23      1.0000 0.41560  0.24650  0.62660  Biso   1.000  C
  C24      1.0000 0.58440  0.75350  0.37340  Biso   1.000  C
  C25      1.0000 0.31100  0.31180  0.62190  Biso   1.000  C
  C26      1.0000 0.68900  0.68820  0.37810  Biso   1.000  C
  C27      1.0000 0.29090  0.36320  0.55930  Biso   1.000  C
  C28      1.0000 0.70910  0.63680  0.44070  Biso   1.000  C
  C29      1.0000 0.37890  0.34610  0.50080  Biso   1.000  C
  C30      1.0000 0.62110  0.65390  0.49920  Biso   1.000  C
  C31      1.0000 0.37210  0.39860  0.43210  Biso   1.000  C
  C32      1.0000 0.62790  0.60140  0.56790  Biso   1.000  C
  C33      1.0000 0.27160  0.46640  0.41480  Biso   1.000  C
  C34      1.0000 0.72840  0.53360  0.58520  Biso   1.000  C
  C35      1.0000 0.27520  0.50840  0.34780  Biso   1.000  C
  C36      1.0000 0.72480  0.49160  0.65220  Biso   1.000  C
  C37      1.0000 0.37830  0.48560  0.30110  Biso   1.000  C
  C38      1.0000 0.62170  0.51440  0.69890  Biso   1.000  C
  C39      1.0000 0.47710  0.41900  0.32180  Biso   1.000  C
  C40      1.0000 0.52290  0.58100  0.67820  Biso   1.000  C
  C41      1.0000 0.73630  0.07680  0.40870  Biso   1.000  C
  C42      1.0000 0.26370  0.92320  0.59130  Biso   1.000  C
  C43      1.0000 0.92150  0.94650  0.41580  Biso   1.000  C
  C44      1.0000 0.07850  0.05350  0.58420  Biso   1.000  C
  H1       1.0000 0.97650  0.98510  0.38860  Biso   1.000  H
  H2       1.0000 0.02350  0.01490  0.61140  Biso   1.000  H
  H3       1.0000 0.85730  0.88710  0.36860  Biso   1.000  H
  H4       1.0000 0.14270  0.11290  0.63140  Biso   1.000  H
  C45      1.0000 0.97170  0.09920  0.52170  Biso   1.000  C
  C46      1.0000 0.02830  0.90080  0.47830  Biso   1.000  C
  H5       1.0000 0.94390  0.16410  0.55770  Biso   1.000  H
  H6       1.0000 0.05610  0.83590  0.44230  Biso   1.000  H
  H7       1.0000 0.02240  0.11920  0.48250  Biso   1.000  H
  H8       1.0000 0.97760  0.88080  0.51750  Biso   1.000  H
  C47      1.0000 0.82480  0.32300  0.34950  Biso   1.000  C
  C48      1.0000 0.17520  0.67700  0.65050  Biso   1.000  C
  C49      1.0000 0.92690  0.29090  0.29010  Biso   1.000  C
  C50      1.0000 0.07310  0.70910  0.70990  Biso   1.000  C
  C51      1.0000 0.01950  0.21200  0.32100  Biso   1.000  C
  C52      1.0000 0.98050  0.78800  0.67900  Biso   1.000  C
  C53      1.0000 0.12550  0.17240  0.26610  Biso   1.000  C
  C54      1.0000 0.87450  0.82760  0.73390  Biso   1.000  C
  C55      1.0000 0.21040  0.08940  0.29740  Biso   1.000  C
  C56      1.0000 0.78960  0.91060  0.70260  Biso   1.000  C
  C57      1.0000 0.33080  0.06240  0.25220  Biso   1.000  C
  C58      1.0000 0.66920  0.93760  0.74780  Biso   1.000  C
  C59      1.0000 0.09980  0.75090  0.25670  Biso   1.000  C
  C60      1.0000 0.90020  0.24910  0.74330  Biso   1.000  C
  C61      1.0000 0.84340  0.68660  0.18990  Biso   1.000  C
  C62      1.0000 0.15660  0.31340  0.81010  Biso   1.000  C
  C63      1.0000 0.98770  0.66490  0.20110  Biso   1.000  C
  C64      1.0000 0.01230  0.33510  0.79890  Biso   1.000  C
  C65      1.0000 0.02060  0.56140  0.16560  Biso   1.000  C
  C66      1.0000 0.97940  0.43860  0.83440  Biso   1.000  C
  C67      1.0000 0.92600  0.46630  0.14350  Biso   1.000  C
  C68      1.0000 0.07400  0.53370  0.85650  Biso   1.000  C
  C69      1.0000 0.79830  0.46160  0.17370  Biso   1.000  C
  C70      1.0000 0.20170  0.53840  0.82630  Biso   1.000  C
  C71      1.0000 0.96080  0.36670  0.09450  Biso   1.000  C
  C72      1.0000 0.03920  0.63330  0.90550  Biso   1.000  C
  C73      1.0000 0.23390  0.61540  0.12170  Biso   1.000  C
  C74      1.0000 0.76610  0.38460  0.87830  Biso   1.000  C
  C75      1.0000 0.32110  0.54950  0.06630  Biso   1.000  C
  C76      1.0000 0.67890  0.45050  0.93370  Biso   1.000  C
  N1       1.0000 0.53750  0.14590  0.13180  Biso   1.000  N
  N2       1.0000 0.46250  0.85410  0.86820  Biso   1.000  N
  N3       1.0000 0.73340  0.02340  0.15557  Biso   1.000  N
  N4       1.0000 0.26660  0.97660  0.84443  Biso   1.000  N
  N5       1.0000 0.48150  0.27960  0.50320  Biso   1.000  N
  N6       1.0000 0.51850  0.72040  0.49680  Biso   1.000  N
  N7       1.0000 0.47290  0.37540  0.38516  Biso   1.000  N
  N8       1.0000 0.52710  0.62460  0.61484  Biso   1.000  N
  N9       1.0000 0.18740  0.82030  0.30330  Biso   1.000  N
  N10      1.0000 0.81260  0.17970  0.69670  Biso   1.000  N
  N11      1.0000 0.72590  0.70780  0.18020  Biso   1.000  N
  N12      1.0000 0.27410  0.29220  0.81980  Biso   1.000  N
  N13      1.0000 0.98320  0.28400  0.05380  Biso   1.000  N
  N14      1.0000 0.01680  0.71600  0.94620  Biso   1.000  N
  N15      1.0000 0.69330  0.45450  0.19770  Biso   1.000  N
  N16      1.0000 0.30670  0.54550  0.80230  Biso   1.000  N
  O1       1.0000 0.70250  0.16520  0.45188  Biso   1.000  O
  O2       1.0000 0.29750  0.83480  0.54812  Biso   1.000  O
  O3       1.0000 0.70140  0.03350  0.32531  Biso   1.000  O
  O4       1.0000 0.29860  0.96650  0.67469  Biso   1.000  O
  O5       1.0000 0.70100  0.26240  0.32367  Biso   1.000  O
  O6       1.0000 0.29900  0.73760  0.67633  Biso   1.000  O
  O7       1.0000 0.86410  0.39830  0.42016  Biso   1.000  O
  O8       1.0000 0.13590  0.60170  0.57984  Biso   1.000  O
  O9       1.0000 0.45070  0.12950  0.28839  Biso   1.000  O
  O10      1.0000 0.54930  0.87050  0.71161  Biso   1.000  O
  O11      1.0000 0.31590  0.98520  0.18488  Biso   1.000  O
  O12      1.0000 0.68410  0.01480  0.81512  Biso   1.000  O
  O13      1.0000 0.15310  0.54410  0.15280  Biso   1.000  O
  O14      1.0000 0.84690  0.45590  0.84720  Biso   1.000  O
  O15      1.0000 0.00200  0.59600  0.39620  Biso   1.000  O
  O16      1.0000 0.99800  0.40400  0.60380  Biso   1.000  O
  O17      1.0000 0.04870  0.66570  0.42080  Biso   1.000  O
  O18      1.0000 0.95130  0.33430  0.57920  Biso   1.000  O
  Cu1      1.0000 0.60656  0.09023  0.23218  Biso   1.000  Cu
  Cu2      1.0000 0.39344  0.90977  0.76782  Biso   1.000  Cu
  Cu3      1.0000 0.58897  0.26384  0.40966  Biso   1.000  Cu
  Cu4      1.0000 0.41103  0.73616  0.59034  Biso   1.000  Cu
  C77      1.0000 0.83190  0.02070  0.46410  Biso   1.000  C
  C78      1.0000 0.16810  0.97930  0.53590  Biso   1.000  C
  H9       1.0000 0.57600  0.19000  0.56500  Biso   1.000  H
  H10      1.0000 0.42400  0.81000  0.43500  Biso   1.000  H
  H11      1.0000 0.19900  0.23200  0.27100  Biso   1.000  H
  H12      1.0000 0.80100  0.76800  0.72900  Biso   1.000  H
  H13      1.0000 0.86600  0.25300  0.23000  Biso   1.000  H
  H14      1.0000 0.13400  0.74700  0.77000  Biso   1.000  H
  H15      1.0000 0.62700  0.13900  0.95300  Biso   1.000  H
  H16      1.0000 0.37300  0.86100  0.04700  Biso   1.000  H
  H17      1.0000 0.98500  0.35100  0.29600  Biso   1.000  H
  H18      1.0000 0.01500  0.64900  0.70400  Biso   1.000  H
  H19      1.0000 0.07500  0.14000  0.19900  Biso   1.000  H
  H20      1.0000 0.92500  0.86000  0.80100  Biso   1.000  H
  H21      1.0000 0.93900  0.90400  0.99100  Biso   1.000  H
  H22      1.0000 0.06100  0.09600  0.00900  Biso   1.000  H
  H23      1.0000 0.21600  0.55600  0.33800  Biso   1.000  H
  H24      1.0000 0.78400  0.44400  0.66200  Biso   1.000  H
  H25      1.0000 0.78300  0.02000  0.97100  Biso   1.000  H
  H26      1.0000 0.21700  0.98000  0.02900  Biso   1.000  H
  H27      1.0000 0.54500  0.40200  0.29200  Biso   1.000  H
  H28      1.0000 0.45500  0.59800  0.70800  Biso   1.000  H
  H29      1.0000 0.83200  0.94100  0.22700  Biso   1.000  H
  H30      1.0000 0.16800  0.05900  0.77300  Biso   1.000  H
  H31      1.0000 0.25500  0.12300  0.36300  Biso   1.000  H
  H32      1.0000 0.74500  0.87700  0.63700  Biso   1.000  H
  H33      1.0000 0.22100  0.41200  0.55600  Biso   1.000  H
  H34      1.0000 0.77900  0.58800  0.44400  Biso   1.000  H
  H35      1.0000 0.14400  0.03400  0.28600  Biso   1.000  H
  H36      1.0000 0.85600  0.96600  0.71400  Biso   1.000  H
  H37      1.0000 0.32100  0.29700  0.06200  Biso   1.000  H
  H38      1.0000 0.67900  0.70300  0.93800  Biso   1.000  H
  H39      1.0000 0.07300  0.24700  0.38300  Biso   1.000  H
  H40      1.0000 0.92700  0.75300  0.61700  Biso   1.000  H
  H41      1.0000 0.95400  0.15200  0.31800  Biso   1.000  H
  H42      1.0000 0.04600  0.84800  0.68200  Biso   1.000  H
  H43      1.0000 0.25700  0.31700  0.65300  Biso   1.000  H
  H44      1.0000 0.74300  0.68300  0.34700  Biso   1.000  H
  H45      1.0000 0.19900  0.47500  0.44300  Biso   1.000  H
  H46      1.0000 0.80100  0.52500  0.55700  Biso   1.000  H
  H47      1.0000 0.38000  0.21900  0.17100  Biso   1.000  H
  H48      1.0000 0.62000  0.78100  0.82900  Biso   1.000  H
  H49      1.0000 0.43100  0.21000  0.66600  Biso   1.000  H
  H50      1.0000 0.56900  0.79000  0.33400  Biso   1.000  H
  H51      1.0000 0.95900  0.86800  0.12400  Biso   1.000  H
  H52      1.0000 0.04100  0.13200  0.87600  Biso   1.000  H
  H53      1.0000 0.44800  0.24700  0.94600  Biso   1.000  H
  H54      1.0000 0.55200  0.75300  0.05400  Biso   1.000  H
  H55      1.0000 0.38100  0.51500  0.25900  Biso   1.000  H
  H56      1.0000 0.61900  0.48500  0.74100  Biso   1.000  H
  H57      1.0000 0.27800  0.67000  0.17000  Biso   1.000  H
  H58      1.0000 0.72200  0.33000  0.83000  Biso   1.000  H
  H59      1.0000 0.24100  0.48500  0.01400  Biso   1.000  H
  H60      1.0000 0.75900  0.51500  0.98600  Biso   1.000  H
  H61      1.0000 0.16900  0.65200  0.08800  Biso   1.000  H
  H62      1.0000 0.83100  0.34800  0.91200  Biso   1.000  H
  H63      1.0000 0.39900  0.52600  0.10200  Biso   1.000  H
  H64      1.0000 0.60100  0.47400  0.89800  Biso   1.000  H
  H65      1.0000 0.37200  0.59700  0.04500  Biso   1.000  H
  H66      1.0000 0.62800  0.40300  0.95500  Biso   1.000  H
