data_image0
_cell_length_a       7.4572
_cell_length_b       19.1254
_cell_length_c       12.5914
_cell_angle_alpha    90
_cell_angle_beta     102.692
_cell_angle_gamma    90

_symmetry_space_group_name_H-M    "P 1"
_symmetry_int_tables_number       1

loop_
  _symmetry_equiv_pos_as_xyz
  'x, y, z'

loop_
  _atom_site_label
  _atom_site_occupancy
  _atom_site_fract_x
  _atom_site_fract_y
  _atom_site_fract_z
  _atom_site_thermal_displace_type
  _atom_site_B_iso_or_equiv
  _atom_site_type_symbol
  C1       1.0000 0.78590  0.60810  0.59370  Biso   1.000  C
  C2       1.0000 0.71410  0.10810  0.90630  Biso   1.000  C
  C3       1.0000 0.21410  0.39190  0.40630  Biso   1.000  C
  C4       1.0000 0.28590  0.89190  0.09370  Biso   1.000  C
  H1       1.0000 0.72630  0.56560  0.56180  Biso   1.000  H
  H2       1.0000 0.77370  0.06560  0.93820  Biso   1.000  H
  H3       1.0000 0.27370  0.43440  0.43820  Biso   1.000  H
  H4       1.0000 0.22630  0.93440  0.06180  Biso   1.000  H
  H5       1.0000 0.91720  0.60240  0.60080  Biso   1.000  H
  H6       1.0000 0.58280  0.10240  0.89920  Biso   1.000  H
  H7       1.0000 0.08280  0.39760  0.39920  Biso   1.000  H
  H8       1.0000 0.41720  0.89760  0.10080  Biso   1.000  H
  C5       1.0000 0.74700  0.61780  0.70530  Biso   1.000  C
  C6       1.0000 0.75300  0.11780  0.79470  Biso   1.000  C
  C7       1.0000 0.25300  0.38220  0.29470  Biso   1.000  C
  C8       1.0000 0.24700  0.88220  0.20530  Biso   1.000  C
  H9       1.0000 0.61860  0.63010  0.69790  Biso   1.000  H
  H10      1.0000 0.88140  0.13010  0.80210  Biso   1.000  H
  H11      1.0000 0.38140  0.36990  0.30210  Biso   1.000  H
  H12      1.0000 0.11860  0.86990  0.19790  Biso   1.000  H
  H13      1.0000 0.82080  0.65620  0.74170  Biso   1.000  H
  H14      1.0000 0.67920  0.15620  0.75830  Biso   1.000  H
  H15      1.0000 0.17920  0.34380  0.25830  Biso   1.000  H
  H16      1.0000 0.32080  0.84380  0.24170  Biso   1.000  H
  C9       1.0000 0.78840  0.55290  0.77410  Biso   1.000  C
  C10      1.0000 0.71160  0.05290  0.72590  Biso   1.000  C
  C11      1.0000 0.21160  0.44710  0.22590  Biso   1.000  C
  C12      1.0000 0.28840  0.94710  0.27410  Biso   1.000  C
  H17      1.0000 0.90910  0.53580  0.76990  Biso   1.000  H
  H18      1.0000 0.59090  0.03580  0.73010  Biso   1.000  H
  H19      1.0000 0.09090  0.46420  0.23010  Biso   1.000  H
  H20      1.0000 0.40910  0.96420  0.26990  Biso   1.000  H
  H21      1.0000 0.69960  0.51710  0.74400  Biso   1.000  H
  H22      1.0000 0.80040  0.01710  0.75600  Biso   1.000  H
  H23      1.0000 0.30040  0.48290  0.25600  Biso   1.000  H
  H24      1.0000 0.19960  0.98290  0.24400  Biso   1.000  H
  C13      1.0000 0.17860  0.71760  0.38000  Biso   1.000  C
  C14      1.0000 0.32140  0.21760  0.12000  Biso   1.000  C
  C15      1.0000 0.82140  0.28240  0.62000  Biso   1.000  C
  C16      1.0000 0.67860  0.78240  0.88000  Biso   1.000  C
  H25      1.0000 0.11300  0.75580  0.34560  Biso   1.000  H
  H26      1.0000 0.38700  0.25580  0.15440  Biso   1.000  H
  H27      1.0000 0.88700  0.24420  0.65440  Biso   1.000  H
  H28      1.0000 0.61300  0.74420  0.84560  Biso   1.000  H
  C17      1.0000 0.36640  0.72340  0.41340  Biso   1.000  C
  C18      1.0000 0.13360  0.22340  0.08660  Biso   1.000  C
  C19      1.0000 0.63360  0.27660  0.58660  Biso   1.000  C
  C20      1.0000 0.86640  0.77660  0.91340  Biso   1.000  C
  H29      1.0000 0.42510  0.76440  0.40030  Biso   1.000  H
  H30      1.0000 0.07490  0.26440  0.09970  Biso   1.000  H
  H31      1.0000 0.57490  0.23560  0.59970  Biso   1.000  H
  H32      1.0000 0.92510  0.73560  0.90030  Biso   1.000  H
  C21      1.0000 0.46690  0.66870  0.46620  Biso   1.000  C
  C22      1.0000 0.03310  0.16870  0.03380  Biso   1.000  C
  C23      1.0000 0.53310  0.33130  0.53380  Biso   1.000  C
  C24      1.0000 0.96690  0.83130  0.96620  Biso   1.000  C
  C25      1.0000 0.37260  0.60990  0.48320  Biso   1.000  C
  C26      1.0000 0.12740  0.10990  0.01680  Biso   1.000  C
  C27      1.0000 0.62740  0.39010  0.51680  Biso   1.000  C
  C28      1.0000 0.87260  0.89010  0.98320  Biso   1.000  C
  H33      1.0000 0.43430  0.57170  0.51990  Biso   1.000  H
  H34      1.0000 0.06570  0.07170  0.98010  Biso   1.000  H
  H35      1.0000 0.56570  0.42830  0.48010  Biso   1.000  H
  H36      1.0000 0.93430  0.92830  0.01990  Biso   1.000  H
  C29      1.0000 0.18580  0.60830  0.44540  Biso   1.000  C
  C30      1.0000 0.31420  0.10830  0.05460  Biso   1.000  C
  C31      1.0000 0.81420  0.39170  0.55460  Biso   1.000  C
  C32      1.0000 0.68580  0.89170  0.94540  Biso   1.000  C
  H37      1.0000 0.12470  0.56740  0.45670  Biso   1.000  H
  H38      1.0000 0.37530  0.06740  0.04330  Biso   1.000  H
  H39      1.0000 0.87530  0.43260  0.54330  Biso   1.000  H
  H40      1.0000 0.62470  0.93260  0.95670  Biso   1.000  H
  C33      1.0000 0.20540  0.63230  0.13700  Biso   1.000  C
  C34      1.0000 0.29460  0.13230  0.36300  Biso   1.000  C
  C35      1.0000 0.79460  0.36770  0.86300  Biso   1.000  C
  C36      1.0000 0.70540  0.86770  0.63700  Biso   1.000  C
  H41      1.0000 0.22720  0.64270  0.21080  Biso   1.000  H
  H42      1.0000 0.27280  0.14270  0.28920  Biso   1.000  H
  H43      1.0000 0.77280  0.35730  0.78920  Biso   1.000  H
  H44      1.0000 0.72720  0.85730  0.71080  Biso   1.000  H
  C37      1.0000 0.03840  0.61070  0.08560  Biso   1.000  C
  C38      1.0000 0.46160  0.11070  0.41440  Biso   1.000  C
  C39      1.0000 0.96160  0.38930  0.91440  Biso   1.000  C
  C40      1.0000 0.53840  0.88930  0.58560  Biso   1.000  C
  H45      1.0000 0.94670  0.60530  0.12440  Biso   1.000  H
  H46      1.0000 0.55330  0.10530  0.37560  Biso   1.000  H
  H47      1.0000 0.05330  0.39470  0.87560  Biso   1.000  H
  H48      1.0000 0.44670  0.89470  0.62440  Biso   1.000  H
  C41      1.0000 0.00010  0.59610  0.97380  Biso   1.000  C
  C42      1.0000 0.49990  0.09610  0.52620  Biso   1.000  C
  C43      1.0000 0.99990  0.40390  0.02620  Biso   1.000  C
  C44      1.0000 0.50010  0.90390  0.47380  Biso   1.000  C
  C45      1.0000 0.14370  0.60480  0.92070  Biso   1.000  C
  C46      1.0000 0.35630  0.10480  0.57930  Biso   1.000  C
  C47      1.0000 0.85630  0.39520  0.07930  Biso   1.000  C
  C48      1.0000 0.64370  0.89520  0.42070  Biso   1.000  C
  H49      1.0000 0.12540  0.59550  0.84660  Biso   1.000  H
  H50      1.0000 0.37460  0.09550  0.65340  Biso   1.000  H
  H51      1.0000 0.87460  0.40450  0.15340  Biso   1.000  H
  H52      1.0000 0.62540  0.90450  0.34660  Biso   1.000  H
  C49      1.0000 0.31160  0.62700  0.97740  Biso   1.000  C
  C50      1.0000 0.18840  0.12700  0.52260  Biso   1.000  C
  C51      1.0000 0.68840  0.37300  0.02260  Biso   1.000  C
  C52      1.0000 0.81160  0.87300  0.47740  Biso   1.000  C
  H53      1.0000 0.40640  0.63370  0.94120  Biso   1.000  H
  H54      1.0000 0.09360  0.13370  0.55880  Biso   1.000  H
  H55      1.0000 0.59360  0.36630  0.05880  Biso   1.000  H
  H56      1.0000 0.90640  0.86630  0.44120  Biso   1.000  H
  Cu1      1.0000 0.80711  0.65441  0.33891  Biso   1.000  Cu
  Cu2      1.0000 0.69289  0.15441  0.16109  Biso   1.000  Cu
  Cu3      1.0000 0.19289  0.34559  0.66109  Biso   1.000  Cu
  Cu4      1.0000 0.30711  0.84559  0.83891  Biso   1.000  Cu
  I1       1.0000 0.70741  0.52697  0.28670  Biso   1.000  I
  I2       1.0000 0.79259  0.02697  0.21330  Biso   1.000  I
  I3       1.0000 0.29259  0.47303  0.71330  Biso   1.000  I
  I4       1.0000 0.20741  0.97303  0.78670  Biso   1.000  I
  I5       1.0000 0.70057  0.75353  0.19965  Biso   1.000  I
  I6       1.0000 0.79943  0.25353  0.30035  Biso   1.000  I
  I7       1.0000 0.29943  0.24647  0.80035  Biso   1.000  I
  I8       1.0000 0.20057  0.74647  0.69965  Biso   1.000  I
  N1       1.0000 0.08580  0.65990  0.39430  Biso   1.000  N
  N2       1.0000 0.41420  0.15990  0.10570  Biso   1.000  N
  N3       1.0000 0.91420  0.34010  0.60570  Biso   1.000  N
  N4       1.0000 0.58580  0.84010  0.89430  Biso   1.000  N
  N5       1.0000 0.34120  0.63930  0.08450  Biso   1.000  N
  N6       1.0000 0.15880  0.13930  0.41550  Biso   1.000  N
  N7       1.0000 0.65880  0.36070  0.91550  Biso   1.000  N
  N8       1.0000 0.84120  0.86070  0.58450  Biso   1.000  N
  S1       1.0000 0.70720  0.68053  0.50361  Biso   1.000  S
  S2       1.0000 0.79280  0.18053  0.99639  Biso   1.000  S
  S3       1.0000 0.29280  0.31947  0.49639  Biso   1.000  S
  S4       1.0000 0.20720  0.81947  0.00361  Biso   1.000  S
  S5       1.0000 0.78320  0.56578  0.91501  Biso   1.000  S
  S6       1.0000 0.71680  0.06578  0.58499  Biso   1.000  S
  S7       1.0000 0.21680  0.43422  0.08499  Biso   1.000  S
  S8       1.0000 0.28320  0.93422  0.41501  Biso   1.000  S
  Cu5      1.0000 0.55730  0.64120  0.18840  Biso   1.000  Cu
  Cu6      1.0000 0.94270  0.14120  0.31160  Biso   1.000  Cu
  Cu7      1.0000 0.44270  0.35880  0.81160  Biso   1.000  Cu
  Cu8      1.0000 0.05730  0.85880  0.68840  Biso   1.000  Cu
  H57      1.0000 0.44870  0.65190  0.11960  Biso   1.000  H
  H58      1.0000 0.05130  0.15190  0.38040  Biso   1.000  H
  H59      1.0000 0.55130  0.34810  0.88040  Biso   1.000  H
  H60      1.0000 0.94870  0.84810  0.61960  Biso   1.000  H
