data_image0
_cell_length_a       9.4271
_cell_length_b       11.3593
_cell_length_c       12.0958
_cell_angle_alpha    71.095
_cell_angle_beta     80.394
_cell_angle_gamma    81.64

_symmetry_space_group_name_H-M    "P 1"
_symmetry_int_tables_number       1

loop_
  _symmetry_equiv_pos_as_xyz
  'x, y, z'

loop_
  _atom_site_label
  _atom_site_occupancy
  _atom_site_fract_x
  _atom_site_fract_y
  _atom_site_fract_z
  _atom_site_thermal_displace_type
  _atom_site_B_iso_or_equiv
  _atom_site_type_symbol
  C1       1.0000 0.21870  0.61150  0.06050  Biso   1.000  C
  C2       1.0000 0.78130  0.38850  0.93950  Biso   1.000  C
  C3       1.0000 0.26930  0.27510  0.55450  Biso   1.000  C
  C4       1.0000 0.73070  0.72490  0.44550  Biso   1.000  C
  C5       1.0000 0.13300  0.65170  0.37030  Biso   1.000  C
  C6       1.0000 0.86700  0.34830  0.62970  Biso   1.000  C
  H1       1.0000 0.05800  0.63320  0.33960  Biso   1.000  H
  H2       1.0000 0.94200  0.36680  0.66040  Biso   1.000  H
  C7       1.0000 0.10540  0.74180  0.42650  Biso   1.000  C
  C8       1.0000 0.89460  0.25820  0.57350  Biso   1.000  C
  H3       1.0000 0.01270  0.78200  0.43400  Biso   1.000  H
  H4       1.0000 0.98730  0.21800  0.56600  Biso   1.000  H
  C9       1.0000 0.21510  0.77280  0.47190  Biso   1.000  C
  C10      1.0000 0.78490  0.22720  0.52810  Biso   1.000  C
  C11      1.0000 0.34900  0.71020  0.45660  Biso   1.000  C
  C12      1.0000 0.65100  0.28980  0.54340  Biso   1.000  C
  H5       1.0000 0.42630  0.72890  0.48470  Biso   1.000  H
  H6       1.0000 0.57370  0.27110  0.51530  Biso   1.000  H
  C13      1.0000 0.37070  0.62110  0.40090  Biso   1.000  C
  C14      1.0000 0.62930  0.37890  0.59910  Biso   1.000  C
  H7       1.0000 0.46310  0.58080  0.39220  Biso   1.000  H
  H8       1.0000 0.53690  0.41920  0.60780  Biso   1.000  H
  C15      1.0000 0.33860  0.90640  0.58450  Biso   1.000  C
  C16      1.0000 0.66140  0.09360  0.41550  Biso   1.000  C
  H9       1.0000 0.31950  0.94350  0.64790  Biso   1.000  H
  H10      1.0000 0.68050  0.05650  0.35210  Biso   1.000  H
  H11      1.0000 0.39280  0.82550  0.61290  Biso   1.000  H
  H12      1.0000 0.60720  0.17450  0.38710  Biso   1.000  H
  C17      1.0000 0.43070  0.98930  0.48120  Biso   1.000  C
  C18      1.0000 0.56930  0.01070  0.51880  Biso   1.000  C
  H13      1.0000 0.37570  0.06910  0.45000  Biso   1.000  H
  H14      1.0000 0.62430  0.93090  0.55000  Biso   1.000  H
  H15      1.0000 0.45530  0.95020  0.41920  Biso   1.000  H
  H16      1.0000 0.54470  0.04980  0.58080  Biso   1.000  H
  C19      1.0000 0.07660  0.01250  0.00450  Biso   1.000  C
  C20      1.0000 0.92340  0.98750  0.99550  Biso   1.000  C
  H17      1.0000 0.14150  0.00250  0.93630  Biso   1.000  H
  H18      1.0000 0.85850  0.99750  0.06370  Biso   1.000  H
  H19      1.0000 0.07530  0.09790  0.00480  Biso   1.000  H
  H20      1.0000 0.92470  0.90210  0.99520  Biso   1.000  H
  C21      1.0000 0.13210  0.92290  0.11640  Biso   1.000  C
  C22      1.0000 0.86790  0.07710  0.88360  Biso   1.000  C
  H21      1.0000 0.12590  0.83780  0.11830  Biso   1.000  H
  H22      1.0000 0.87410  0.16220  0.88170  Biso   1.000  H
  H23      1.0000 0.06950  0.93690  0.18420  Biso   1.000  H
  H24      1.0000 0.93050  0.06310  0.81580  Biso   1.000  H
  C23      1.0000 0.18050  0.23200  0.25450  Biso   1.000  C
  C24      1.0000 0.81950  0.76800  0.74550  Biso   1.000  C
  H25      1.0000 0.09550  0.26560  0.28910  Biso   1.000  H
  H26      1.0000 0.90450  0.73440  0.71090  Biso   1.000  H
  C25      1.0000 0.17560  0.12810  0.22120  Biso   1.000  C
  C26      1.0000 0.82440  0.87190  0.77880  Biso   1.000  C
  H27      1.0000 0.08860  0.09420  0.23120  Biso   1.000  H
  H28      1.0000 0.91140  0.90580  0.76880  Biso   1.000  H
  C27      1.0000 0.30200  0.07440  0.17220  Biso   1.000  C
  C28      1.0000 0.69800  0.92560  0.82780  Biso   1.000  C
  C29      1.0000 0.42690  0.13140  0.15710  Biso   1.000  C
  C30      1.0000 0.57310  0.86860  0.84290  Biso   1.000  C
  H29      1.0000 0.51370  0.09890  0.12390  Biso   1.000  H
  H30      1.0000 0.48630  0.90110  0.87610  Biso   1.000  H
  C31      1.0000 0.42240  0.23690  0.19140  Biso   1.000  C
  C32      1.0000 0.57760  0.76310  0.80860  Biso   1.000  C
  H31      1.0000 0.50770  0.27390  0.18000  Biso   1.000  H
  H32      1.0000 0.49230  0.72610  0.82000  Biso   1.000  H
  C33      1.0000 0.59540  0.52750  0.17610  Biso   1.000  C
  C34      1.0000 0.40460  0.47250  0.82390  Biso   1.000  C
  H33      1.0000 0.54320  0.57390  0.11470  Biso   1.000  H
  H34      1.0000 0.45680  0.42610  0.88530  Biso   1.000  H
  C35      1.0000 0.81670  0.48080  0.26110  Biso   1.000  C
  C36      1.0000 0.18330  0.51920  0.73890  Biso   1.000  C
  H35      1.0000 0.90980  0.51200  0.24380  Biso   1.000  H
  H36      1.0000 0.09020  0.48800  0.75620  Biso   1.000  H
  H37      1.0000 0.82830  0.39390  0.26590  Biso   1.000  H
  H38      1.0000 0.17170  0.60610  0.73410  Biso   1.000  H
  H39      1.0000 0.76960  0.49010  0.33500  Biso   1.000  H
  H40      1.0000 0.23040  0.50990  0.66500  Biso   1.000  H
  C37      1.0000 0.80090  0.63670  0.06720  Biso   1.000  C
  C38      1.0000 0.19910  0.36330  0.93280  Biso   1.000  C
  H41      1.0000 0.88480  0.59380  0.03520  Biso   1.000  H
  H42      1.0000 0.11520  0.40620  0.96480  Biso   1.000  H
  H43      1.0000 0.82950  0.70280  0.08930  Biso   1.000  H
  H44      1.0000 0.17050  0.29720  0.91070  Biso   1.000  H
  H45      1.0000 0.73580  0.67130  0.00890  Biso   1.000  H
  H46      1.0000 0.26420  0.32870  0.99110  Biso   1.000  H
  Cu1      1.0000 0.29490  0.44102  0.29421  Biso   1.000  Cu
  Cu2      1.0000 0.70510  0.55898  0.70579  Biso   1.000  Cu
  N1       1.0000 0.23320  0.55270  0.13780  Biso   1.000  N
  N2       1.0000 0.76680  0.44730  0.86220  Biso   1.000  N
  N3       1.0000 0.27790  0.33110  0.45970  Biso   1.000  N
  N4       1.0000 0.72210  0.66890  0.54030  Biso   1.000  N
  N5       1.0000 0.72980  0.55040  0.16890  Biso   1.000  N
  N6       1.0000 0.27020  0.44960  0.83110  Biso   1.000  N
  N7       1.0000 0.26520  0.58880  0.35810  Biso   1.000  N
  N8       1.0000 0.73480  0.41120  0.64190  Biso   1.000  N
  N9       1.0000 0.30340  0.28790  0.23950  Biso   1.000  N
  N10      1.0000 0.69660  0.71210  0.76050  Biso   1.000  N
  O1       1.0000 0.53280  0.44710  0.26040  Biso   1.000  O
  O2       1.0000 0.46720  0.55290  0.73960  Biso   1.000  O
  S1       1.0000 0.18850  0.71620  0.92490  Biso   1.000  S
  S2       1.0000 0.81150  0.28380  0.07510  Biso   1.000  S
  S3       1.0000 0.25750  0.19200  0.69460  Biso   1.000  S
  S4       1.0000 0.74250  0.80800  0.30540  Biso   1.000  S
  S5       1.0000 0.16829  0.88353  0.54829  Biso   1.000  S
  S6       1.0000 0.83171  0.11647  0.45171  Biso   1.000  S
  S7       1.0000 0.31480  0.93926  0.12900  Biso   1.000  S
  S8       1.0000 0.68520  0.06074  0.87100  Biso   1.000  S
