data_image0
_cell_length_a       13.7277
_cell_length_b       21.9101
_cell_length_c       16.477
_cell_angle_alpha    90
_cell_angle_beta     105.822
_cell_angle_gamma    90

_symmetry_space_group_name_H-M    "P 1"
_symmetry_int_tables_number       1

loop_
  _symmetry_equiv_pos_as_xyz
  'x, y, z'

loop_
  _atom_site_label
  _atom_site_occupancy
  _atom_site_fract_x
  _atom_site_fract_y
  _atom_site_fract_z
  _atom_site_thermal_displace_type
  _atom_site_B_iso_or_equiv
  _atom_site_type_symbol
  Br1      1.0000 0.54960  0.57783  0.61642  Biso   1.000  Br
  Br2      1.0000 0.45040  0.57783  0.88358  Biso   1.000  Br
  Br3      1.0000 0.04960  0.07783  0.61642  Biso   1.000  Br
  Br4      1.0000 0.95040  0.07783  0.88358  Biso   1.000  Br
  Br5      1.0000 0.45040  0.42217  0.38358  Biso   1.000  Br
  Br6      1.0000 0.54960  0.42217  0.11642  Biso   1.000  Br
  Br7      1.0000 0.95040  0.92217  0.38358  Biso   1.000  Br
  Br8      1.0000 0.04960  0.92217  0.11642  Biso   1.000  Br
  Br9      1.0000 0.36707  0.59506  0.39741  Biso   1.000  Br
  Br10     1.0000 0.63293  0.59506  0.10259  Biso   1.000  Br
  Br11     1.0000 0.86707  0.09506  0.39741  Biso   1.000  Br
  Br12     1.0000 0.13293  0.09506  0.10259  Biso   1.000  Br
  Br13     1.0000 0.63293  0.40494  0.60259  Biso   1.000  Br
  Br14     1.0000 0.36707  0.40494  0.89741  Biso   1.000  Br
  Br15     1.0000 0.13293  0.90494  0.60259  Biso   1.000  Br
  Br16     1.0000 0.86707  0.90494  0.89741  Biso   1.000  Br
  Br17     1.0000 0.40783  0.74722  0.62180  Biso   1.000  Br
  Br18     1.0000 0.59217  0.74722  0.87820  Biso   1.000  Br
  Br19     1.0000 0.90783  0.24722  0.62180  Biso   1.000  Br
  Br20     1.0000 0.09217  0.24722  0.87820  Biso   1.000  Br
  Br21     1.0000 0.59217  0.25278  0.37820  Biso   1.000  Br
  Br22     1.0000 0.40783  0.25278  0.12180  Biso   1.000  Br
  Br23     1.0000 0.09217  0.75278  0.37820  Biso   1.000  Br
  Br24     1.0000 0.90783  0.75278  0.12180  Biso   1.000  Br
  C1       1.0000 0.39910  0.45137  0.62570  Biso   1.000  C
  C2       1.0000 0.60090  0.45137  0.87430  Biso   1.000  C
  C3       1.0000 0.89910  0.95137  0.62570  Biso   1.000  C
  C4       1.0000 0.10090  0.95137  0.87430  Biso   1.000  C
  C5       1.0000 0.60090  0.54863  0.37430  Biso   1.000  C
  C6       1.0000 0.39910  0.54863  0.12570  Biso   1.000  C
  C7       1.0000 0.10090  0.04863  0.37430  Biso   1.000  C
  C8       1.0000 0.89910  0.04863  0.12570  Biso   1.000  C
  H1       1.0000 0.46090  0.45960  0.66460  Biso   1.000  H
  H2       1.0000 0.53910  0.45960  0.83540  Biso   1.000  H
  H3       1.0000 0.96090  0.95960  0.66460  Biso   1.000  H
  H4       1.0000 0.03910  0.95960  0.83540  Biso   1.000  H
  H5       1.0000 0.53910  0.54040  0.33540  Biso   1.000  H
  H6       1.0000 0.46090  0.54040  0.16460  Biso   1.000  H
  H7       1.0000 0.03910  0.04040  0.33540  Biso   1.000  H
  H8       1.0000 0.96090  0.04040  0.16460  Biso   1.000  H
  C9       1.0000 0.32700  0.42016  0.65330  Biso   1.000  C
  C10      1.0000 0.67300  0.42016  0.84670  Biso   1.000  C
  C11      1.0000 0.82700  0.92016  0.65330  Biso   1.000  C
  C12      1.0000 0.17300  0.92016  0.84670  Biso   1.000  C
  C13      1.0000 0.67300  0.57984  0.34670  Biso   1.000  C
  C14      1.0000 0.32700  0.57984  0.15330  Biso   1.000  C
  C15      1.0000 0.17300  0.07984  0.34670  Biso   1.000  C
  C16      1.0000 0.82700  0.07984  0.15330  Biso   1.000  C
  H9       1.0000 0.34040  0.40810  0.70940  Biso   1.000  H
  H10      1.0000 0.65960  0.40810  0.79060  Biso   1.000  H
  H11      1.0000 0.84040  0.90810  0.70940  Biso   1.000  H
  H12      1.0000 0.15960  0.90810  0.79060  Biso   1.000  H
  H13      1.0000 0.65960  0.59190  0.29060  Biso   1.000  H
  H14      1.0000 0.34040  0.59190  0.20940  Biso   1.000  H
  H15      1.0000 0.15960  0.09190  0.29060  Biso   1.000  H
  H16      1.0000 0.84040  0.09190  0.20940  Biso   1.000  H
  C17      1.0000 0.23390  0.40677  0.59650  Biso   1.000  C
  C18      1.0000 0.76610  0.40677  0.90350  Biso   1.000  C
  C19      1.0000 0.73390  0.90677  0.59650  Biso   1.000  C
  C20      1.0000 0.26610  0.90677  0.90350  Biso   1.000  C
  C21      1.0000 0.76610  0.59323  0.40350  Biso   1.000  C
  C22      1.0000 0.23390  0.59323  0.09650  Biso   1.000  C
  C23      1.0000 0.26610  0.09323  0.40350  Biso   1.000  C
  C24      1.0000 0.73390  0.09323  0.09650  Biso   1.000  C
  C25      1.0000 0.21750  0.43025  0.51510  Biso   1.000  C
  C26      1.0000 0.78250  0.43025  0.98490  Biso   1.000  C
  C27      1.0000 0.71750  0.93025  0.51510  Biso   1.000  C
  C28      1.0000 0.28250  0.93025  0.98490  Biso   1.000  C
  C29      1.0000 0.78250  0.56975  0.48490  Biso   1.000  C
  C30      1.0000 0.21750  0.56975  0.01510  Biso   1.000  C
  C31      1.0000 0.28250  0.06975  0.48490  Biso   1.000  C
  C32      1.0000 0.71750  0.06975  0.01510  Biso   1.000  C
  H17      1.0000 0.15500  0.42490  0.47600  Biso   1.000  H
  H18      1.0000 0.84500  0.42490  0.02400  Biso   1.000  H
  H19      1.0000 0.65500  0.92490  0.47600  Biso   1.000  H
  H20      1.0000 0.34500  0.92490  0.02400  Biso   1.000  H
  H21      1.0000 0.84500  0.57510  0.52400  Biso   1.000  H
  H22      1.0000 0.15500  0.57510  0.97600  Biso   1.000  H
  H23      1.0000 0.34500  0.07510  0.52400  Biso   1.000  H
  H24      1.0000 0.65500  0.07510  0.97600  Biso   1.000  H
  C33      1.0000 0.29250  0.46095  0.49260  Biso   1.000  C
  C34      1.0000 0.70750  0.46095  0.00740  Biso   1.000  C
  C35      1.0000 0.79250  0.96095  0.49260  Biso   1.000  C
  C36      1.0000 0.20750  0.96095  0.00740  Biso   1.000  C
  C37      1.0000 0.70750  0.53905  0.50740  Biso   1.000  C
  C38      1.0000 0.29250  0.53905  0.99260  Biso   1.000  C
  C39      1.0000 0.20750  0.03905  0.50740  Biso   1.000  C
  C40      1.0000 0.79250  0.03905  0.99260  Biso   1.000  C
  H25      1.0000 0.27920  0.47600  0.43790  Biso   1.000  H
  H26      1.0000 0.72080  0.47600  0.06210  Biso   1.000  H
  H27      1.0000 0.77920  0.97600  0.43790  Biso   1.000  H
  H28      1.0000 0.22080  0.97600  0.06210  Biso   1.000  H
  H29      1.0000 0.72080  0.52400  0.56210  Biso   1.000  H
  H30      1.0000 0.27920  0.52400  0.93790  Biso   1.000  H
  H31      1.0000 0.22080  0.02400  0.56210  Biso   1.000  H
  H32      1.0000 0.77920  0.02400  0.93790  Biso   1.000  H
  C41      1.0000 0.17930  0.33200  0.71950  Biso   1.000  C
  C42      1.0000 0.82070  0.33200  0.78050  Biso   1.000  C
  C43      1.0000 0.67930  0.83200  0.71950  Biso   1.000  C
  C44      1.0000 0.32070  0.83200  0.78050  Biso   1.000  C
  C45      1.0000 0.82070  0.66800  0.28050  Biso   1.000  C
  C46      1.0000 0.17930  0.66800  0.21950  Biso   1.000  C
  C47      1.0000 0.32070  0.16800  0.28050  Biso   1.000  C
  C48      1.0000 0.67930  0.16800  0.21950  Biso   1.000  C
  H33      1.0000 0.20640  0.36550  0.75750  Biso   1.000  H
  H34      1.0000 0.79360  0.36550  0.74250  Biso   1.000  H
  H35      1.0000 0.70640  0.86550  0.75750  Biso   1.000  H
  H36      1.0000 0.29360  0.86550  0.74250  Biso   1.000  H
  H37      1.0000 0.79360  0.63450  0.24250  Biso   1.000  H
  H38      1.0000 0.20640  0.63450  0.25750  Biso   1.000  H
  H39      1.0000 0.29360  0.13450  0.24250  Biso   1.000  H
  H40      1.0000 0.70640  0.13450  0.25750  Biso   1.000  H
  H41      1.0000 0.12150  0.31580  0.73550  Biso   1.000  H
  H42      1.0000 0.87850  0.31580  0.76450  Biso   1.000  H
  H43      1.0000 0.62150  0.81580  0.73550  Biso   1.000  H
  H44      1.0000 0.37850  0.81580  0.76450  Biso   1.000  H
  H45      1.0000 0.87850  0.68420  0.26450  Biso   1.000  H
  H46      1.0000 0.12150  0.68420  0.23550  Biso   1.000  H
  H47      1.0000 0.37850  0.18420  0.26450  Biso   1.000  H
  H48      1.0000 0.62150  0.18420  0.23550  Biso   1.000  H
  C49      1.0000 0.25930  0.28258  0.73270  Biso   1.000  C
  C50      1.0000 0.74070  0.28258  0.76730  Biso   1.000  C
  C51      1.0000 0.75930  0.78258  0.73270  Biso   1.000  C
  C52      1.0000 0.24070  0.78258  0.76730  Biso   1.000  C
  C53      1.0000 0.74070  0.71742  0.26730  Biso   1.000  C
  C54      1.0000 0.25930  0.71742  0.23270  Biso   1.000  C
  C55      1.0000 0.24070  0.21742  0.26730  Biso   1.000  C
  C56      1.0000 0.75930  0.21742  0.23270  Biso   1.000  C
  H49      1.0000 0.31870  0.29900  0.71940  Biso   1.000  H
  H50      1.0000 0.68130  0.29900  0.78060  Biso   1.000  H
  H51      1.0000 0.81870  0.79900  0.71940  Biso   1.000  H
  H52      1.0000 0.18130  0.79900  0.78060  Biso   1.000  H
  H53      1.0000 0.68130  0.70100  0.28060  Biso   1.000  H
  H54      1.0000 0.31870  0.70100  0.21940  Biso   1.000  H
  H55      1.0000 0.18130  0.20100  0.28060  Biso   1.000  H
  H56      1.0000 0.81870  0.20100  0.21940  Biso   1.000  H
  H57      1.0000 0.27880  0.27100  0.79170  Biso   1.000  H
  H58      1.0000 0.72120  0.27100  0.70830  Biso   1.000  H
  H59      1.0000 0.77880  0.77100  0.79170  Biso   1.000  H
  H60      1.0000 0.22120  0.77100  0.70830  Biso   1.000  H
  H61      1.0000 0.72120  0.72900  0.20830  Biso   1.000  H
  H62      1.0000 0.27880  0.72900  0.29170  Biso   1.000  H
  H63      1.0000 0.22120  0.22900  0.20830  Biso   1.000  H
  H64      1.0000 0.77880  0.22900  0.29170  Biso   1.000  H
  C57      1.0000 0.22440  0.22630  0.67960  Biso   1.000  C
  C58      1.0000 0.77560  0.22630  0.82040  Biso   1.000  C
  C59      1.0000 0.72440  0.72630  0.67960  Biso   1.000  C
  C60      1.0000 0.27560  0.72630  0.82040  Biso   1.000  C
  C61      1.0000 0.77560  0.77370  0.32040  Biso   1.000  C
  C62      1.0000 0.22440  0.77370  0.17960  Biso   1.000  C
  C63      1.0000 0.27560  0.27370  0.32040  Biso   1.000  C
  C64      1.0000 0.72440  0.27370  0.17960  Biso   1.000  C
  H65      1.0000 0.18670  0.23900  0.62340  Biso   1.000  H
  H66      1.0000 0.81330  0.23900  0.87660  Biso   1.000  H
  H67      1.0000 0.68670  0.73900  0.62340  Biso   1.000  H
  H68      1.0000 0.31330  0.73900  0.87660  Biso   1.000  H
  H69      1.0000 0.81330  0.76100  0.37660  Biso   1.000  H
  H70      1.0000 0.18670  0.76100  0.12340  Biso   1.000  H
  H71      1.0000 0.31330  0.26100  0.37660  Biso   1.000  H
  H72      1.0000 0.68670  0.26100  0.12340  Biso   1.000  H
  H73      1.0000 0.17860  0.20350  0.70380  Biso   1.000  H
  H74      1.0000 0.82140  0.20350  0.79620  Biso   1.000  H
  H75      1.0000 0.67860  0.70350  0.70380  Biso   1.000  H
  H76      1.0000 0.32140  0.70350  0.79620  Biso   1.000  H
  H77      1.0000 0.82140  0.79650  0.29620  Biso   1.000  H
  H78      1.0000 0.17860  0.79650  0.20380  Biso   1.000  H
  H79      1.0000 0.32140  0.29650  0.29620  Biso   1.000  H
  H80      1.0000 0.67860  0.29650  0.20380  Biso   1.000  H
  C65      1.0000 0.41520  0.30540  0.53080  Biso   1.000  C
  C66      1.0000 0.58480  0.30540  0.96920  Biso   1.000  C
  C67      1.0000 0.91520  0.80540  0.53080  Biso   1.000  C
  C68      1.0000 0.08480  0.80540  0.96920  Biso   1.000  C
  C69      1.0000 0.58480  0.69460  0.46920  Biso   1.000  C
  C70      1.0000 0.41520  0.69460  0.03080  Biso   1.000  C
  C71      1.0000 0.08480  0.19460  0.46920  Biso   1.000  C
  C72      1.0000 0.91520  0.19460  0.03080  Biso   1.000  C
  H81      1.0000 0.38920  0.34110  0.50250  Biso   1.000  H
  H82      1.0000 0.61080  0.34110  0.99750  Biso   1.000  H
  H83      1.0000 0.88920  0.84110  0.50250  Biso   1.000  H
  H84      1.0000 0.11080  0.84110  0.99750  Biso   1.000  H
  H85      1.0000 0.61080  0.65890  0.49750  Biso   1.000  H
  H86      1.0000 0.38920  0.65890  0.00250  Biso   1.000  H
  H87      1.0000 0.11080  0.15890  0.49750  Biso   1.000  H
  H88      1.0000 0.88920  0.15890  0.00250  Biso   1.000  H
  C73      1.0000 0.35600  0.27360  0.57120  Biso   1.000  C
  C74      1.0000 0.64400  0.27360  0.92880  Biso   1.000  C
  C75      1.0000 0.85600  0.77360  0.57120  Biso   1.000  C
  C76      1.0000 0.14400  0.77360  0.92880  Biso   1.000  C
  C77      1.0000 0.64400  0.72640  0.42880  Biso   1.000  C
  C78      1.0000 0.35600  0.72640  0.07120  Biso   1.000  C
  C79      1.0000 0.14400  0.22640  0.42880  Biso   1.000  C
  C80      1.0000 0.85600  0.22640  0.07120  Biso   1.000  C
  H89      1.0000 0.29110  0.28740  0.56850  Biso   1.000  H
  H90      1.0000 0.70890  0.28740  0.93150  Biso   1.000  H
  H91      1.0000 0.79110  0.78740  0.56850  Biso   1.000  H
  H92      1.0000 0.20890  0.78740  0.93150  Biso   1.000  H
  H93      1.0000 0.70890  0.71260  0.43150  Biso   1.000  H
  H94      1.0000 0.29110  0.71260  0.06850  Biso   1.000  H
  H95      1.0000 0.20890  0.21260  0.43150  Biso   1.000  H
  H96      1.0000 0.79110  0.21260  0.06850  Biso   1.000  H
  C81      1.0000 0.39270  0.22124  0.61600  Biso   1.000  C
  C82      1.0000 0.60730  0.22124  0.88400  Biso   1.000  C
  C83      1.0000 0.89270  0.72124  0.61600  Biso   1.000  C
  C84      1.0000 0.10730  0.72124  0.88400  Biso   1.000  C
  C85      1.0000 0.60730  0.77876  0.38400  Biso   1.000  C
  C86      1.0000 0.39270  0.77876  0.11600  Biso   1.000  C
  C87      1.0000 0.10730  0.27876  0.38400  Biso   1.000  C
  C88      1.0000 0.89270  0.27876  0.11600  Biso   1.000  C
  C89      1.0000 0.49020  0.20280  0.61590  Biso   1.000  C
  C90      1.0000 0.50980  0.20280  0.88410  Biso   1.000  C
  C91      1.0000 0.99020  0.70280  0.61590  Biso   1.000  C
  C92      1.0000 0.00980  0.70280  0.88410  Biso   1.000  C
  C93      1.0000 0.50980  0.79720  0.38410  Biso   1.000  C
  C94      1.0000 0.49020  0.79720  0.11590  Biso   1.000  C
  C95      1.0000 0.00980  0.29720  0.38410  Biso   1.000  C
  C96      1.0000 0.99020  0.29720  0.11590  Biso   1.000  C
  H97      1.0000 0.51890  0.16830  0.64570  Biso   1.000  H
  H98      1.0000 0.48110  0.16830  0.85430  Biso   1.000  H
  H99      1.0000 0.01890  0.66830  0.64570  Biso   1.000  H
  H100     1.0000 0.98110  0.66830  0.85430  Biso   1.000  H
  H101     1.0000 0.48110  0.83170  0.35430  Biso   1.000  H
  H102     1.0000 0.51890  0.83170  0.14570  Biso   1.000  H
  H103     1.0000 0.98110  0.33170  0.35430  Biso   1.000  H
  H104     1.0000 0.01890  0.33170  0.14570  Biso   1.000  H
  C97      1.0000 0.54310  0.23590  0.57170  Biso   1.000  C
  C98      1.0000 0.45690  0.23590  0.92830  Biso   1.000  C
  C99      1.0000 0.04310  0.73590  0.57170  Biso   1.000  C
  C100     1.0000 0.95690  0.73590  0.92830  Biso   1.000  C
  C101     1.0000 0.45690  0.76410  0.42830  Biso   1.000  C
  C102     1.0000 0.54310  0.76410  0.07170  Biso   1.000  C
  C103     1.0000 0.95690  0.26410  0.42830  Biso   1.000  C
  C104     1.0000 0.04310  0.26410  0.07170  Biso   1.000  C
  H105     1.0000 0.60670  0.22190  0.57050  Biso   1.000  H
  H106     1.0000 0.39330  0.22190  0.92950  Biso   1.000  H
  H107     1.0000 0.10670  0.72190  0.57050  Biso   1.000  H
  H108     1.0000 0.89330  0.72190  0.92950  Biso   1.000  H
  H109     1.0000 0.39330  0.77810  0.42950  Biso   1.000  H
  H110     1.0000 0.60670  0.77810  0.07050  Biso   1.000  H
  H111     1.0000 0.89330  0.27810  0.42950  Biso   1.000  H
  H112     1.0000 0.10670  0.27810  0.07050  Biso   1.000  H
  C105     1.0000 0.20270  0.61820  0.50900  Biso   1.000  C
  C106     1.0000 0.79730  0.61820  0.99100  Biso   1.000  C
  C107     1.0000 0.70270  0.11820  0.50900  Biso   1.000  C
  C108     1.0000 0.29730  0.11820  0.99100  Biso   1.000  C
  C109     1.0000 0.79730  0.38180  0.49100  Biso   1.000  C
  C110     1.0000 0.20270  0.38180  0.00900  Biso   1.000  C
  C111     1.0000 0.29730  0.88180  0.49100  Biso   1.000  C
  C112     1.0000 0.70270  0.88180  0.00900  Biso   1.000  C
  H113     1.0000 0.19090  0.63400  0.45480  Biso   1.000  H
  H114     1.0000 0.80910  0.63400  0.04520  Biso   1.000  H
  H115     1.0000 0.69090  0.13400  0.45480  Biso   1.000  H
  H116     1.0000 0.30910  0.13400  0.04520  Biso   1.000  H
  H117     1.0000 0.80910  0.36600  0.54520  Biso   1.000  H
  H118     1.0000 0.19090  0.36600  0.95480  Biso   1.000  H
  H119     1.0000 0.30910  0.86600  0.54520  Biso   1.000  H
  H120     1.0000 0.69090  0.86600  0.95480  Biso   1.000  H
  C113     1.0000 0.12520  0.59000  0.53090  Biso   1.000  C
  C114     1.0000 0.87480  0.59000  0.96910  Biso   1.000  C
  C115     1.0000 0.62520  0.09000  0.53090  Biso   1.000  C
  C116     1.0000 0.37480  0.09000  0.96910  Biso   1.000  C
  C117     1.0000 0.87480  0.41000  0.46910  Biso   1.000  C
  C118     1.0000 0.12520  0.41000  0.03090  Biso   1.000  C
  C119     1.0000 0.37480  0.91000  0.46910  Biso   1.000  C
  C120     1.0000 0.62520  0.91000  0.03090  Biso   1.000  C
  H121     1.0000 0.06190  0.58690  0.49210  Biso   1.000  H
  H122     1.0000 0.93810  0.58690  0.00790  Biso   1.000  H
  H123     1.0000 0.56190  0.08690  0.49210  Biso   1.000  H
  H124     1.0000 0.43810  0.08690  0.00790  Biso   1.000  H
  H125     1.0000 0.93810  0.41310  0.50790  Biso   1.000  H
  H126     1.0000 0.06190  0.41310  0.99210  Biso   1.000  H
  H127     1.0000 0.43810  0.91310  0.50790  Biso   1.000  H
  H128     1.0000 0.56190  0.91310  0.99210  Biso   1.000  H
  C121     1.0000 0.14070  0.56590  0.61070  Biso   1.000  C
  C122     1.0000 0.85930  0.56590  0.88930  Biso   1.000  C
  C123     1.0000 0.64070  0.06590  0.61070  Biso   1.000  C
  C124     1.0000 0.35930  0.06590  0.88930  Biso   1.000  C
  C125     1.0000 0.85930  0.43410  0.38930  Biso   1.000  C
  C126     1.0000 0.14070  0.43410  0.11070  Biso   1.000  C
  C127     1.0000 0.35930  0.93410  0.38930  Biso   1.000  C
  C128     1.0000 0.64070  0.93410  0.11070  Biso   1.000  C
  C129     1.0000 0.23510  0.57290  0.66760  Biso   1.000  C
  C130     1.0000 0.76490  0.57290  0.83240  Biso   1.000  C
  C131     1.0000 0.73510  0.07290  0.66760  Biso   1.000  C
  C132     1.0000 0.26490  0.07290  0.83240  Biso   1.000  C
  C133     1.0000 0.76490  0.42710  0.33240  Biso   1.000  C
  C134     1.0000 0.23510  0.42710  0.16760  Biso   1.000  C
  C135     1.0000 0.26490  0.92710  0.33240  Biso   1.000  C
  C136     1.0000 0.73510  0.92710  0.16760  Biso   1.000  C
  H129     1.0000 0.24800  0.55820  0.72250  Biso   1.000  H
  H130     1.0000 0.75200  0.55820  0.77750  Biso   1.000  H
  H131     1.0000 0.74800  0.05820  0.72250  Biso   1.000  H
  H132     1.0000 0.25200  0.05820  0.77750  Biso   1.000  H
  H133     1.0000 0.75200  0.44180  0.27750  Biso   1.000  H
  H134     1.0000 0.24800  0.44180  0.22250  Biso   1.000  H
  H135     1.0000 0.25200  0.94180  0.27750  Biso   1.000  H
  H136     1.0000 0.74800  0.94180  0.22250  Biso   1.000  H
  C137     1.0000 0.30950  0.60230  0.64020  Biso   1.000  C
  C138     1.0000 0.69050  0.60230  0.85980  Biso   1.000  C
  C139     1.0000 0.80950  0.10230  0.64020  Biso   1.000  C
  C140     1.0000 0.19050  0.10230  0.85980  Biso   1.000  C
  C141     1.0000 0.69050  0.39770  0.35980  Biso   1.000  C
  C142     1.0000 0.30950  0.39770  0.14020  Biso   1.000  C
  C143     1.0000 0.19050  0.89770  0.35980  Biso   1.000  C
  C144     1.0000 0.80950  0.89770  0.14020  Biso   1.000  C
  H137     1.0000 0.37280  0.60720  0.67830  Biso   1.000  H
  H138     1.0000 0.62720  0.60720  0.82170  Biso   1.000  H
  H139     1.0000 0.87280  0.10720  0.67830  Biso   1.000  H
  H140     1.0000 0.12720  0.10720  0.82170  Biso   1.000  H
  H141     1.0000 0.62720  0.39280  0.32170  Biso   1.000  H
  H142     1.0000 0.37280  0.39280  0.17830  Biso   1.000  H
  H143     1.0000 0.12720  0.89280  0.32170  Biso   1.000  H
  H144     1.0000 0.87280  0.89280  0.17830  Biso   1.000  H
  C145     1.0000 0.08580  0.49420  0.73370  Biso   1.000  C
  C146     1.0000 0.91420  0.49420  0.76630  Biso   1.000  C
  C147     1.0000 0.58580  0.99420  0.73370  Biso   1.000  C
  C148     1.0000 0.41420  0.99420  0.76630  Biso   1.000  C
  C149     1.0000 0.91420  0.50580  0.26630  Biso   1.000  C
  C150     1.0000 0.08580  0.50580  0.23370  Biso   1.000  C
  C151     1.0000 0.41420  0.00580  0.26630  Biso   1.000  C
  C152     1.0000 0.58580  0.00580  0.23370  Biso   1.000  C
  H145     1.0000 0.14370  0.46860  0.73460  Biso   1.000  H
  H146     1.0000 0.85630  0.46860  0.76540  Biso   1.000  H
  H147     1.0000 0.64370  0.96860  0.73460  Biso   1.000  H
  H148     1.0000 0.35630  0.96860  0.76540  Biso   1.000  H
  H149     1.0000 0.85630  0.53140  0.26540  Biso   1.000  H
  H150     1.0000 0.14370  0.53140  0.23460  Biso   1.000  H
  H151     1.0000 0.35630  0.03140  0.26540  Biso   1.000  H
  H152     1.0000 0.64370  0.03140  0.23460  Biso   1.000  H
  H153     1.0000 0.10680  0.52550  0.77670  Biso   1.000  H
  H154     1.0000 0.89320  0.52550  0.72330  Biso   1.000  H
  H155     1.0000 0.60680  0.02550  0.77670  Biso   1.000  H
  H156     1.0000 0.39320  0.02550  0.72330  Biso   1.000  H
  H157     1.0000 0.89320  0.47450  0.22330  Biso   1.000  H
  H158     1.0000 0.10680  0.47450  0.27670  Biso   1.000  H
  H159     1.0000 0.39320  0.97450  0.22330  Biso   1.000  H
  H160     1.0000 0.60680  0.97450  0.27670  Biso   1.000  H
  C153     1.0000 0.00000  0.45610  0.75000  Biso   1.000  C
  C154     1.0000 0.50000  0.95610  0.75000  Biso   1.000  C
  C155     1.0000 0.00000  0.54390  0.25000  Biso   1.000  C
  C156     1.0000 0.50000  0.04390  0.25000  Biso   1.000  C
  H161     1.0000 0.97270  0.42990  0.70160  Biso   1.000  H
  H162     1.0000 0.02730  0.42990  0.79840  Biso   1.000  H
  H163     1.0000 0.47270  0.92990  0.70160  Biso   1.000  H
  H164     1.0000 0.52730  0.92990  0.79840  Biso   1.000  H
  H165     1.0000 0.02730  0.57010  0.29840  Biso   1.000  H
  H166     1.0000 0.97270  0.57010  0.20160  Biso   1.000  H
  H167     1.0000 0.52730  0.07010  0.29840  Biso   1.000  H
  H168     1.0000 0.47270  0.07010  0.20160  Biso   1.000  H
  Cu1      1.0000 0.50000  0.50000  0.50000  Biso   1.000  Cu
  Cu2      1.0000 0.50000  0.50000  0.00000  Biso   1.000  Cu
  Cu3      1.0000 0.00000  0.00000  0.50000  Biso   1.000  Cu
  Cu4      1.0000 0.00000  0.00000  0.00000  Biso   1.000  Cu
  Cu5      1.0000 0.40369  0.66444  0.52349  Biso   1.000  Cu
  Cu6      1.0000 0.59631  0.66444  0.97651  Biso   1.000  Cu
  Cu7      1.0000 0.90369  0.16444  0.52349  Biso   1.000  Cu
  Cu8      1.0000 0.09631  0.16444  0.97651  Biso   1.000  Cu
  Cu9      1.0000 0.59631  0.33556  0.47651  Biso   1.000  Cu
  Cu10     1.0000 0.40369  0.33556  0.02349  Biso   1.000  Cu
  Cu11     1.0000 0.09631  0.83556  0.47651  Biso   1.000  Cu
  Cu12     1.0000 0.90369  0.83556  0.02349  Biso   1.000  Cu
  N1       1.0000 0.38520  0.47063  0.54580  Biso   1.000  N
  N2       1.0000 0.61480  0.47063  0.95420  Biso   1.000  N
  N3       1.0000 0.88520  0.97063  0.54580  Biso   1.000  N
  N4       1.0000 0.11480  0.97063  0.95420  Biso   1.000  N
  N5       1.0000 0.61480  0.52937  0.45420  Biso   1.000  N
  N6       1.0000 0.38520  0.52937  0.04580  Biso   1.000  N
  N7       1.0000 0.11480  0.02937  0.45420  Biso   1.000  N
  N8       1.0000 0.88520  0.02937  0.04580  Biso   1.000  N
  N9       1.0000 0.50800  0.28782  0.52980  Biso   1.000  N
  N10      1.0000 0.49200  0.28782  0.97020  Biso   1.000  N
  N11      1.0000 0.00800  0.78782  0.52980  Biso   1.000  N
  N12      1.0000 0.99200  0.78782  0.97020  Biso   1.000  N
  N13      1.0000 0.49200  0.71218  0.47020  Biso   1.000  N
  N14      1.0000 0.50800  0.71218  0.02980  Biso   1.000  N
  N15      1.0000 0.99200  0.21218  0.47020  Biso   1.000  N
  N16      1.0000 0.00800  0.21218  0.02980  Biso   1.000  N
  N17      1.0000 0.29530  0.62404  0.56230  Biso   1.000  N
  N18      1.0000 0.70470  0.62404  0.93770  Biso   1.000  N
  N19      1.0000 0.79530  0.12404  0.56230  Biso   1.000  N
  N20      1.0000 0.20470  0.12404  0.93770  Biso   1.000  N
  N21      1.0000 0.70470  0.37596  0.43770  Biso   1.000  N
  N22      1.0000 0.29530  0.37596  0.06230  Biso   1.000  N
  N23      1.0000 0.20470  0.87596  0.43770  Biso   1.000  N
  N24      1.0000 0.79530  0.87596  0.06230  Biso   1.000  N
  S1       1.0000 0.13527  0.36237  0.61376  Biso   1.000  S
  S2       1.0000 0.86473  0.36237  0.88624  Biso   1.000  S
  S3       1.0000 0.63527  0.86237  0.61376  Biso   1.000  S
  S4       1.0000 0.36473  0.86237  0.88624  Biso   1.000  S
  S5       1.0000 0.86473  0.63763  0.38624  Biso   1.000  S
  S6       1.0000 0.13527  0.63763  0.11376  Biso   1.000  S
  S7       1.0000 0.36473  0.13763  0.38624  Biso   1.000  S
  S8       1.0000 0.63527  0.13763  0.11376  Biso   1.000  S
  S9       1.0000 0.32654  0.17664  0.67136  Biso   1.000  S
  S10      1.0000 0.67346  0.17664  0.82864  Biso   1.000  S
  S11      1.0000 0.82654  0.67664  0.67136  Biso   1.000  S
  S12      1.0000 0.17346  0.67664  0.82864  Biso   1.000  S
  S13      1.0000 0.67346  0.82336  0.32864  Biso   1.000  S
  S14      1.0000 0.32654  0.82336  0.17136  Biso   1.000  S
  S15      1.0000 0.17346  0.32336  0.32864  Biso   1.000  S
  S16      1.0000 0.82654  0.32336  0.17136  Biso   1.000  S
  S17      1.0000 0.03747  0.52853  0.63165  Biso   1.000  S
  S18      1.0000 0.96253  0.52853  0.86835  Biso   1.000  S
  S19      1.0000 0.53747  0.02853  0.63165  Biso   1.000  S
  S20      1.0000 0.46253  0.02853  0.86835  Biso   1.000  S
  S21      1.0000 0.96253  0.47147  0.36835  Biso   1.000  S
  S22      1.0000 0.03747  0.47147  0.13165  Biso   1.000  S
  S23      1.0000 0.46253  0.97147  0.36835  Biso   1.000  S
  S24      1.0000 0.53747  0.97147  0.13165  Biso   1.000  S
