data_image0
_cell_length_a       10.7832
_cell_length_b       17.3289
_cell_length_c       11.5136
_cell_angle_alpha    90
_cell_angle_beta     100.515
_cell_angle_gamma    90

_symmetry_space_group_name_H-M    "P 1"
_symmetry_int_tables_number       1

loop_
  _symmetry_equiv_pos_as_xyz
  'x, y, z'

loop_
  _atom_site_label
  _atom_site_occupancy
  _atom_site_fract_x
  _atom_site_fract_y
  _atom_site_fract_z
  _atom_site_thermal_displace_type
  _atom_site_B_iso_or_equiv
  _atom_site_type_symbol
  C1       1.0000 0.54050  0.60010  0.72580  Biso   1.000  C
  C2       1.0000 0.95950  0.10010  0.77420  Biso   1.000  C
  C3       1.0000 0.45950  0.39990  0.27420  Biso   1.000  C
  C4       1.0000 0.04050  0.89990  0.22580  Biso   1.000  C
  C5       1.0000 0.55620  0.59020  0.23540  Biso   1.000  C
  C6       1.0000 0.94380  0.09020  0.26460  Biso   1.000  C
  C7       1.0000 0.44380  0.40980  0.76460  Biso   1.000  C
  C8       1.0000 0.05620  0.90980  0.73540  Biso   1.000  C
  C9       1.0000 0.77430  0.52350  0.58020  Biso   1.000  C
  C10      1.0000 0.72570  0.02350  0.91980  Biso   1.000  C
  C11      1.0000 0.22570  0.47650  0.41980  Biso   1.000  C
  C12      1.0000 0.27430  0.97650  0.08020  Biso   1.000  C
  H1       1.0000 0.75080  0.57520  0.57270  Biso   1.000  H
  H2       1.0000 0.74920  0.07520  0.92730  Biso   1.000  H
  H3       1.0000 0.24920  0.42480  0.42730  Biso   1.000  H
  H4       1.0000 0.25080  0.92480  0.07270  Biso   1.000  H
  C13      1.0000 0.89930  0.50550  0.61790  Biso   1.000  C
  C14      1.0000 0.60070  0.00550  0.88210  Biso   1.000  C
  C15      1.0000 0.10070  0.49450  0.38210  Biso   1.000  C
  C16      1.0000 0.39930  0.99450  0.11790  Biso   1.000  C
  H5       1.0000 0.95850  0.54490  0.63480  Biso   1.000  H
  H6       1.0000 0.54150  0.04490  0.86520  Biso   1.000  H
  H7       1.0000 0.04150  0.45510  0.36520  Biso   1.000  H
  H8       1.0000 0.45850  0.95510  0.13480  Biso   1.000  H
  C17      1.0000 0.93780  0.42990  0.63080  Biso   1.000  C
  C18      1.0000 0.56220  0.92990  0.86920  Biso   1.000  C
  C19      1.0000 0.06220  0.57010  0.36920  Biso   1.000  C
  C20      1.0000 0.43780  0.07010  0.13080  Biso   1.000  C
  C21      1.0000 0.84580  0.37380  0.60520  Biso   1.000  C
  C22      1.0000 0.65420  0.87380  0.89480  Biso   1.000  C
  C23      1.0000 0.15420  0.62620  0.39480  Biso   1.000  C
  C24      1.0000 0.34580  0.12620  0.10520  Biso   1.000  C
  H9       1.0000 0.86680  0.32190  0.61460  Biso   1.000  H
  H10      1.0000 0.63320  0.82190  0.88540  Biso   1.000  H
  H11      1.0000 0.13320  0.67810  0.38540  Biso   1.000  H
  H12      1.0000 0.36680  0.17810  0.11460  Biso   1.000  H
  C25      1.0000 0.72200  0.39580  0.56550  Biso   1.000  C
  C26      1.0000 0.77800  0.89580  0.93450  Biso   1.000  C
  C27      1.0000 0.27800  0.60420  0.43450  Biso   1.000  C
  C28      1.0000 0.22200  0.10420  0.06550  Biso   1.000  C
  H13      1.0000 0.66150  0.35740  0.54600  Biso   1.000  H
  H14      1.0000 0.83850  0.85740  0.95400  Biso   1.000  H
  H15      1.0000 0.33850  0.64260  0.45400  Biso   1.000  H
  H16      1.0000 0.16150  0.14260  0.04600  Biso   1.000  H
  C29      1.0000 0.11420  0.31660  0.72860  Biso   1.000  C
  C30      1.0000 0.38580  0.81660  0.77140  Biso   1.000  C
  C31      1.0000 0.88580  0.68340  0.27140  Biso   1.000  C
  C32      1.0000 0.61420  0.18340  0.22860  Biso   1.000  C
  H17      1.0000 0.06880  0.28240  0.66880  Biso   1.000  H
  H18      1.0000 0.43120  0.78240  0.83120  Biso   1.000  H
  H19      1.0000 0.93120  0.71760  0.33120  Biso   1.000  H
  H20      1.0000 0.56880  0.21760  0.16880  Biso   1.000  H
  H21      1.0000 0.20240  0.30180  0.74150  Biso   1.000  H
  H22      1.0000 0.29760  0.80180  0.75850  Biso   1.000  H
  H23      1.0000 0.79760  0.69820  0.25850  Biso   1.000  H
  H24      1.0000 0.70240  0.19820  0.24150  Biso   1.000  H
  C33      1.0000 0.06500  0.30420  0.84260  Biso   1.000  C
  C34      1.0000 0.43500  0.80420  0.65740  Biso   1.000  C
  C35      1.0000 0.93500  0.69580  0.15740  Biso   1.000  C
  C36      1.0000 0.56500  0.19580  0.34260  Biso   1.000  C
  H25      1.0000 0.97460  0.31280  0.82810  Biso   1.000  H
  H26      1.0000 0.52540  0.81280  0.67190  Biso   1.000  H
  H27      1.0000 0.02540  0.68720  0.17190  Biso   1.000  H
  H28      1.0000 0.47460  0.18720  0.32810  Biso   1.000  H
  H29      1.0000 0.08020  0.25110  0.86800  Biso   1.000  H
  H30      1.0000 0.41980  0.75110  0.63200  Biso   1.000  H
  H31      1.0000 0.91980  0.74890  0.13200  Biso   1.000  H
  H32      1.0000 0.58020  0.24890  0.36800  Biso   1.000  H
  C37      1.0000 0.12690  0.35750  0.94020  Biso   1.000  C
  C38      1.0000 0.37310  0.85750  0.55980  Biso   1.000  C
  C39      1.0000 0.87310  0.64250  0.05980  Biso   1.000  C
  C40      1.0000 0.62690  0.14250  0.44020  Biso   1.000  C
  H33      1.0000 0.11470  0.41030  0.91270  Biso   1.000  H
  H34      1.0000 0.38530  0.91030  0.58730  Biso   1.000  H
  H35      1.0000 0.88530  0.58970  0.08730  Biso   1.000  H
  H36      1.0000 0.61470  0.08970  0.41270  Biso   1.000  H
  H37      1.0000 0.21690  0.34740  0.95570  Biso   1.000  H
  H38      1.0000 0.28310  0.84740  0.54430  Biso   1.000  H
  H39      1.0000 0.78310  0.65260  0.04430  Biso   1.000  H
  H40      1.0000 0.71690  0.15260  0.45570  Biso   1.000  H
  C41      1.0000 0.74920  0.46290  0.93640  Biso   1.000  C
  C42      1.0000 0.75080  0.96290  0.56360  Biso   1.000  C
  C43      1.0000 0.25080  0.53710  0.06360  Biso   1.000  C
  C44      1.0000 0.24920  0.03710  0.43640  Biso   1.000  C
  H41      1.0000 0.71460  0.48770  0.86630  Biso   1.000  H
  H42      1.0000 0.78540  0.98770  0.63370  Biso   1.000  H
  H43      1.0000 0.28540  0.51230  0.13370  Biso   1.000  H
  H44      1.0000 0.21460  0.01230  0.36630  Biso   1.000  H
  C45      1.0000 0.86890  0.43210  0.94590  Biso   1.000  C
  C46      1.0000 0.63110  0.93210  0.55410  Biso   1.000  C
  C47      1.0000 0.13110  0.56790  0.05410  Biso   1.000  C
  C48      1.0000 0.36890  0.06790  0.44590  Biso   1.000  C
  H45      1.0000 0.91400  0.43770  0.88480  Biso   1.000  H
  H46      1.0000 0.58600  0.93770  0.61520  Biso   1.000  H
  H47      1.0000 0.08600  0.56230  0.11520  Biso   1.000  H
  H48      1.0000 0.41400  0.06230  0.38480  Biso   1.000  H
  C49      1.0000 0.92030  0.39260  0.04820  Biso   1.000  C
  C50      1.0000 0.57970  0.89260  0.45180  Biso   1.000  C
  C51      1.0000 0.07970  0.60740  0.95180  Biso   1.000  C
  C52      1.0000 0.42030  0.10740  0.54820  Biso   1.000  C
  C53      1.0000 0.84860  0.38910  0.13630  Biso   1.000  C
  C54      1.0000 0.65140  0.88910  0.36370  Biso   1.000  C
  C55      1.0000 0.15140  0.61090  0.86370  Biso   1.000  C
  C56      1.0000 0.34860  0.11090  0.63630  Biso   1.000  C
  H49      1.0000 0.87960  0.36320  0.20630  Biso   1.000  H
  H50      1.0000 0.62040  0.86320  0.29370  Biso   1.000  H
  H51      1.0000 0.12040  0.63680  0.79370  Biso   1.000  H
  H52      1.0000 0.37960  0.13680  0.70630  Biso   1.000  H
  C57      1.0000 0.73190  0.42370  0.12150  Biso   1.000  C
  C58      1.0000 0.76810  0.92370  0.37850  Biso   1.000  C
  C59      1.0000 0.26810  0.57630  0.87850  Biso   1.000  C
  C60      1.0000 0.23190  0.07630  0.62150  Biso   1.000  C
  H53      1.0000 0.68740  0.42220  0.18340  Biso   1.000  H
  H54      1.0000 0.81260  0.92220  0.31660  Biso   1.000  H
  H55      1.0000 0.31260  0.57780  0.81660  Biso   1.000  H
  H56      1.0000 0.18740  0.07780  0.68340  Biso   1.000  H
  Cu1      1.0000 0.50000  0.50000  0.50000  Biso   1.000  Cu
  Cu2      1.0000 0.00000  0.00000  0.00000  Biso   1.000  Cu
  Cu3      1.0000 0.50000  0.50000  0.00000  Biso   1.000  Cu
  Cu4      1.0000 0.00000  0.00000  0.50000  Biso   1.000  Cu
  N1       1.0000 0.51600  0.57190  0.63330  Biso   1.000  N
  N2       1.0000 0.98400  0.07190  0.86670  Biso   1.000  N
  N3       1.0000 0.48400  0.42810  0.36670  Biso   1.000  N
  N4       1.0000 0.01600  0.92810  0.13330  Biso   1.000  N
  N5       1.0000 0.54350  0.55850  0.14560  Biso   1.000  N
  N6       1.0000 0.95650  0.05850  0.35440  Biso   1.000  N
  N7       1.0000 0.45650  0.44150  0.85440  Biso   1.000  N
  N8       1.0000 0.04350  0.94150  0.64560  Biso   1.000  N
  N9       1.0000 0.68490  0.46920  0.55400  Biso   1.000  N
  N10      1.0000 0.81510  0.96920  0.94600  Biso   1.000  N
  N11      1.0000 0.31510  0.53080  0.44600  Biso   1.000  N
  N12      1.0000 0.18490  0.03080  0.05400  Biso   1.000  N
  N13      1.0000 0.68010  0.45940  0.02110  Biso   1.000  N
  N14      1.0000 0.81990  0.95940  0.47890  Biso   1.000  N
  N15      1.0000 0.31990  0.54060  0.97890  Biso   1.000  N
  N16      1.0000 0.18010  0.04060  0.52110  Biso   1.000  N
  S1       1.0000 0.57337  0.63971  0.85558  Biso   1.000  S
  S2       1.0000 0.92663  0.13971  0.64442  Biso   1.000  S
  S3       1.0000 0.42663  0.36029  0.14442  Biso   1.000  S
  S4       1.0000 0.07337  0.86029  0.35558  Biso   1.000  S
  S5       1.0000 0.57296  0.63595  0.35998  Biso   1.000  S
  S6       1.0000 0.92704  0.13595  0.14002  Biso   1.000  S
  S7       1.0000 0.42704  0.36405  0.64002  Biso   1.000  S
  S8       1.0000 0.07296  0.86405  0.85998  Biso   1.000  S
  S9       1.0000 0.10048  0.41372  0.67227  Biso   1.000  S
  S10      1.0000 0.39952  0.91372  0.82773  Biso   1.000  S
  S11      1.0000 0.89952  0.58628  0.32773  Biso   1.000  S
  S12      1.0000 0.60048  0.08628  0.17227  Biso   1.000  S
  S13      1.0000 0.06872  0.34834  0.07645  Biso   1.000  S
  S14      1.0000 0.43128  0.84834  0.42355  Biso   1.000  S
  S15      1.0000 0.93128  0.65166  0.92355  Biso   1.000  S
  S16      1.0000 0.56872  0.15166  0.57645  Biso   1.000  S
  C61      1.0000 0.94220  0.73230  0.60750  Biso   1.000  C
  C62      1.0000 0.55780  0.23230  0.89250  Biso   1.000  C
  C63      1.0000 0.05780  0.26770  0.39250  Biso   1.000  C
  C64      1.0000 0.44220  0.76770  0.10750  Biso   1.000  C
  C65      1.0000 0.81910  0.75500  0.61990  Biso   1.000  C
  C66      1.0000 0.68090  0.25500  0.88010  Biso   1.000  C
  C67      1.0000 0.18090  0.24500  0.38010  Biso   1.000  C
  C68      1.0000 0.31910  0.74500  0.11990  Biso   1.000  C
  H57      1.0000 0.76800  0.76190  0.54310  Biso   1.000  H
  H58      1.0000 0.73200  0.26190  0.95690  Biso   1.000  H
  H59      1.0000 0.23200  0.23810  0.45690  Biso   1.000  H
  H60      1.0000 0.26800  0.73810  0.04310  Biso   1.000  H
  H61      1.0000 0.82340  0.80270  0.66290  Biso   1.000  H
  H62      1.0000 0.67660  0.30270  0.83710  Biso   1.000  H
  H63      1.0000 0.17660  0.19730  0.33710  Biso   1.000  H
  H64      1.0000 0.32340  0.69730  0.16290  Biso   1.000  H
  H65      1.0000 0.78260  0.71580  0.66210  Biso   1.000  H
  H66      1.0000 0.71740  0.21580  0.83790  Biso   1.000  H
  H67      1.0000 0.21740  0.28420  0.33790  Biso   1.000  H
  H68      1.0000 0.28260  0.78420  0.16210  Biso   1.000  H
  N17      1.0000 0.04220  0.71600  0.60140  Biso   1.000  N
  N18      1.0000 0.45780  0.21600  0.89860  Biso   1.000  N
  N19      1.0000 0.95780  0.28400  0.39860  Biso   1.000  N
  N20      1.0000 0.54220  0.78400  0.10140  Biso   1.000  N
