data_image0
_cell_length_a       9.6266
_cell_length_b       14.0673
_cell_length_c       10.3999
_cell_angle_alpha    90
_cell_angle_beta     90
_cell_angle_gamma    90

_symmetry_space_group_name_H-M    "P 1"
_symmetry_int_tables_number       1

loop_
  _symmetry_equiv_pos_as_xyz
  'x, y, z'

loop_
  _atom_site_label
  _atom_site_occupancy
  _atom_site_fract_x
  _atom_site_fract_y
  _atom_site_fract_z
  _atom_site_thermal_displace_type
  _atom_site_B_iso_or_equiv
  _atom_site_type_symbol
  Cu1      1.0000 0.61143  0.25000  0.64378  Biso   1.000  Cu
  Cu2      1.0000 0.88857  0.75000  0.14378  Biso   1.000  Cu
  Cu3      1.0000 0.38857  0.75000  0.35622  Biso   1.000  Cu
  Cu4      1.0000 0.11143  0.25000  0.85622  Biso   1.000  Cu
  O1       1.0000 0.54710  0.25000  0.46590  Biso   1.000  O
  O2       1.0000 0.95290  0.75000  0.96590  Biso   1.000  O
  O3       1.0000 0.45290  0.75000  0.53410  Biso   1.000  O
  O4       1.0000 0.04710  0.25000  0.03410  Biso   1.000  O
  O5       1.0000 0.75990  0.25000  0.37910  Biso   1.000  O
  O6       1.0000 0.74010  0.75000  0.87910  Biso   1.000  O
  O7       1.0000 0.24010  0.75000  0.62090  Biso   1.000  O
  O8       1.0000 0.25990  0.25000  0.12090  Biso   1.000  O
  O9       1.0000 0.66840  0.25000  0.82720  Biso   1.000  O
  O10      1.0000 0.83160  0.75000  0.32720  Biso   1.000  O
  O11      1.0000 0.33160  0.75000  0.17280  Biso   1.000  O
  O12      1.0000 0.16840  0.25000  0.67280  Biso   1.000  O
  O13      1.0000 0.89280  0.25000  0.77330  Biso   1.000  O
  O14      1.0000 0.60720  0.75000  0.27330  Biso   1.000  O
  O15      1.0000 0.10720  0.75000  0.22670  Biso   1.000  O
  O16      1.0000 0.39280  0.25000  0.72670  Biso   1.000  O
  N1       1.0000 0.63150  0.39300  0.64300  Biso   1.000  N
  N2       1.0000 0.86850  0.60700  0.14300  Biso   1.000  N
  N3       1.0000 0.36850  0.89300  0.35700  Biso   1.000  N
  N4       1.0000 0.13150  0.10700  0.85700  Biso   1.000  N
  N5       1.0000 0.36850  0.60700  0.35700  Biso   1.000  N
  N6       1.0000 0.13150  0.39300  0.85700  Biso   1.000  N
  N7       1.0000 0.63150  0.10700  0.64300  Biso   1.000  N
  N8       1.0000 0.86850  0.89300  0.14300  Biso   1.000  N
  C1       1.0000 0.56260  0.44490  0.73100  Biso   1.000  C
  C2       1.0000 0.93740  0.55510  0.23100  Biso   1.000  C
  C3       1.0000 0.43740  0.94490  0.26900  Biso   1.000  C
  C4       1.0000 0.06260  0.05510  0.76900  Biso   1.000  C
  C5       1.0000 0.43740  0.55510  0.26900  Biso   1.000  C
  C6       1.0000 0.06260  0.44490  0.76900  Biso   1.000  C
  C7       1.0000 0.56260  0.05510  0.73100  Biso   1.000  C
  C8       1.0000 0.93740  0.94490  0.23100  Biso   1.000  C
  H1       1.0000 0.50090  0.41350  0.78830  Biso   1.000  H
  H2       1.0000 0.99910  0.58650  0.28830  Biso   1.000  H
  H3       1.0000 0.49910  0.91350  0.21170  Biso   1.000  H
  H4       1.0000 0.00090  0.08650  0.71170  Biso   1.000  H
  H5       1.0000 0.49910  0.58650  0.21170  Biso   1.000  H
  H6       1.0000 0.00090  0.41350  0.71170  Biso   1.000  H
  H7       1.0000 0.50090  0.08650  0.78830  Biso   1.000  H
  H8       1.0000 0.99910  0.91350  0.28830  Biso   1.000  H
  C9       1.0000 0.57880  0.54290  0.74090  Biso   1.000  C
  C10      1.0000 0.92120  0.45710  0.24090  Biso   1.000  C
  C11      1.0000 0.42120  0.04290  0.25910  Biso   1.000  C
  C12      1.0000 0.07880  0.95710  0.75910  Biso   1.000  C
  C13      1.0000 0.42120  0.45710  0.25910  Biso   1.000  C
  C14      1.0000 0.07880  0.54290  0.75910  Biso   1.000  C
  C15      1.0000 0.57880  0.95710  0.74090  Biso   1.000  C
  C16      1.0000 0.92120  0.04290  0.24090  Biso   1.000  C
  H9       1.0000 0.52890  0.57810  0.80370  Biso   1.000  H
  H10      1.0000 0.97110  0.42190  0.30370  Biso   1.000  H
  H11      1.0000 0.47110  0.07810  0.19630  Biso   1.000  H
  H12      1.0000 0.02890  0.92190  0.69630  Biso   1.000  H
  H13      1.0000 0.47110  0.42190  0.19630  Biso   1.000  H
  H14      1.0000 0.02890  0.57810  0.69630  Biso   1.000  H
  H15      1.0000 0.52890  0.92190  0.80370  Biso   1.000  H
  H16      1.0000 0.97110  0.07810  0.30370  Biso   1.000  H
  C17      1.0000 0.66940  0.58810  0.65730  Biso   1.000  C
  C18      1.0000 0.83060  0.41190  0.15730  Biso   1.000  C
  C19      1.0000 0.33060  0.08810  0.34270  Biso   1.000  C
  C20      1.0000 0.16940  0.91190  0.84270  Biso   1.000  C
  C21      1.0000 0.33060  0.41190  0.34270  Biso   1.000  C
  C22      1.0000 0.16940  0.58810  0.84270  Biso   1.000  C
  C23      1.0000 0.66940  0.91190  0.65730  Biso   1.000  C
  C24      1.0000 0.83060  0.08810  0.15730  Biso   1.000  C
  H17      1.0000 0.68270  0.65500  0.66210  Biso   1.000  H
  H18      1.0000 0.81730  0.34500  0.16210  Biso   1.000  H
  H19      1.0000 0.31730  0.15500  0.33790  Biso   1.000  H
  H20      1.0000 0.18270  0.84500  0.83790  Biso   1.000  H
  H21      1.0000 0.31730  0.34500  0.33790  Biso   1.000  H
  H22      1.0000 0.18270  0.65500  0.83790  Biso   1.000  H
  H23      1.0000 0.68270  0.84500  0.66210  Biso   1.000  H
  H24      1.0000 0.81730  0.15500  0.16210  Biso   1.000  H
  C25      1.0000 0.74000  0.53480  0.56670  Biso   1.000  C
  C26      1.0000 0.76000  0.46520  0.06670  Biso   1.000  C
  C27      1.0000 0.26000  0.03480  0.43330  Biso   1.000  C
  C28      1.0000 0.24000  0.96520  0.93330  Biso   1.000  C
  C29      1.0000 0.26000  0.46520  0.43330  Biso   1.000  C
  C30      1.0000 0.24000  0.53480  0.93330  Biso   1.000  C
  C31      1.0000 0.74000  0.96520  0.56670  Biso   1.000  C
  C32      1.0000 0.76000  0.03480  0.06670  Biso   1.000  C
  H25      1.0000 0.80310  0.56430  0.50880  Biso   1.000  H
  H26      1.0000 0.69690  0.43570  0.00880  Biso   1.000  H
  H27      1.0000 0.19690  0.06430  0.49120  Biso   1.000  H
  H28      1.0000 0.30310  0.93570  0.99120  Biso   1.000  H
  H29      1.0000 0.19690  0.43570  0.49120  Biso   1.000  H
  H30      1.0000 0.30310  0.56430  0.99120  Biso   1.000  H
  H31      1.0000 0.80310  0.93570  0.50880  Biso   1.000  H
  H32      1.0000 0.69690  0.06430  0.00880  Biso   1.000  H
  C33      1.0000 0.71720  0.43750  0.56180  Biso   1.000  C
  C34      1.0000 0.78280  0.56250  0.06180  Biso   1.000  C
  C35      1.0000 0.28280  0.93750  0.43820  Biso   1.000  C
  C36      1.0000 0.21720  0.06250  0.93820  Biso   1.000  C
  C37      1.0000 0.28280  0.56250  0.43820  Biso   1.000  C
  C38      1.0000 0.21720  0.43750  0.93820  Biso   1.000  C
  C39      1.0000 0.71720  0.06250  0.56180  Biso   1.000  C
  C40      1.0000 0.78280  0.93750  0.06180  Biso   1.000  C
  H33      1.0000 0.76420  0.40110  0.49830  Biso   1.000  H
  H34      1.0000 0.73580  0.59890  0.99830  Biso   1.000  H
  H35      1.0000 0.23580  0.90110  0.50170  Biso   1.000  H
  H36      1.0000 0.26420  0.09890  0.00170  Biso   1.000  H
  H37      1.0000 0.23580  0.59890  0.50170  Biso   1.000  H
  H38      1.0000 0.26420  0.40110  0.00170  Biso   1.000  H
  H39      1.0000 0.76420  0.09890  0.49830  Biso   1.000  H
  H40      1.0000 0.73580  0.90110  0.99830  Biso   1.000  H
  C41      1.0000 0.63100  0.25000  0.37120  Biso   1.000  C
  C42      1.0000 0.86900  0.75000  0.87120  Biso   1.000  C
  C43      1.0000 0.36900  0.75000  0.62880  Biso   1.000  C
  C44      1.0000 0.13100  0.25000  0.12880  Biso   1.000  C
  H41      1.0000 0.59170  0.25000  0.28740  Biso   1.000  H
  H42      1.0000 0.90830  0.75000  0.78740  Biso   1.000  H
  H43      1.0000 0.40830  0.75000  0.71260  Biso   1.000  H
  H44      1.0000 0.09170  0.25000  0.21260  Biso   1.000  H
  C45      1.0000 0.79660  0.25000  0.85320  Biso   1.000  C
  C46      1.0000 0.70340  0.75000  0.35320  Biso   1.000  C
  C47      1.0000 0.20340  0.75000  0.14680  Biso   1.000  C
  C48      1.0000 0.29660  0.25000  0.64680  Biso   1.000  C
  H45      1.0000 0.82180  0.25000  0.94160  Biso   1.000  H
  H46      1.0000 0.67820  0.75000  0.44160  Biso   1.000  H
  H47      1.0000 0.17820  0.75000  0.05840  Biso   1.000  H
  H48      1.0000 0.32180  0.25000  0.55840  Biso   1.000  H
