data_image0
_cell_length_a       19.725
_cell_length_b       7.996
_cell_length_c       13.812
_cell_angle_alpha    90
_cell_angle_beta     126.653
_cell_angle_gamma    90

_symmetry_space_group_name_H-M    "P 1"
_symmetry_int_tables_number       1

loop_
  _symmetry_equiv_pos_as_xyz
  'x, y, z'

loop_
  _atom_site_label
  _atom_site_occupancy
  _atom_site_fract_x
  _atom_site_fract_y
  _atom_site_fract_z
  _atom_site_thermal_displace_type
  _atom_site_B_iso_or_equiv
  _atom_site_type_symbol
  Cu1      1.0000 0.50000  0.46370  0.50000  Biso   1.000  Cu
  Cu2      1.0000 0.00000  0.96370  0.50000  Biso   1.000  Cu
  O1       1.0000 0.46495  0.46370  0.33420  Biso   1.000  O
  O2       1.0000 0.53505  0.46370  0.66580  Biso   1.000  O
  O3       1.0000 0.96495  0.96370  0.33420  Biso   1.000  O
  O4       1.0000 0.03505  0.96370  0.66580  Biso   1.000  O
  C1       1.0000 0.38290  0.45440  0.25420  Biso   1.000  C
  C2       1.0000 0.61710  0.45440  0.74580  Biso   1.000  C
  C3       1.0000 0.88290  0.95440  0.25420  Biso   1.000  C
  C4       1.0000 0.11710  0.95440  0.74580  Biso   1.000  C
  C5       1.0000 0.34130  0.46280  0.12760  Biso   1.000  C
  C6       1.0000 0.65870  0.46280  0.87240  Biso   1.000  C
  C7       1.0000 0.84130  0.96280  0.12760  Biso   1.000  C
  C8       1.0000 0.15870  0.96280  0.87240  Biso   1.000  C
  C9       1.0000 0.39250  0.48040  0.07590  Biso   1.000  C
  C10      1.0000 0.60750  0.48040  0.92410  Biso   1.000  C
  C11      1.0000 0.89250  0.98040  0.07590  Biso   1.000  C
  C12      1.0000 0.10750  0.98040  0.92410  Biso   1.000  C
  C13      1.0000 0.45410  0.31970  0.11530  Biso   1.000  C
  C14      1.0000 0.54590  0.31970  0.88470  Biso   1.000  C
  C15      1.0000 0.95410  0.81970  0.11530  Biso   1.000  C
  C16      1.0000 0.04590  0.81970  0.88470  Biso   1.000  C
  H1       1.0000 0.42090  0.21930  0.08660  Biso   1.000  H
  H2       1.0000 0.57910  0.21930  0.91340  Biso   1.000  H
  H3       1.0000 0.92090  0.71930  0.08660  Biso   1.000  H
  H4       1.0000 0.07910  0.71930  0.91340  Biso   1.000  H
  H5       1.0000 0.49370  0.31570  0.20160  Biso   1.000  H
  H6       1.0000 0.50630  0.31570  0.79840  Biso   1.000  H
  H7       1.0000 0.99370  0.81570  0.20160  Biso   1.000  H
  H8       1.0000 0.00630  0.81570  0.79840  Biso   1.000  H
  H9       1.0000 0.48420  0.32910  0.08080  Biso   1.000  H
  H10      1.0000 0.51580  0.32910  0.91920  Biso   1.000  H
  H11      1.0000 0.98420  0.82910  0.08080  Biso   1.000  H
  H12      1.0000 0.01580  0.82910  0.91920  Biso   1.000  H
  C17      1.0000 0.33340  0.46600  0.93690  Biso   1.000  C
  C18      1.0000 0.66660  0.46600  0.06310  Biso   1.000  C
  C19      1.0000 0.83340  0.96600  0.93690  Biso   1.000  C
  C20      1.0000 0.16660  0.96600  0.06310  Biso   1.000  C
  H13      1.0000 0.30000  0.36650  0.91370  Biso   1.000  H
  H14      1.0000 0.70000  0.36650  0.08630  Biso   1.000  H
  H15      1.0000 0.80000  0.86650  0.91370  Biso   1.000  H
  H16      1.0000 0.20000  0.86650  0.08630  Biso   1.000  H
  H17      1.0000 0.36670  0.46170  0.90720  Biso   1.000  H
  H18      1.0000 0.63330  0.46170  0.09280  Biso   1.000  H
  H19      1.0000 0.86670  0.96170  0.90720  Biso   1.000  H
  H20      1.0000 0.13330  0.96170  0.09280  Biso   1.000  H
  H21      1.0000 0.29690  0.56210  0.90340  Biso   1.000  H
  H22      1.0000 0.70310  0.56210  0.09660  Biso   1.000  H
  H23      1.0000 0.79690  0.06210  0.90340  Biso   1.000  H
  H24      1.0000 0.20310  0.06210  0.09660  Biso   1.000  H
  C21      1.0000 0.44400  0.63380  0.12240  Biso   1.000  C
  C22      1.0000 0.55600  0.63380  0.87760  Biso   1.000  C
  C23      1.0000 0.94400  0.13380  0.12240  Biso   1.000  C
  C24      1.0000 0.05600  0.13380  0.87760  Biso   1.000  C
  H25      1.0000 0.48110  0.63040  0.20900  Biso   1.000  H
  H26      1.0000 0.51890  0.63040  0.79100  Biso   1.000  H
  H27      1.0000 0.98110  0.13040  0.20900  Biso   1.000  H
  H28      1.0000 0.01890  0.13040  0.79100  Biso   1.000  H
  H29      1.0000 0.40770  0.72950  0.09620  Biso   1.000  H
  H30      1.0000 0.59230  0.72950  0.90380  Biso   1.000  H
  H31      1.0000 0.90770  0.22950  0.09620  Biso   1.000  H
  H32      1.0000 0.09230  0.22950  0.90380  Biso   1.000  H
  H33      1.0000 0.47700  0.64140  0.09230  Biso   1.000  H
  H34      1.0000 0.52300  0.64140  0.90770  Biso   1.000  H
  H35      1.0000 0.97700  0.14140  0.09230  Biso   1.000  H
  H36      1.0000 0.02300  0.14140  0.90770  Biso   1.000  H
  C25      1.0000 0.25500  0.47000  0.05750  Biso   1.000  C
  C26      1.0000 0.74500  0.47000  0.94250  Biso   1.000  C
  C27      1.0000 0.75500  0.97000  0.05750  Biso   1.000  C
  C28      1.0000 0.24500  0.97000  0.94250  Biso   1.000  C
  H37      1.0000 0.22550  0.48510  0.97470  Biso   1.000  H
  H38      1.0000 0.77450  0.48510  0.02530  Biso   1.000  H
  H39      1.0000 0.72550  0.98510  0.97470  Biso   1.000  H
  H40      1.0000 0.27450  0.98510  0.02530  Biso   1.000  H
  C29      1.0000 0.20820  0.45520  0.10560  Biso   1.000  C
  C30      1.0000 0.79180  0.45520  0.89440  Biso   1.000  C
  C31      1.0000 0.70820  0.95520  0.10560  Biso   1.000  C
  C32      1.0000 0.29180  0.95520  0.89440  Biso   1.000  C
  H41      1.0000 0.15020  0.43790  0.05200  Biso   1.000  H
  H42      1.0000 0.84980  0.43790  0.94800  Biso   1.000  H
  H43      1.0000 0.65020  0.93790  0.05200  Biso   1.000  H
  H44      1.0000 0.34980  0.93790  0.94800  Biso   1.000  H
  C33      1.0000 0.24340  0.46500  0.22470  Biso   1.000  C
  C34      1.0000 0.75660  0.46500  0.77530  Biso   1.000  C
  C35      1.0000 0.74340  0.96500  0.22470  Biso   1.000  C
  C36      1.0000 0.25660  0.96500  0.77530  Biso   1.000  C
  C37      1.0000 0.19190  0.47280  0.27670  Biso   1.000  C
  C38      1.0000 0.80810  0.47280  0.72330  Biso   1.000  C
  C39      1.0000 0.69190  0.97280  0.27670  Biso   1.000  C
  C40      1.0000 0.30810  0.97280  0.72330  Biso   1.000  C
  C41      1.0000 0.21560  0.32280  0.36030  Biso   1.000  C
  C42      1.0000 0.78440  0.32280  0.63970  Biso   1.000  C
  C43      1.0000 0.71560  0.82280  0.36030  Biso   1.000  C
  C44      1.0000 0.28440  0.82280  0.63970  Biso   1.000  C
  H45      1.0000 0.27510  0.32560  0.42450  Biso   1.000  H
  H46      1.0000 0.72490  0.32560  0.57550  Biso   1.000  H
  H47      1.0000 0.77510  0.82560  0.42450  Biso   1.000  H
  H48      1.0000 0.22490  0.82560  0.57550  Biso   1.000  H
  H49      1.0000 0.20200  0.22110  0.31520  Biso   1.000  H
  H50      1.0000 0.79800  0.22110  0.68480  Biso   1.000  H
  H51      1.0000 0.70200  0.72110  0.31520  Biso   1.000  H
  H52      1.0000 0.29800  0.72110  0.68480  Biso   1.000  H
  H53      1.0000 0.18460  0.32780  0.39350  Biso   1.000  H
  H54      1.0000 0.81540  0.32780  0.60650  Biso   1.000  H
  H55      1.0000 0.68460  0.82780  0.39350  Biso   1.000  H
  H56      1.0000 0.31540  0.82780  0.60650  Biso   1.000  H
  C45      1.0000 0.09550  0.46800  0.17210  Biso   1.000  C
  C46      1.0000 0.90450  0.46800  0.82790  Biso   1.000  C
  C47      1.0000 0.59550  0.96800  0.17210  Biso   1.000  C
  C48      1.0000 0.40450  0.96800  0.82790  Biso   1.000  C
  H57      1.0000 0.08100  0.56150  0.11910  Biso   1.000  H
  H58      1.0000 0.91900  0.56150  0.88090  Biso   1.000  H
  H59      1.0000 0.58100  0.06150  0.11910  Biso   1.000  H
  H60      1.0000 0.41900  0.06150  0.88090  Biso   1.000  H
  H61      1.0000 0.06430  0.47490  0.20480  Biso   1.000  H
  H62      1.0000 0.93570  0.47490  0.79520  Biso   1.000  H
  H63      1.0000 0.56430  0.97490  0.20480  Biso   1.000  H
  H64      1.0000 0.43570  0.97490  0.79520  Biso   1.000  H
  H65      1.0000 0.08190  0.36590  0.12770  Biso   1.000  H
  H66      1.0000 0.91810  0.36590  0.87230  Biso   1.000  H
  H67      1.0000 0.58190  0.86590  0.12770  Biso   1.000  H
  H68      1.0000 0.41810  0.86590  0.87230  Biso   1.000  H
  C49      1.0000 0.20740  0.63680  0.34290  Biso   1.000  C
  C50      1.0000 0.79260  0.63680  0.65710  Biso   1.000  C
  C51      1.0000 0.70740  0.13680  0.34290  Biso   1.000  C
  C52      1.0000 0.29260  0.13680  0.65710  Biso   1.000  C
  H69      1.0000 0.19530  0.72870  0.29010  Biso   1.000  H
  H70      1.0000 0.80470  0.72870  0.70990  Biso   1.000  H
  H71      1.0000 0.69530  0.22870  0.29010  Biso   1.000  H
  H72      1.0000 0.30470  0.22870  0.70990  Biso   1.000  H
  H73      1.0000 0.26540  0.64220  0.41260  Biso   1.000  H
  H74      1.0000 0.73460  0.64220  0.58740  Biso   1.000  H
  H75      1.0000 0.76540  0.14220  0.41260  Biso   1.000  H
  H76      1.0000 0.23460  0.14220  0.58740  Biso   1.000  H
  H77      1.0000 0.17130  0.64280  0.36790  Biso   1.000  H
  H78      1.0000 0.82870  0.64280  0.63210  Biso   1.000  H
  H79      1.0000 0.67130  0.14280  0.36790  Biso   1.000  H
  H80      1.0000 0.32870  0.14280  0.63210  Biso   1.000  H
  C53      1.0000 0.33510  0.45660  0.30680  Biso   1.000  C
  C54      1.0000 0.66490  0.45660  0.69320  Biso   1.000  C
  C55      1.0000 0.83510  0.95660  0.30680  Biso   1.000  C
  C56      1.0000 0.16490  0.95660  0.69320  Biso   1.000  C
  O5       1.0000 0.37849  0.46450  0.42180  Biso   1.000  O
  O6       1.0000 0.62151  0.46450  0.57820  Biso   1.000  O
  O7       1.0000 0.87849  0.96450  0.42180  Biso   1.000  O
  O8       1.0000 0.12151  0.96450  0.57820  Biso   1.000  O
  N1       1.0000 0.50000  0.80360  0.50000  Biso   1.000  N
  N2       1.0000 0.00000  0.30360  0.50000  Biso   1.000  N
  C57      1.0000 0.59100  0.87900  0.60900  Biso   1.000  C
  C58      1.0000 0.40900  0.87900  0.39100  Biso   1.000  C
  C59      1.0000 0.09100  0.37900  0.60900  Biso   1.000  C
  C60      1.0000 0.90900  0.37900  0.39100  Biso   1.000  C
  C61      1.0000 0.52100  0.87900  0.60620  Biso   1.000  C
  C62      1.0000 0.47900  0.87900  0.39380  Biso   1.000  C
  C63      1.0000 0.02100  0.37900  0.60620  Biso   1.000  C
  C64      1.0000 0.97900  0.37900  0.39380  Biso   1.000  C
  C65      1.0000 0.44090  0.85500  0.52700  Biso   1.000  C
  C66      1.0000 0.55910  0.85500  0.47300  Biso   1.000  C
  C67      1.0000 0.94090  0.35500  0.52700  Biso   1.000  C
  C68      1.0000 0.05910  0.35500  0.47300  Biso   1.000  C
  C69      1.0000 0.47650  0.07200  0.57100  Biso   1.000  C
  C70      1.0000 0.52350  0.07200  0.42900  Biso   1.000  C
  C71      1.0000 0.97650  0.57200  0.57100  Biso   1.000  C
  C72      1.0000 0.02350  0.57200  0.42900  Biso   1.000  C
  C73      1.0000 0.58660  0.07300  0.63400  Biso   1.000  C
  C74      1.0000 0.41340  0.07300  0.36600  Biso   1.000  C
  C75      1.0000 0.08660  0.57300  0.63400  Biso   1.000  C
  C76      1.0000 0.91340  0.57300  0.36600  Biso   1.000  C
  C77      1.0000 0.41930  0.06600  0.46800  Biso   1.000  C
  C78      1.0000 0.58070  0.06600  0.53200  Biso   1.000  C
  C79      1.0000 0.91930  0.56600  0.46800  Biso   1.000  C
  C80      1.0000 0.08070  0.56600  0.53200  Biso   1.000  C
  N3       1.0000 0.50000  0.12760  0.50000  Biso   1.000  N
  N4       1.0000 0.00000  0.62760  0.50000  Biso   1.000  N
