data_image0
_cell_length_a       5.3549
_cell_length_b       9.2637
_cell_length_c       11.2141
_cell_angle_alpha    72.385
_cell_angle_beta     84.174
_cell_angle_gamma    76.304

_symmetry_space_group_name_H-M    "P 1"
_symmetry_int_tables_number       1

loop_
  _symmetry_equiv_pos_as_xyz
  'x, y, z'

loop_
  _atom_site_label
  _atom_site_occupancy
  _atom_site_fract_x
  _atom_site_fract_y
  _atom_site_fract_z
  _atom_site_thermal_displace_type
  _atom_site_B_iso_or_equiv
  _atom_site_type_symbol
  Cu1      1.0000 0.75162  0.52001  0.57600  Biso   1.000  Cu
  Cu2      1.0000 0.24838  0.47999  0.42400  Biso   1.000  Cu
  Br1      1.0000 0.60662  0.86248  0.91294  Biso   1.000  Br
  Br2      1.0000 0.39338  0.13752  0.08706  Biso   1.000  Br
  N1       1.0000 0.67110  0.43840  0.75590  Biso   1.000  N
  N2       1.0000 0.32890  0.56160  0.24410  Biso   1.000  N
  O1       1.0000 0.84230  0.31690  0.83690  Biso   1.000  O
  O2       1.0000 0.15770  0.68310  0.16310  Biso   1.000  O
  O3       1.0000 0.42030  0.65530  0.54470  Biso   1.000  O
  O4       1.0000 0.57970  0.34470  0.45530  Biso   1.000  O
  O5       1.0000 0.09430  0.39330  0.58650  Biso   1.000  O
  O6       1.0000 0.90570  0.60670  0.41350  Biso   1.000  O
  C1       1.0000 0.48070  0.50120  0.81700  Biso   1.000  C
  C2       1.0000 0.51930  0.49880  0.18300  Biso   1.000  C
  H1       1.0000 0.47820  0.46300  0.90390  Biso   1.000  H
  H2       1.0000 0.52180  0.53700  0.09610  Biso   1.000  H
  C3       1.0000 0.27100  0.62670  0.76060  Biso   1.000  C
  C4       1.0000 0.72900  0.37330  0.23940  Biso   1.000  C
  C5       1.0000 0.24820  0.69380  0.62860  Biso   1.000  C
  C6       1.0000 0.75180  0.30620  0.37140  Biso   1.000  C
  C7       1.0000 0.02200  0.80590  0.58790  Biso   1.000  C
  C8       1.0000 0.97800  0.19410  0.41210  Biso   1.000  C
  H3       1.0000 0.99770  0.84860  0.50240  Biso   1.000  H
  H4       1.0000 0.00230  0.15140  0.49760  Biso   1.000  H
  C9       1.0000 0.83420  0.85510  0.67020  Biso   1.000  C
  C10      1.0000 0.16580  0.14490  0.32980  Biso   1.000  C
  H5       1.0000 0.68810  0.93020  0.63990  Biso   1.000  H
  H6       1.0000 0.31190  0.06980  0.36010  Biso   1.000  H
  C11      1.0000 0.86610  0.79050  0.80000  Biso   1.000  C
  C12      1.0000 0.13390  0.20950  0.20000  Biso   1.000  C
  C13      1.0000 0.07730  0.67810  0.84400  Biso   1.000  C
  C14      1.0000 0.92270  0.32190  0.15600  Biso   1.000  C
  H7       1.0000 0.09510  0.63430  0.92990  Biso   1.000  H
  H8       1.0000 0.90490  0.36570  0.07010  Biso   1.000  H
  C15      1.0000 0.97840  0.20570  0.77290  Biso   1.000  C
  C16      1.0000 0.02160  0.79430  0.22710  Biso   1.000  C
  H9       1.0000 0.85660  0.18410  0.72570  Biso   1.000  H
  H10      1.0000 0.14340  0.81590  0.27430  Biso   1.000  H
  H11      1.0000 0.05010  0.10950  0.83480  Biso   1.000  H
  H12      1.0000 0.94990  0.89050  0.16520  Biso   1.000  H
  C17      1.0000 0.19160  0.25910  0.68520  Biso   1.000  C
  C18      1.0000 0.80840  0.74090  0.31480  Biso   1.000  C
  H13      1.0000 0.28200  0.17650  0.65030  Biso   1.000  H
  H14      1.0000 0.71800  0.82350  0.34970  Biso   1.000  H
  H15      1.0000 0.31320  0.28240  0.73130  Biso   1.000  H
  H16      1.0000 0.68680  0.71760  0.26870  Biso   1.000  H
