data_image0
_cell_length_a       15.9395
_cell_length_b       6.2397
_cell_length_c       10.6094
_cell_angle_alpha    90
_cell_angle_beta     101.383
_cell_angle_gamma    90

_symmetry_space_group_name_H-M    "P 1"
_symmetry_int_tables_number       1

loop_
  _symmetry_equiv_pos_as_xyz
  'x, y, z'

loop_
  _atom_site_label
  _atom_site_occupancy
  _atom_site_fract_x
  _atom_site_fract_y
  _atom_site_fract_z
  _atom_site_thermal_displace_type
  _atom_site_B_iso_or_equiv
  _atom_site_type_symbol
  Cu1      1.0000 0.50303  0.55314  0.74841  Biso   1.000  Cu
  Cu2      1.0000 0.49697  0.05314  0.75159  Biso   1.000  Cu
  Cu3      1.0000 0.49697  0.44686  0.25159  Biso   1.000  Cu
  Cu4      1.0000 0.50303  0.94686  0.24841  Biso   1.000  Cu
  C1       1.0000 0.65389  0.80470  0.86210  Biso   1.000  C
  C2       1.0000 0.34611  0.30470  0.63790  Biso   1.000  C
  C3       1.0000 0.34611  0.19530  0.13790  Biso   1.000  C
  C4       1.0000 0.65389  0.69530  0.36210  Biso   1.000  C
  C5       1.0000 0.74644  0.81560  0.92780  Biso   1.000  C
  C6       1.0000 0.25356  0.31560  0.57220  Biso   1.000  C
  C7       1.0000 0.25356  0.18440  0.07220  Biso   1.000  C
  C8       1.0000 0.74644  0.68440  0.42780  Biso   1.000  C
  C9       1.0000 0.79993  0.65890  0.89860  Biso   1.000  C
  C10      1.0000 0.20007  0.15890  0.60140  Biso   1.000  C
  C11      1.0000 0.20007  0.34110  0.10140  Biso   1.000  C
  C12      1.0000 0.79993  0.84110  0.39860  Biso   1.000  C
  H1       1.0000 0.77750  0.54890  0.84280  Biso   1.000  H
  H2       1.0000 0.22250  0.04890  0.65720  Biso   1.000  H
  H3       1.0000 0.22250  0.45110  0.15720  Biso   1.000  H
  H4       1.0000 0.77750  0.95110  0.34280  Biso   1.000  H
  C13      1.0000 0.88818  0.66200  0.95150  Biso   1.000  C
  C14      1.0000 0.11182  0.16200  0.54850  Biso   1.000  C
  C15      1.0000 0.11182  0.33800  0.04850  Biso   1.000  C
  C16      1.0000 0.88818  0.83800  0.45150  Biso   1.000  C
  H5       1.0000 0.92370  0.55660  0.92890  Biso   1.000  H
  H6       1.0000 0.07630  0.05660  0.57110  Biso   1.000  H
  H7       1.0000 0.07630  0.44340  0.07110  Biso   1.000  H
  H8       1.0000 0.92370  0.94340  0.42890  Biso   1.000  H
  C17      1.0000 0.92144  0.81840  0.03540  Biso   1.000  C
  C18      1.0000 0.07856  0.31840  0.46460  Biso   1.000  C
  C19      1.0000 0.07856  0.18160  0.96460  Biso   1.000  C
  C20      1.0000 0.92144  0.68160  0.53540  Biso   1.000  C
  H9       1.0000 0.97970  0.81850  0.07030  Biso   1.000  H
  H10      1.0000 0.02030  0.31850  0.42970  Biso   1.000  H
  H11      1.0000 0.02030  0.18150  0.92970  Biso   1.000  H
  H12      1.0000 0.97970  0.68150  0.57030  Biso   1.000  H
  C21      1.0000 0.86886  0.98150  0.07060  Biso   1.000  C
  C22      1.0000 0.13114  0.48150  0.42940  Biso   1.000  C
  C23      1.0000 0.13114  0.01850  0.92940  Biso   1.000  C
  C24      1.0000 0.86886  0.51850  0.57060  Biso   1.000  C
  C25      1.0000 0.77995  0.98440  0.01590  Biso   1.000  C
  C26      1.0000 0.22005  0.48440  0.48410  Biso   1.000  C
  C27      1.0000 0.22005  0.01560  0.98410  Biso   1.000  C
  C28      1.0000 0.77995  0.51560  0.51590  Biso   1.000  C
  C29      1.0000 0.90380  0.14420  0.16040  Biso   1.000  C
  C30      1.0000 0.09620  0.64420  0.33960  Biso   1.000  C
  C31      1.0000 0.09620  0.85580  0.83960  Biso   1.000  C
  C32      1.0000 0.90380  0.35580  0.66040  Biso   1.000  C
  H13      1.0000 0.96200  0.14380  0.19560  Biso   1.000  H
  H14      1.0000 0.03800  0.64380  0.30440  Biso   1.000  H
  H15      1.0000 0.03800  0.85620  0.80440  Biso   1.000  H
  H16      1.0000 0.96200  0.35620  0.69560  Biso   1.000  H
  C33      1.0000 0.85330  0.29950  0.19520  Biso   1.000  C
  C34      1.0000 0.14670  0.79950  0.30480  Biso   1.000  C
  C35      1.0000 0.14670  0.70050  0.80480  Biso   1.000  C
  C36      1.0000 0.85330  0.20050  0.69520  Biso   1.000  C
  H17      1.0000 0.87680  0.40320  0.25470  Biso   1.000  H
  H18      1.0000 0.12320  0.90320  0.24530  Biso   1.000  H
  H19      1.0000 0.12320  0.59680  0.74530  Biso   1.000  H
  H20      1.0000 0.87680  0.09680  0.75470  Biso   1.000  H
  C37      1.0000 0.76560  0.30310  0.14100  Biso   1.000  C
  C38      1.0000 0.23440  0.80310  0.35900  Biso   1.000  C
  C39      1.0000 0.23440  0.69690  0.85900  Biso   1.000  C
  C40      1.0000 0.76560  0.19690  0.64100  Biso   1.000  C
  H21      1.0000 0.73140  0.41060  0.16480  Biso   1.000  H
  H22      1.0000 0.26860  0.91060  0.33520  Biso   1.000  H
  H23      1.0000 0.26860  0.58940  0.83520  Biso   1.000  H
  H24      1.0000 0.73140  0.08940  0.66480  Biso   1.000  H
  C41      1.0000 0.72934  0.15120  0.05370  Biso   1.000  C
  C42      1.0000 0.27066  0.65120  0.44630  Biso   1.000  C
  C43      1.0000 0.27066  0.84880  0.94630  Biso   1.000  C
  C44      1.0000 0.72934  0.34880  0.55370  Biso   1.000  C
  H25      1.0000 0.67110  0.15720  0.01890  Biso   1.000  H
  H26      1.0000 0.32890  0.65720  0.48110  Biso   1.000  H
  H27      1.0000 0.32890  0.84280  0.98110  Biso   1.000  H
  H28      1.0000 0.67110  0.34280  0.51890  Biso   1.000  H
  O1       1.0000 0.62060  0.62100  0.84397  Biso   1.000  O
  O2       1.0000 0.37940  0.12100  0.65603  Biso   1.000  O
  O3       1.0000 0.37940  0.37900  0.15603  Biso   1.000  O
  O4       1.0000 0.62060  0.87900  0.34397  Biso   1.000  O
  O5       1.0000 0.61670  0.97940  0.82790  Biso   1.000  O
  O6       1.0000 0.38330  0.47940  0.67210  Biso   1.000  O
  O7       1.0000 0.38330  0.02060  0.17210  Biso   1.000  O
  O8       1.0000 0.61670  0.52060  0.32790  Biso   1.000  O
  O9       1.0000 0.54490  0.29840  0.67951  Biso   1.000  O
  O10      1.0000 0.45510  0.79840  0.82049  Biso   1.000  O
  O11      1.0000 0.45510  0.70160  0.32049  Biso   1.000  O
  O12      1.0000 0.54490  0.20160  0.17951  Biso   1.000  O
  H29      1.0000 0.59870  0.29600  0.70740  Biso   1.000  H
  H30      1.0000 0.40130  0.79600  0.79260  Biso   1.000  H
  H31      1.0000 0.40130  0.70400  0.29260  Biso   1.000  H
  H32      1.0000 0.59870  0.20400  0.20740  Biso   1.000  H
  O13      1.0000 0.52295  0.77490  0.57325  Biso   1.000  O
  O14      1.0000 0.47705  0.27490  0.92675  Biso   1.000  O
  O15      1.0000 0.47705  0.22510  0.42675  Biso   1.000  O
  O16      1.0000 0.52295  0.72510  0.07325  Biso   1.000  O
  H33      1.0000 0.49950  0.73710  0.49750  Biso   1.000  H
  H34      1.0000 0.50050  0.23710  0.00250  Biso   1.000  H
  H35      1.0000 0.50050  0.26290  0.50250  Biso   1.000  H
  H36      1.0000 0.49950  0.76290  0.99750  Biso   1.000  H
  H37      1.0000 0.57140  0.82050  0.56310  Biso   1.000  H
  H38      1.0000 0.42860  0.32050  0.93690  Biso   1.000  H
  H39      1.0000 0.42860  0.17950  0.43690  Biso   1.000  H
  H40      1.0000 0.57140  0.67950  0.06310  Biso   1.000  H
