data_image0
_cell_length_a       25.987
_cell_length_b       17.05
_cell_length_c       15.69
_cell_angle_alpha    90
_cell_angle_beta     115.779
_cell_angle_gamma    90

_symmetry_space_group_name_H-M    "P 1"
_symmetry_int_tables_number       1

loop_
  _symmetry_equiv_pos_as_xyz
  'x, y, z'

loop_
  _atom_site_label
  _atom_site_occupancy
  _atom_site_fract_x
  _atom_site_fract_y
  _atom_site_fract_z
  _atom_site_thermal_displace_type
  _atom_site_B_iso_or_equiv
  _atom_site_type_symbol
  Cu1      1.0000 0.69648  0.59246  0.32159  Biso   1.000  Cu
  Cu2      1.0000 0.30352  0.59246  0.17841  Biso   1.000  Cu
  Cu3      1.0000 0.19648  0.09246  0.32159  Biso   1.000  Cu
  Cu4      1.0000 0.80352  0.09246  0.17841  Biso   1.000  Cu
  Cu5      1.0000 0.30352  0.40754  0.67841  Biso   1.000  Cu
  Cu6      1.0000 0.69648  0.40754  0.82159  Biso   1.000  Cu
  Cu7      1.0000 0.80352  0.90754  0.67841  Biso   1.000  Cu
  Cu8      1.0000 0.19648  0.90754  0.82159  Biso   1.000  Cu
  Cu9      1.0000 0.75000  0.75000  0.50000  Biso   1.000  Cu
  Cu10     1.0000 0.25000  0.75000  0.00000  Biso   1.000  Cu
  Cu11     1.0000 0.25000  0.25000  0.50000  Biso   1.000  Cu
  Cu12     1.0000 0.75000  0.25000  0.00000  Biso   1.000  Cu
  O1       1.0000 0.35838  0.57740  0.41260  Biso   1.000  O
  O2       1.0000 0.64162  0.57740  0.08740  Biso   1.000  O
  O3       1.0000 0.85838  0.07740  0.41260  Biso   1.000  O
  O4       1.0000 0.14162  0.07740  0.08740  Biso   1.000  O
  O5       1.0000 0.64162  0.42260  0.58740  Biso   1.000  O
  O6       1.0000 0.35838  0.42260  0.91260  Biso   1.000  O
  O7       1.0000 0.14162  0.92260  0.58740  Biso   1.000  O
  O8       1.0000 0.85838  0.92260  0.91260  Biso   1.000  O
  O9       1.0000 0.37902  0.60290  0.29050  Biso   1.000  O
  O10      1.0000 0.62098  0.60290  0.20950  Biso   1.000  O
  O11      1.0000 0.87902  0.10290  0.29050  Biso   1.000  O
  O12      1.0000 0.12098  0.10290  0.20950  Biso   1.000  O
  O13      1.0000 0.62098  0.39710  0.70950  Biso   1.000  O
  O14      1.0000 0.37902  0.39710  0.79050  Biso   1.000  O
  O15      1.0000 0.12098  0.89710  0.70950  Biso   1.000  O
  O16      1.0000 0.87902  0.89710  0.79050  Biso   1.000  O
  O17      1.0000 0.07080  0.63900  0.69060  Biso   1.000  O
  O18      1.0000 0.92920  0.63900  0.80940  Biso   1.000  O
  O19      1.0000 0.57080  0.13900  0.69060  Biso   1.000  O
  O20      1.0000 0.42920  0.13900  0.80940  Biso   1.000  O
  O21      1.0000 0.92920  0.36100  0.30940  Biso   1.000  O
  O22      1.0000 0.07080  0.36100  0.19060  Biso   1.000  O
  O23      1.0000 0.42920  0.86100  0.30940  Biso   1.000  O
  O24      1.0000 0.57080  0.86100  0.19060  Biso   1.000  O
  O25      1.0000 0.11370  0.53190  0.67220  Biso   1.000  O
  O26      1.0000 0.88630  0.53190  0.82780  Biso   1.000  O
  O27      1.0000 0.61370  0.03190  0.67220  Biso   1.000  O
  O28      1.0000 0.38630  0.03190  0.82780  Biso   1.000  O
  O29      1.0000 0.88630  0.46810  0.32780  Biso   1.000  O
  O30      1.0000 0.11370  0.46810  0.17220  Biso   1.000  O
  O31      1.0000 0.38630  0.96810  0.32780  Biso   1.000  O
  O32      1.0000 0.61370  0.96810  0.17220  Biso   1.000  O
  N1       1.0000 0.77193  0.59310  0.43910  Biso   1.000  N
  N2       1.0000 0.22807  0.59310  0.06090  Biso   1.000  N
  N3       1.0000 0.27193  0.09310  0.43910  Biso   1.000  N
  N4       1.0000 0.72807  0.09310  0.06090  Biso   1.000  N
  N5       1.0000 0.22807  0.40690  0.56090  Biso   1.000  N
  N6       1.0000 0.77193  0.40690  0.93910  Biso   1.000  N
  N7       1.0000 0.72807  0.90690  0.56090  Biso   1.000  N
  N8       1.0000 0.27193  0.90690  0.93910  Biso   1.000  N
  N9       1.0000 0.79450  0.65150  0.50640  Biso   1.000  N
  N10      1.0000 0.20550  0.65150  0.99360  Biso   1.000  N
  N11      1.0000 0.29450  0.15150  0.50640  Biso   1.000  N
  N12      1.0000 0.70550  0.15150  0.99360  Biso   1.000  N
  N13      1.0000 0.20550  0.34850  0.49360  Biso   1.000  N
  N14      1.0000 0.79450  0.34850  0.00640  Biso   1.000  N
  N15      1.0000 0.70550  0.84850  0.49360  Biso   1.000  N
  N16      1.0000 0.29450  0.84850  0.00640  Biso   1.000  N
  N17      1.0000 0.85930  0.56120  0.53760  Biso   1.000  N
  N18      1.0000 0.14070  0.56120  0.96240  Biso   1.000  N
  N19      1.0000 0.35930  0.06120  0.53760  Biso   1.000  N
  N20      1.0000 0.64070  0.06120  0.96240  Biso   1.000  N
  N21      1.0000 0.14070  0.43880  0.46240  Biso   1.000  N
  N22      1.0000 0.85930  0.43880  0.03760  Biso   1.000  N
  N23      1.0000 0.64070  0.93880  0.46240  Biso   1.000  N
  N24      1.0000 0.35930  0.93880  0.03760  Biso   1.000  N
  N25      1.0000 0.65700  0.62470  0.39980  Biso   1.000  N
  N26      1.0000 0.34300  0.62470  0.10020  Biso   1.000  N
  N27      1.0000 0.15700  0.12470  0.39980  Biso   1.000  N
  N28      1.0000 0.84300  0.12470  0.10020  Biso   1.000  N
  N29      1.0000 0.34300  0.37530  0.60020  Biso   1.000  N
  N30      1.0000 0.65700  0.37530  0.89980  Biso   1.000  N
  N31      1.0000 0.84300  0.87530  0.60020  Biso   1.000  N
  N32      1.0000 0.15700  0.87530  0.89980  Biso   1.000  N
  N33      1.0000 0.67830  0.68340  0.47090  Biso   1.000  N
  N34      1.0000 0.32170  0.68340  0.02910  Biso   1.000  N
  N35      1.0000 0.17830  0.18340  0.47090  Biso   1.000  N
  N36      1.0000 0.82170  0.18340  0.02910  Biso   1.000  N
  N37      1.0000 0.32170  0.31660  0.52910  Biso   1.000  N
  N38      1.0000 0.67830  0.31660  0.97090  Biso   1.000  N
  N39      1.0000 0.82170  0.81660  0.52910  Biso   1.000  N
  N40      1.0000 0.17830  0.81660  0.97090  Biso   1.000  N
  N41      1.0000 0.60010  0.63280  0.46920  Biso   1.000  N
  N42      1.0000 0.39990  0.63280  0.03080  Biso   1.000  N
  N43      1.0000 0.10010  0.13280  0.46920  Biso   1.000  N
  N44      1.0000 0.89990  0.13280  0.03080  Biso   1.000  N
  N45      1.0000 0.39990  0.36720  0.53080  Biso   1.000  N
  N46      1.0000 0.60010  0.36720  0.96920  Biso   1.000  N
  N47      1.0000 0.89990  0.86720  0.53080  Biso   1.000  N
  N48      1.0000 0.10010  0.86720  0.96920  Biso   1.000  N
  C1       1.0000 0.81160  0.53930  0.46020  Biso   1.000  C
  C2       1.0000 0.18840  0.53930  0.03980  Biso   1.000  C
  C3       1.0000 0.31160  0.03930  0.46020  Biso   1.000  C
  C4       1.0000 0.68840  0.03930  0.03980  Biso   1.000  C
  C5       1.0000 0.18840  0.46070  0.53980  Biso   1.000  C
  C6       1.0000 0.81160  0.46070  0.96020  Biso   1.000  C
  C7       1.0000 0.68840  0.96070  0.53980  Biso   1.000  C
  C8       1.0000 0.31160  0.96070  0.96020  Biso   1.000  C
  H1       1.0000 0.80760  0.49280  0.42680  Biso   1.000  H
  H2       1.0000 0.19240  0.49280  0.07320  Biso   1.000  H
  H3       1.0000 0.30760  0.99280  0.42680  Biso   1.000  H
  H4       1.0000 0.69240  0.99280  0.07320  Biso   1.000  H
  H5       1.0000 0.19240  0.50720  0.57320  Biso   1.000  H
  H6       1.0000 0.80760  0.50720  0.92680  Biso   1.000  H
  H7       1.0000 0.69240  0.00720  0.57320  Biso   1.000  H
  H8       1.0000 0.30760  0.00720  0.92680  Biso   1.000  H
  C9       1.0000 0.84650  0.63130  0.56420  Biso   1.000  C
  C10      1.0000 0.15350  0.63130  0.93580  Biso   1.000  C
  C11      1.0000 0.34650  0.13130  0.56420  Biso   1.000  C
  C12      1.0000 0.65350  0.13130  0.93580  Biso   1.000  C
  C13      1.0000 0.15350  0.36870  0.43580  Biso   1.000  C
  C14      1.0000 0.84650  0.36870  0.06420  Biso   1.000  C
  C15      1.0000 0.65350  0.86870  0.43580  Biso   1.000  C
  C16      1.0000 0.34650  0.86870  0.06420  Biso   1.000  C
  H9       1.0000 0.87110  0.66070  0.61580  Biso   1.000  H
  H10      1.0000 0.12890  0.66070  0.88420  Biso   1.000  H
  H11      1.0000 0.37110  0.16070  0.61580  Biso   1.000  H
  H12      1.0000 0.62890  0.16070  0.88420  Biso   1.000  H
  H13      1.0000 0.12890  0.33930  0.38420  Biso   1.000  H
  H14      1.0000 0.87110  0.33930  0.11580  Biso   1.000  H
  H15      1.0000 0.62890  0.83930  0.38420  Biso   1.000  H
  H16      1.0000 0.37110  0.83930  0.11580  Biso   1.000  H
  C17      1.0000 0.91360  0.52140  0.57580  Biso   1.000  C
  C18      1.0000 0.08640  0.52140  0.92420  Biso   1.000  C
  C19      1.0000 0.41360  0.02140  0.57580  Biso   1.000  C
  C20      1.0000 0.58640  0.02140  0.92420  Biso   1.000  C
  C21      1.0000 0.08640  0.47860  0.42420  Biso   1.000  C
  C22      1.0000 0.91360  0.47860  0.07580  Biso   1.000  C
  C23      1.0000 0.58640  0.97860  0.42420  Biso   1.000  C
  C24      1.0000 0.41360  0.97860  0.07580  Biso   1.000  C
  C25      1.0000 0.96210  0.56370  0.59830  Biso   1.000  C
  C26      1.0000 0.03790  0.56370  0.90170  Biso   1.000  C
  C27      1.0000 0.46210  0.06370  0.59830  Biso   1.000  C
  C28      1.0000 0.53790  0.06370  0.90170  Biso   1.000  C
  C29      1.0000 0.03790  0.43630  0.40170  Biso   1.000  C
  C30      1.0000 0.96210  0.43630  0.09830  Biso   1.000  C
  C31      1.0000 0.53790  0.93630  0.40170  Biso   1.000  C
  C32      1.0000 0.46210  0.93630  0.09830  Biso   1.000  C
  H17      1.0000 0.96050  0.61800  0.59170  Biso   1.000  H
  H18      1.0000 0.03950  0.61800  0.90830  Biso   1.000  H
  H19      1.0000 0.46050  0.11800  0.59170  Biso   1.000  H
  H20      1.0000 0.53950  0.11800  0.90830  Biso   1.000  H
  H21      1.0000 0.03950  0.38200  0.40830  Biso   1.000  H
  H22      1.0000 0.96050  0.38200  0.09170  Biso   1.000  H
  H23      1.0000 0.53950  0.88200  0.40830  Biso   1.000  H
  H24      1.0000 0.46050  0.88200  0.09170  Biso   1.000  H
  C33      1.0000 0.01500  0.52380  0.63190  Biso   1.000  C
  C34      1.0000 0.98500  0.52380  0.86810  Biso   1.000  C
  C35      1.0000 0.51500  0.02380  0.63190  Biso   1.000  C
  C36      1.0000 0.48500  0.02380  0.86810  Biso   1.000  C
  C37      1.0000 0.98500  0.47620  0.36810  Biso   1.000  C
  C38      1.0000 0.01500  0.47620  0.13190  Biso   1.000  C
  C39      1.0000 0.48500  0.97620  0.36810  Biso   1.000  C
  C40      1.0000 0.51500  0.97620  0.13190  Biso   1.000  C
  C41      1.0000 0.01630  0.44360  0.63700  Biso   1.000  C
  C42      1.0000 0.98370  0.44360  0.86300  Biso   1.000  C
  C43      1.0000 0.51630  0.94360  0.63700  Biso   1.000  C
  C44      1.0000 0.48370  0.94360  0.86300  Biso   1.000  C
  C45      1.0000 0.98370  0.55640  0.36300  Biso   1.000  C
  C46      1.0000 0.01630  0.55640  0.13700  Biso   1.000  C
  C47      1.0000 0.48370  0.05640  0.36300  Biso   1.000  C
  C48      1.0000 0.51630  0.05640  0.13700  Biso   1.000  C
  H25      1.0000 0.05100  0.41710  0.65820  Biso   1.000  H
  H26      1.0000 0.94900  0.41710  0.84180  Biso   1.000  H
  H27      1.0000 0.55100  0.91710  0.65820  Biso   1.000  H
  H28      1.0000 0.44900  0.91710  0.84180  Biso   1.000  H
  H29      1.0000 0.94900  0.58290  0.34180  Biso   1.000  H
  H30      1.0000 0.05100  0.58290  0.15820  Biso   1.000  H
  H31      1.0000 0.44900  0.08290  0.34180  Biso   1.000  H
  H32      1.0000 0.55100  0.08290  0.15820  Biso   1.000  H
  C49      1.0000 0.96550  0.40180  0.61040  Biso   1.000  C
  C50      1.0000 0.03450  0.40180  0.88960  Biso   1.000  C
  C51      1.0000 0.46550  0.90180  0.61040  Biso   1.000  C
  C52      1.0000 0.53450  0.90180  0.88960  Biso   1.000  C
  C53      1.0000 0.03450  0.59820  0.38960  Biso   1.000  C
  C54      1.0000 0.96550  0.59820  0.11040  Biso   1.000  C
  C55      1.0000 0.53450  0.09820  0.38960  Biso   1.000  C
  C56      1.0000 0.46550  0.09820  0.11040  Biso   1.000  C
  H33      1.0000 0.96610  0.34730  0.61010  Biso   1.000  H
  H34      1.0000 0.03390  0.34730  0.88990  Biso   1.000  H
  H35      1.0000 0.46610  0.84730  0.61010  Biso   1.000  H
  H36      1.0000 0.53390  0.84730  0.88990  Biso   1.000  H
  H37      1.0000 0.03390  0.65270  0.38990  Biso   1.000  H
  H38      1.0000 0.96610  0.65270  0.11010  Biso   1.000  H
  H39      1.0000 0.53390  0.15270  0.38990  Biso   1.000  H
  H40      1.0000 0.46610  0.15270  0.11010  Biso   1.000  H
  C57      1.0000 0.91510  0.44050  0.58480  Biso   1.000  C
  C58      1.0000 0.08490  0.44050  0.91520  Biso   1.000  C
  C59      1.0000 0.41510  0.94050  0.58480  Biso   1.000  C
  C60      1.0000 0.58490  0.94050  0.91520  Biso   1.000  C
  C61      1.0000 0.08490  0.55950  0.41520  Biso   1.000  C
  C62      1.0000 0.91510  0.55950  0.08480  Biso   1.000  C
  C63      1.0000 0.58490  0.05950  0.41520  Biso   1.000  C
  C64      1.0000 0.41510  0.05950  0.08480  Biso   1.000  C
  H41      1.0000 0.88190  0.41290  0.57360  Biso   1.000  H
  H42      1.0000 0.11810  0.41290  0.92640  Biso   1.000  H
  H43      1.0000 0.38190  0.91290  0.57360  Biso   1.000  H
  H44      1.0000 0.61810  0.91290  0.92640  Biso   1.000  H
  H45      1.0000 0.11810  0.58710  0.42640  Biso   1.000  H
  H46      1.0000 0.88190  0.58710  0.07360  Biso   1.000  H
  H47      1.0000 0.61810  0.08710  0.42640  Biso   1.000  H
  H48      1.0000 0.38190  0.08710  0.07360  Biso   1.000  H
  C65      1.0000 0.06860  0.57020  0.66480  Biso   1.000  C
  C66      1.0000 0.93140  0.57020  0.83520  Biso   1.000  C
  C67      1.0000 0.56860  0.07020  0.66480  Biso   1.000  C
  C68      1.0000 0.43140  0.07020  0.83520  Biso   1.000  C
  C69      1.0000 0.93140  0.42980  0.33520  Biso   1.000  C
  C70      1.0000 0.06860  0.42980  0.16480  Biso   1.000  C
  C71      1.0000 0.43140  0.92980  0.33520  Biso   1.000  C
  C72      1.0000 0.56860  0.92980  0.16480  Biso   1.000  C
  C73      1.0000 0.64280  0.68690  0.50780  Biso   1.000  C
  C74      1.0000 0.35720  0.68690  0.99220  Biso   1.000  C
  C75      1.0000 0.14280  0.18690  0.50780  Biso   1.000  C
  C76      1.0000 0.85720  0.18690  0.99220  Biso   1.000  C
  C77      1.0000 0.35720  0.31310  0.49220  Biso   1.000  C
  C78      1.0000 0.64280  0.31310  0.00780  Biso   1.000  C
  C79      1.0000 0.85720  0.81310  0.49220  Biso   1.000  C
  C80      1.0000 0.14280  0.81310  0.00780  Biso   1.000  C
  H49      1.0000 0.64580  0.72210  0.55500  Biso   1.000  H
  H50      1.0000 0.35420  0.72210  0.94500  Biso   1.000  H
  H51      1.0000 0.14580  0.22210  0.55500  Biso   1.000  H
  H52      1.0000 0.85420  0.22210  0.94500  Biso   1.000  H
  H53      1.0000 0.35420  0.27790  0.44500  Biso   1.000  H
  H54      1.0000 0.64580  0.27790  0.05500  Biso   1.000  H
  H55      1.0000 0.85420  0.77790  0.44500  Biso   1.000  H
  H56      1.0000 0.14580  0.77790  0.05500  Biso   1.000  H
  C81      1.0000 0.61240  0.59670  0.40090  Biso   1.000  C
  C82      1.0000 0.38760  0.59670  0.09910  Biso   1.000  C
  C83      1.0000 0.11240  0.09670  0.40090  Biso   1.000  C
  C84      1.0000 0.88760  0.09670  0.09910  Biso   1.000  C
  C85      1.0000 0.38760  0.40330  0.59910  Biso   1.000  C
  C86      1.0000 0.61240  0.40330  0.90090  Biso   1.000  C
  C87      1.0000 0.88760  0.90330  0.59910  Biso   1.000  C
  C88      1.0000 0.11240  0.90330  0.90090  Biso   1.000  C
  H57      1.0000 0.59050  0.55690  0.36110  Biso   1.000  H
  H58      1.0000 0.40950  0.55690  0.13890  Biso   1.000  H
  H59      1.0000 0.09050  0.05690  0.36110  Biso   1.000  H
  H60      1.0000 0.90950  0.05690  0.13890  Biso   1.000  H
  H61      1.0000 0.40950  0.44310  0.63890  Biso   1.000  H
  H62      1.0000 0.59050  0.44310  0.86110  Biso   1.000  H
  H63      1.0000 0.90950  0.94310  0.63890  Biso   1.000  H
  H64      1.0000 0.09050  0.94310  0.86110  Biso   1.000  H
  C89      1.0000 0.55320  0.62000  0.49080  Biso   1.000  C
  C90      1.0000 0.44680  0.62000  0.00920  Biso   1.000  C
  C91      1.0000 0.05320  0.12000  0.49080  Biso   1.000  C
  C92      1.0000 0.94680  0.12000  0.00920  Biso   1.000  C
  C93      1.0000 0.44680  0.38000  0.50920  Biso   1.000  C
  C94      1.0000 0.55320  0.38000  0.99080  Biso   1.000  C
  C95      1.0000 0.94680  0.88000  0.50920  Biso   1.000  C
  C96      1.0000 0.05320  0.88000  0.99080  Biso   1.000  C
  C97      1.0000 0.56570  0.61990  0.58670  Biso   1.000  C
  C98      1.0000 0.43430  0.61990  0.91330  Biso   1.000  C
  C99      1.0000 0.06570  0.11990  0.58670  Biso   1.000  C
  C100     1.0000 0.93430  0.11990  0.91330  Biso   1.000  C
  C101     1.0000 0.43430  0.38010  0.41330  Biso   1.000  C
  C102     1.0000 0.56570  0.38010  0.08670  Biso   1.000  C
  C103     1.0000 0.93430  0.88010  0.41330  Biso   1.000  C
  C104     1.0000 0.06570  0.88010  0.08670  Biso   1.000  C
  H65      1.0000 0.60330  0.62530  0.63230  Biso   1.000  H
  H66      1.0000 0.39670  0.62530  0.86770  Biso   1.000  H
  H67      1.0000 0.10330  0.12530  0.63230  Biso   1.000  H
  H68      1.0000 0.89670  0.12530  0.86770  Biso   1.000  H
  H69      1.0000 0.39670  0.37470  0.36770  Biso   1.000  H
  H70      1.0000 0.60330  0.37470  0.13230  Biso   1.000  H
  H71      1.0000 0.89670  0.87470  0.36770  Biso   1.000  H
  H72      1.0000 0.10330  0.87470  0.13230  Biso   1.000  H
  C105     1.0000 0.52170  0.61180  0.61310  Biso   1.000  C
  C106     1.0000 0.47830  0.61180  0.88690  Biso   1.000  C
  C107     1.0000 0.02170  0.11180  0.61310  Biso   1.000  C
  C108     1.0000 0.97830  0.11180  0.88690  Biso   1.000  C
  C109     1.0000 0.47830  0.38820  0.38690  Biso   1.000  C
  C110     1.0000 0.52170  0.38820  0.11310  Biso   1.000  C
  C111     1.0000 0.97830  0.88820  0.38690  Biso   1.000  C
  C112     1.0000 0.02170  0.88820  0.11310  Biso   1.000  C
  H73      1.0000 0.52950  0.61170  0.67690  Biso   1.000  H
  H74      1.0000 0.47050  0.61170  0.82310  Biso   1.000  H
  H75      1.0000 0.02950  0.11170  0.67690  Biso   1.000  H
  H76      1.0000 0.97050  0.11170  0.82310  Biso   1.000  H
  H77      1.0000 0.47050  0.38830  0.32310  Biso   1.000  H
  H78      1.0000 0.52950  0.38830  0.17690  Biso   1.000  H
  H79      1.0000 0.97050  0.88830  0.32310  Biso   1.000  H
  H80      1.0000 0.02950  0.88830  0.17690  Biso   1.000  H
  C113     1.0000 0.46560  0.60380  0.54450  Biso   1.000  C
  C114     1.0000 0.53440  0.60380  0.95550  Biso   1.000  C
  C115     1.0000 0.96560  0.10380  0.54450  Biso   1.000  C
  C116     1.0000 0.03440  0.10380  0.95550  Biso   1.000  C
  C117     1.0000 0.53440  0.39620  0.45550  Biso   1.000  C
  C118     1.0000 0.46560  0.39620  0.04450  Biso   1.000  C
  C119     1.0000 0.03440  0.89620  0.45550  Biso   1.000  C
  C120     1.0000 0.96560  0.89620  0.04450  Biso   1.000  C
  H81      1.0000 0.43600  0.59930  0.56250  Biso   1.000  H
  H82      1.0000 0.56400  0.59930  0.93750  Biso   1.000  H
  H83      1.0000 0.93600  0.09930  0.56250  Biso   1.000  H
  H84      1.0000 0.06400  0.09930  0.93750  Biso   1.000  H
  H85      1.0000 0.56400  0.40070  0.43750  Biso   1.000  H
  H86      1.0000 0.43600  0.40070  0.06250  Biso   1.000  H
  H87      1.0000 0.06400  0.90070  0.43750  Biso   1.000  H
  H88      1.0000 0.93600  0.90070  0.06250  Biso   1.000  H
  C121     1.0000 0.45350  0.60240  0.44630  Biso   1.000  C
  C122     1.0000 0.54650  0.60240  0.05370  Biso   1.000  C
  C123     1.0000 0.95350  0.10240  0.44630  Biso   1.000  C
  C124     1.0000 0.04650  0.10240  0.05370  Biso   1.000  C
  C125     1.0000 0.54650  0.39760  0.55370  Biso   1.000  C
  C126     1.0000 0.45350  0.39760  0.94630  Biso   1.000  C
  C127     1.0000 0.04650  0.89760  0.55370  Biso   1.000  C
  C128     1.0000 0.95350  0.89760  0.94630  Biso   1.000  C
  C129     1.0000 0.49830  0.61150  0.42270  Biso   1.000  C
  C130     1.0000 0.50170  0.61150  0.07730  Biso   1.000  C
  C131     1.0000 0.99830  0.11150  0.42270  Biso   1.000  C
  C132     1.0000 0.00170  0.11150  0.07730  Biso   1.000  C
  C133     1.0000 0.50170  0.38850  0.57730  Biso   1.000  C
  C134     1.0000 0.49830  0.38850  0.92270  Biso   1.000  C
  C135     1.0000 0.00170  0.88850  0.57730  Biso   1.000  C
  C136     1.0000 0.99830  0.88850  0.92270  Biso   1.000  C
  H89      1.0000 0.49110  0.61190  0.35920  Biso   1.000  H
  H90      1.0000 0.50890  0.61190  0.14080  Biso   1.000  H
  H91      1.0000 0.99110  0.11190  0.35920  Biso   1.000  H
  H92      1.0000 0.00890  0.11190  0.14080  Biso   1.000  H
  H93      1.0000 0.50890  0.38810  0.64080  Biso   1.000  H
  H94      1.0000 0.49110  0.38810  0.85920  Biso   1.000  H
  H95      1.0000 0.00890  0.88810  0.64080  Biso   1.000  H
  H96      1.0000 0.99110  0.88810  0.85920  Biso   1.000  H
  C137     1.0000 0.39280  0.59360  0.37870  Biso   1.000  C
  C138     1.0000 0.60720  0.59360  0.12130  Biso   1.000  C
  C139     1.0000 0.89280  0.09360  0.37870  Biso   1.000  C
  C140     1.0000 0.10720  0.09360  0.12130  Biso   1.000  C
  C141     1.0000 0.60720  0.40640  0.62130  Biso   1.000  C
  C142     1.0000 0.39280  0.40640  0.87870  Biso   1.000  C
  C143     1.0000 0.10720  0.90640  0.62130  Biso   1.000  C
  C144     1.0000 0.89280  0.90640  0.87870  Biso   1.000  C
  Mo1      1.0000 0.17663  0.87096  0.37234  Biso   1.000  Mo
  Mo2      1.0000 0.82337  0.87096  0.12766  Biso   1.000  Mo
  Mo3      1.0000 0.67663  0.37096  0.37234  Biso   1.000  Mo
  Mo4      1.0000 0.32337  0.37096  0.12766  Biso   1.000  Mo
  Mo5      1.0000 0.82337  0.12904  0.62766  Biso   1.000  Mo
  Mo6      1.0000 0.17663  0.12904  0.87234  Biso   1.000  Mo
  Mo7      1.0000 0.32337  0.62904  0.62766  Biso   1.000  Mo
  Mo8      1.0000 0.67663  0.62904  0.87234  Biso   1.000  Mo
  Mo9      1.0000 0.16628  0.70245  0.27203  Biso   1.000  Mo
  Mo10     1.0000 0.83372  0.70245  0.22797  Biso   1.000  Mo
  Mo11     1.0000 0.66628  0.20245  0.27203  Biso   1.000  Mo
  Mo12     1.0000 0.33372  0.20245  0.22797  Biso   1.000  Mo
  Mo13     1.0000 0.83372  0.29755  0.72797  Biso   1.000  Mo
  Mo14     1.0000 0.16628  0.29755  0.77203  Biso   1.000  Mo
  Mo15     1.0000 0.33372  0.79755  0.72797  Biso   1.000  Mo
  Mo16     1.0000 0.66628  0.79755  0.77203  Biso   1.000  Mo
  Mo17     1.0000 0.26698  0.57247  0.36603  Biso   1.000  Mo
  Mo18     1.0000 0.73302  0.57247  0.13397  Biso   1.000  Mo
  Mo19     1.0000 0.76698  0.07247  0.36603  Biso   1.000  Mo
  Mo20     1.0000 0.23302  0.07247  0.13397  Biso   1.000  Mo
  Mo21     1.0000 0.73302  0.42753  0.63397  Biso   1.000  Mo
  Mo22     1.0000 0.26698  0.42753  0.86603  Biso   1.000  Mo
  Mo23     1.0000 0.23302  0.92753  0.63397  Biso   1.000  Mo
  Mo24     1.0000 0.76698  0.92753  0.86603  Biso   1.000  Mo
  O33      1.0000 0.19111  0.96600  0.35170  Biso   1.000  O
  O34      1.0000 0.80889  0.96600  0.14830  Biso   1.000  O
  O35      1.0000 0.69111  0.46600  0.35170  Biso   1.000  O
  O36      1.0000 0.30889  0.46600  0.14830  Biso   1.000  O
  O37      1.0000 0.80889  0.03400  0.64830  Biso   1.000  O
  O38      1.0000 0.19111  0.03400  0.85170  Biso   1.000  O
  O39      1.0000 0.30889  0.53400  0.64830  Biso   1.000  O
  O40      1.0000 0.69111  0.53400  0.85170  Biso   1.000  O
  O41      1.0000 0.10502  0.87110  0.34070  Biso   1.000  O
  O42      1.0000 0.89498  0.87110  0.15930  Biso   1.000  O
  O43      1.0000 0.60502  0.37110  0.34070  Biso   1.000  O
  O44      1.0000 0.39498  0.37110  0.15930  Biso   1.000  O
  O45      1.0000 0.89498  0.12890  0.65930  Biso   1.000  O
  O46      1.0000 0.10502  0.12890  0.84070  Biso   1.000  O
  O47      1.0000 0.39498  0.62890  0.65930  Biso   1.000  O
  O48      1.0000 0.60502  0.62890  0.84070  Biso   1.000  O
  O49      1.0000 0.17588  0.81580  0.26560  Biso   1.000  O
  O50      1.0000 0.82412  0.81580  0.23440  Biso   1.000  O
  O51      1.0000 0.67588  0.31580  0.26560  Biso   1.000  O
  O52      1.0000 0.32412  0.31580  0.23440  Biso   1.000  O
  O53      1.0000 0.82412  0.18420  0.73440  Biso   1.000  O
  O54      1.0000 0.17588  0.18420  0.76560  Biso   1.000  O
  O55      1.0000 0.32412  0.68420  0.73440  Biso   1.000  O
  O56      1.0000 0.67588  0.68420  0.76560  Biso   1.000  O
  O57      1.0000 0.09768  0.69720  0.25750  Biso   1.000  O
  O58      1.0000 0.90232  0.69720  0.24250  Biso   1.000  O
  O59      1.0000 0.59768  0.19720  0.25750  Biso   1.000  O
  O60      1.0000 0.40232  0.19720  0.24250  Biso   1.000  O
  O61      1.0000 0.90232  0.30280  0.74250  Biso   1.000  O
  O62      1.0000 0.09768  0.30280  0.75750  Biso   1.000  O
  O63      1.0000 0.40232  0.80280  0.74250  Biso   1.000  O
  O64      1.0000 0.59768  0.80280  0.75750  Biso   1.000  O
  O65      1.0000 0.16300  0.68100  0.16280  Biso   1.000  O
  O66      1.0000 0.83700  0.68100  0.33720  Biso   1.000  O
  O67      1.0000 0.66300  0.18100  0.16280  Biso   1.000  O
  O68      1.0000 0.33700  0.18100  0.33720  Biso   1.000  O
  O69      1.0000 0.83700  0.31900  0.83720  Biso   1.000  O
  O70      1.0000 0.16300  0.31900  0.66280  Biso   1.000  O
  O71      1.0000 0.33700  0.81900  0.83720  Biso   1.000  O
  O72      1.0000 0.66300  0.81900  0.66280  Biso   1.000  O
  O73      1.0000 0.19173  0.59850  0.33460  Biso   1.000  O
  O74      1.0000 0.80827  0.59850  0.16540  Biso   1.000  O
  O75      1.0000 0.69173  0.09850  0.33460  Biso   1.000  O
  O76      1.0000 0.30827  0.09850  0.16540  Biso   1.000  O
  O77      1.0000 0.80827  0.40150  0.66540  Biso   1.000  O
  O78      1.0000 0.19173  0.40150  0.83460  Biso   1.000  O
  O79      1.0000 0.30827  0.90150  0.66540  Biso   1.000  O
  O80      1.0000 0.69173  0.90150  0.83460  Biso   1.000  O
  O81      1.0000 0.26362  0.56010  0.25200  Biso   1.000  O
  O82      1.0000 0.73638  0.56010  0.24800  Biso   1.000  O
  O83      1.0000 0.76362  0.06010  0.25200  Biso   1.000  O
  O84      1.0000 0.23638  0.06010  0.24800  Biso   1.000  O
  O85      1.0000 0.73638  0.43990  0.74800  Biso   1.000  O
  O86      1.0000 0.26362  0.43990  0.75200  Biso   1.000  O
  O87      1.0000 0.23638  0.93990  0.74800  Biso   1.000  O
  O88      1.0000 0.76362  0.93990  0.75200  Biso   1.000  O
  O89      1.0000 0.27028  0.47960  0.40880  Biso   1.000  O
  O90      1.0000 0.72972  0.47960  0.09120  Biso   1.000  O
  O91      1.0000 0.77028  0.97960  0.40880  Biso   1.000  O
  O92      1.0000 0.22972  0.97960  0.09120  Biso   1.000  O
  O93      1.0000 0.72972  0.52040  0.59120  Biso   1.000  O
  O94      1.0000 0.27028  0.52040  0.90880  Biso   1.000  O
  O95      1.0000 0.22972  0.02040  0.59120  Biso   1.000  O
  O96      1.0000 0.77028  0.02040  0.90880  Biso   1.000  O
  O97      1.0000 0.20348  0.86950  0.51030  Biso   1.000  O
  O98      1.0000 0.79652  0.86950  0.98970  Biso   1.000  O
  O99      1.0000 0.70348  0.36950  0.51030  Biso   1.000  O
  O100     1.0000 0.29652  0.36950  0.98970  Biso   1.000  O
  O101     1.0000 0.79652  0.13050  0.48970  Biso   1.000  O
  O102     1.0000 0.20348  0.13050  0.01030  Biso   1.000  O
  O103     1.0000 0.29652  0.63050  0.48970  Biso   1.000  O
  O104     1.0000 0.70348  0.63050  0.01030  Biso   1.000  O
  Mo25     1.0000 0.30051  0.75477  0.45395  Biso   1.000  Mo
  Mo26     1.0000 0.69949  0.75477  0.04605  Biso   1.000  Mo
  Mo27     1.0000 0.80051  0.25477  0.45395  Biso   1.000  Mo
  Mo28     1.0000 0.19949  0.25477  0.04605  Biso   1.000  Mo
  Mo29     1.0000 0.69949  0.24523  0.54605  Biso   1.000  Mo
  Mo30     1.0000 0.30051  0.24523  0.95395  Biso   1.000  Mo
  Mo31     1.0000 0.19949  0.74523  0.54605  Biso   1.000  Mo
  Mo32     1.0000 0.80051  0.74523  0.95395  Biso   1.000  Mo
  O105     1.0000 0.27722  0.85230  0.42210  Biso   1.000  O
  O106     1.0000 0.72278  0.85230  0.07790  Biso   1.000  O
  O107     1.0000 0.77722  0.35230  0.42210  Biso   1.000  O
  O108     1.0000 0.22278  0.35230  0.07790  Biso   1.000  O
  O109     1.0000 0.72278  0.14770  0.57790  Biso   1.000  O
  O110     1.0000 0.27722  0.14770  0.92210  Biso   1.000  O
  O111     1.0000 0.22278  0.64770  0.57790  Biso   1.000  O
  O112     1.0000 0.77722  0.64770  0.92210  Biso   1.000  O
  O113     1.0000 0.26449  0.70370  0.33570  Biso   1.000  O
  O114     1.0000 0.73551  0.70370  0.16430  Biso   1.000  O
  O115     1.0000 0.76449  0.20370  0.33570  Biso   1.000  O
  O116     1.0000 0.23551  0.20370  0.16430  Biso   1.000  O
  O117     1.0000 0.73551  0.29630  0.66430  Biso   1.000  O
  O118     1.0000 0.26449  0.29630  0.83570  Biso   1.000  O
  O119     1.0000 0.23551  0.79630  0.66430  Biso   1.000  O
  O120     1.0000 0.76449  0.79630  0.83570  Biso   1.000  O
  O121     1.0000 0.37076  0.75660  0.47730  Biso   1.000  O
  O122     1.0000 0.62924  0.75660  0.02270  Biso   1.000  O
  O123     1.0000 0.87076  0.25660  0.47730  Biso   1.000  O
  O124     1.0000 0.12924  0.25660  0.02270  Biso   1.000  O
  O125     1.0000 0.62924  0.24340  0.52270  Biso   1.000  O
  O126     1.0000 0.37076  0.24340  0.97730  Biso   1.000  O
  O127     1.0000 0.12924  0.74340  0.52270  Biso   1.000  O
  O128     1.0000 0.87076  0.74340  0.97730  Biso   1.000  O
  O129     1.0000 0.30151  0.75210  0.57920  Biso   1.000  O
  O130     1.0000 0.69849  0.75210  0.92080  Biso   1.000  O
  O131     1.0000 0.80151  0.25210  0.57920  Biso   1.000  O
  O132     1.0000 0.19849  0.25210  0.92080  Biso   1.000  O
  O133     1.0000 0.69849  0.24790  0.42080  Biso   1.000  O
  O134     1.0000 0.30151  0.24790  0.07920  Biso   1.000  O
  O135     1.0000 0.19849  0.74790  0.42080  Biso   1.000  O
  O136     1.0000 0.80151  0.74790  0.07920  Biso   1.000  O
  O137     1.0000 0.72370  0.74130  0.33520  Biso   1.000  O
  O138     1.0000 0.27630  0.74130  0.16480  Biso   1.000  O
  O139     1.0000 0.22370  0.24130  0.33520  Biso   1.000  O
  O140     1.0000 0.77630  0.24130  0.16480  Biso   1.000  O
  O141     1.0000 0.27630  0.25870  0.66480  Biso   1.000  O
  O142     1.0000 0.72370  0.25870  0.83520  Biso   1.000  O
  O143     1.0000 0.77630  0.75870  0.66480  Biso   1.000  O
  O144     1.0000 0.22370  0.75870  0.83520  Biso   1.000  O
  H97      1.0000 0.75620  0.72490  0.32570  Biso   1.000  H
  H98      1.0000 0.24380  0.72490  0.17430  Biso   1.000  H
  H99      1.0000 0.25620  0.22490  0.32570  Biso   1.000  H
  H100     1.0000 0.74380  0.22490  0.17430  Biso   1.000  H
  H101     1.0000 0.24380  0.27510  0.67430  Biso   1.000  H
  H102     1.0000 0.75620  0.27510  0.82570  Biso   1.000  H
  H103     1.0000 0.74380  0.77510  0.67430  Biso   1.000  H
  H104     1.0000 0.25620  0.77510  0.82570  Biso   1.000  H
  H105     1.0000 0.71110  0.79180  0.30650  Biso   1.000  H
  H106     1.0000 0.28890  0.79180  0.19350  Biso   1.000  H
  H107     1.0000 0.21110  0.29180  0.30650  Biso   1.000  H
  H108     1.0000 0.78890  0.29180  0.19350  Biso   1.000  H
  H109     1.0000 0.28890  0.20820  0.69350  Biso   1.000  H
  H110     1.0000 0.71110  0.20820  0.80650  Biso   1.000  H
  H111     1.0000 0.78890  0.70820  0.69350  Biso   1.000  H
  H112     1.0000 0.21110  0.70820  0.80650  Biso   1.000  H
  O145     1.0000 0.29060  0.88610  0.25690  Biso   1.000  O
  O146     1.0000 0.70940  0.88610  0.24310  Biso   1.000  O
  O147     1.0000 0.79060  0.38610  0.25690  Biso   1.000  O
  O148     1.0000 0.20940  0.38610  0.24310  Biso   1.000  O
  O149     1.0000 0.70940  0.11390  0.74310  Biso   1.000  O
  O150     1.0000 0.29060  0.11390  0.75690  Biso   1.000  O
  O151     1.0000 0.20940  0.61390  0.74310  Biso   1.000  O
  O152     1.0000 0.79060  0.61390  0.75690  Biso   1.000  O
  H113     1.0000 0.30900  0.92730  0.25670  Biso   1.000  H
  H114     1.0000 0.69100  0.92730  0.24330  Biso   1.000  H
  H115     1.0000 0.80900  0.42730  0.25670  Biso   1.000  H
  H116     1.0000 0.19100  0.42730  0.24330  Biso   1.000  H
  H117     1.0000 0.69100  0.07270  0.74330  Biso   1.000  H
  H118     1.0000 0.30900  0.07270  0.75670  Biso   1.000  H
  H119     1.0000 0.19100  0.57270  0.74330  Biso   1.000  H
  H120     1.0000 0.80900  0.57270  0.75670  Biso   1.000  H
  H121     1.0000 0.31370  0.84780  0.27030  Biso   1.000  H
  H122     1.0000 0.68630  0.84780  0.22970  Biso   1.000  H
  H123     1.0000 0.81370  0.34780  0.27030  Biso   1.000  H
  H124     1.0000 0.18630  0.34780  0.22970  Biso   1.000  H
  H125     1.0000 0.68630  0.15220  0.72970  Biso   1.000  H
  H126     1.0000 0.31370  0.15220  0.77030  Biso   1.000  H
  H127     1.0000 0.18630  0.65220  0.72970  Biso   1.000  H
  H128     1.0000 0.81370  0.65220  0.77030  Biso   1.000  H
  O153     1.0000 0.43920  0.74240  0.22720  Biso   1.000  O
  O154     1.0000 0.56080  0.74240  0.27280  Biso   1.000  O
  O155     1.0000 0.93920  0.24240  0.22720  Biso   1.000  O
  O156     1.0000 0.06080  0.24240  0.27280  Biso   1.000  O
  O157     1.0000 0.56080  0.25760  0.77280  Biso   1.000  O
  O158     1.0000 0.43920  0.25760  0.72720  Biso   1.000  O
  O159     1.0000 0.06080  0.75760  0.77280  Biso   1.000  O
  O160     1.0000 0.93920  0.75760  0.72720  Biso   1.000  O
  O161     1.0000 0.50000  0.74100  0.25000  Biso   1.000  O
  O162     1.0000 0.00000  0.24100  0.25000  Biso   1.000  O
  O163     1.0000 0.50000  0.25900  0.75000  Biso   1.000  O
  O164     1.0000 0.00000  0.75900  0.75000  Biso   1.000  O
