data_image0
_cell_length_a       7.681
_cell_length_b       8.1954
_cell_length_c       11.1174
_cell_angle_alpha    104.754
_cell_angle_beta     93.668
_cell_angle_gamma    100.439

_symmetry_space_group_name_H-M    "P 1"
_symmetry_int_tables_number       1

loop_
  _symmetry_equiv_pos_as_xyz
  'x, y, z'

loop_
  _atom_site_label
  _atom_site_occupancy
  _atom_site_fract_x
  _atom_site_fract_y
  _atom_site_fract_z
  _atom_site_thermal_displace_type
  _atom_site_B_iso_or_equiv
  _atom_site_type_symbol
  Mo1      1.0000 0.15256  0.11964  0.91034  Biso   1.000  Mo
  Mo2      1.0000 0.84744  0.88036  0.08966  Biso   1.000  Mo
  Mo3      1.0000 0.57587  0.15210  0.93289  Biso   1.000  Mo
  Mo4      1.0000 0.42413  0.84790  0.06711  Biso   1.000  Mo
  Cu1      1.0000 0.00000  0.50000  0.00000  Biso   1.000  Cu
  O1       1.0000 0.04130  0.28190  0.89270  Biso   1.000  O
  O2       1.0000 0.95870  0.71810  0.10730  Biso   1.000  O
  O3       1.0000 0.38550  0.25090  0.89270  Biso   1.000  O
  O4       1.0000 0.61450  0.74910  0.10730  Biso   1.000  O
  O5       1.0000 0.35320  0.02060  0.98860  Biso   1.000  O
  O6       1.0000 0.64680  0.97940  0.01140  Biso   1.000  O
  O7       1.0000 0.72750  0.32800  0.02230  Biso   1.000  O
  O8       1.0000 0.27250  0.67200  0.97770  Biso   1.000  O
  O9       1.0000 0.64690  0.08150  0.79070  Biso   1.000  O
  O10      1.0000 0.35310  0.91850  0.20930  Biso   1.000  O
  O11      1.0000 0.10740  0.97420  0.76790  Biso   1.000  O
  O12      1.0000 0.89260  0.02580  0.23210  Biso   1.000  O
  O13      1.0000 0.00000  0.00000  0.00000  Biso   1.000  O
  N1       1.0000 0.20180  0.30970  0.12340  Biso   1.000  N
  N2       1.0000 0.79820  0.69030  0.87660  Biso   1.000  N
  N3       1.0000 0.12700  0.45460  0.14400  Biso   1.000  N
  N4       1.0000 0.87300  0.54540  0.85600  Biso   1.000  N
  N5       1.0000 0.21710  0.42590  0.32480  Biso   1.000  N
  N6       1.0000 0.78290  0.57410  0.67520  Biso   1.000  N
  N7       1.0000 0.29850  0.31400  0.48550  Biso   1.000  N
  N8       1.0000 0.70150  0.68600  0.51450  Biso   1.000  N
  C1       1.0000 0.25230  0.29440  0.23240  Biso   1.000  C
  C2       1.0000 0.74770  0.70560  0.76760  Biso   1.000  C
  H1       1.0000 0.30520  0.20630  0.24600  Biso   1.000  H
  H2       1.0000 0.69480  0.79370  0.75400  Biso   1.000  H
  C3       1.0000 0.13890  0.52340  0.26390  Biso   1.000  C
  C4       1.0000 0.86110  0.47660  0.73610  Biso   1.000  C
  H3       1.0000 0.10030  0.62320  0.30200  Biso   1.000  H
  H4       1.0000 0.89970  0.37680  0.69800  Biso   1.000  H
  C5       1.0000 0.25270  0.44770  0.45650  Biso   1.000  C
  C6       1.0000 0.74730  0.55230  0.54350  Biso   1.000  C
  C7       1.0000 0.23520  0.59890  0.54140  Biso   1.000  C
  C8       1.0000 0.76480  0.40110  0.45860  Biso   1.000  C
  H5       1.0000 0.20120  0.68910  0.51560  Biso   1.000  H
  H6       1.0000 0.79880  0.31090  0.48440  Biso   1.000  H
  C9       1.0000 0.27090  0.60760  0.66620  Biso   1.000  C
  C10      1.0000 0.72910  0.39240  0.33380  Biso   1.000  C
  H7       1.0000 0.26190  0.70620  0.72720  Biso   1.000  H
  H8       1.0000 0.73810  0.29380  0.27280  Biso   1.000  H
  C11      1.0000 0.31960  0.47140  0.70110  Biso   1.000  C
  C12      1.0000 0.68040  0.52860  0.29890  Biso   1.000  C
  H9       1.0000 0.34230  0.47560  0.78510  Biso   1.000  H
  H10      1.0000 0.65770  0.52440  0.21490  Biso   1.000  H
  C13      1.0000 0.33380  0.32840  0.60790  Biso   1.000  C
  C14      1.0000 0.66620  0.67160  0.39210  Biso   1.000  C
  H11      1.0000 0.36980  0.23730  0.63120  Biso   1.000  H
  H12      1.0000 0.63020  0.76270  0.36880  Biso   1.000  H
  O14      1.0000 0.11370  0.90230  0.41790  Biso   1.000  O
  O15      1.0000 0.88630  0.09770  0.58210  Biso   1.000  O
  O16      1.0000 0.50000  0.00000  0.50000  Biso   1.000  O
