data_image0
_cell_length_a       10.473
_cell_length_b       7.625
_cell_length_c       9.519
_cell_angle_alpha    90
_cell_angle_beta     98.3
_cell_angle_gamma    90

_symmetry_space_group_name_H-M    "P 1"
_symmetry_int_tables_number       1

loop_
  _symmetry_equiv_pos_as_xyz
  'x, y, z'

loop_
  _atom_site_label
  _atom_site_occupancy
  _atom_site_fract_x
  _atom_site_fract_y
  _atom_site_fract_z
  _atom_site_thermal_displace_type
  _atom_site_B_iso_or_equiv
  _atom_site_type_symbol
  Cu1      1.0000 0.79393  0.12670  0.08429  Biso   1.000  Cu
  Cu2      1.0000 0.70607  0.62670  0.41571  Biso   1.000  Cu
  Cu3      1.0000 0.20607  0.87330  0.91571  Biso   1.000  Cu
  Cu4      1.0000 0.29393  0.37330  0.58429  Biso   1.000  Cu
  N1       1.0000 0.59310  0.68490  0.55130  Biso   1.000  N
  N2       1.0000 0.90690  0.18490  0.94870  Biso   1.000  N
  N3       1.0000 0.40690  0.31510  0.44870  Biso   1.000  N
  N4       1.0000 0.09310  0.81510  0.05130  Biso   1.000  N
  N5       1.0000 0.82920  0.82270  0.45740  Biso   1.000  N
  N6       1.0000 0.67080  0.32270  0.04260  Biso   1.000  N
  N7       1.0000 0.17080  0.17730  0.54260  Biso   1.000  N
  N8       1.0000 0.32920  0.67730  0.95740  Biso   1.000  N
  N9       1.0000 0.62010  0.88810  0.13770  Biso   1.000  N
  N10      1.0000 0.87990  0.38810  0.36230  Biso   1.000  N
  N11      1.0000 0.37990  0.11190  0.86230  Biso   1.000  N
  N12      1.0000 0.12010  0.61190  0.63770  Biso   1.000  N
  O1       1.0000 0.41070  0.57430  0.63150  Biso   1.000  O
  O2       1.0000 0.08930  0.07430  0.86850  Biso   1.000  O
  O3       1.0000 0.58930  0.42570  0.36850  Biso   1.000  O
  O4       1.0000 0.91070  0.92570  0.13150  Biso   1.000  O
  O5       1.0000 0.68040  0.01280  0.20970  Biso   1.000  O
  O6       1.0000 0.81960  0.51280  0.29030  Biso   1.000  O
  O7       1.0000 0.31960  0.98720  0.79030  Biso   1.000  O
  O8       1.0000 0.18040  0.48720  0.70970  Biso   1.000  O
  O9       1.0000 0.56770  0.77400  0.20000  Biso   1.000  O
  O10      1.0000 0.93230  0.27400  0.30000  Biso   1.000  O
  O11      1.0000 0.43230  0.22600  0.80000  Biso   1.000  O
  O12      1.0000 0.06770  0.72600  0.70000  Biso   1.000  O
  O13      1.0000 0.61720  0.88780  0.00830  Biso   1.000  O
  O14      1.0000 0.88280  0.38780  0.49170  Biso   1.000  O
  O15      1.0000 0.38280  0.11220  0.99170  Biso   1.000  O
  O16      1.0000 0.11720  0.61220  0.50830  Biso   1.000  O
  C1       1.0000 0.49970  0.57460  0.55310  Biso   1.000  C
  C2       1.0000 0.00030  0.07460  0.94690  Biso   1.000  C
  C3       1.0000 0.50030  0.42540  0.44690  Biso   1.000  C
  C4       1.0000 0.99970  0.92540  0.05310  Biso   1.000  C
  C5       1.0000 0.60300  0.83540  0.65000  Biso   1.000  C
  C6       1.0000 0.89700  0.33540  0.85000  Biso   1.000  C
  C7       1.0000 0.39700  0.16460  0.35000  Biso   1.000  C
  C8       1.0000 0.10300  0.66460  0.15000  Biso   1.000  C
  C9       1.0000 0.79840  0.96100  0.55480  Biso   1.000  C
  C10      1.0000 0.70160  0.46100  0.94520  Biso   1.000  C
  C11      1.0000 0.20160  0.03900  0.44520  Biso   1.000  C
  C12      1.0000 0.29840  0.53900  0.05480  Biso   1.000  C
  C13      1.0000 0.74450  0.90000  0.67710  Biso   1.000  C
  C14      1.0000 0.75550  0.40000  0.82290  Biso   1.000  C
  C15      1.0000 0.25550  0.10000  0.32290  Biso   1.000  C
  C16      1.0000 0.24450  0.60000  0.17710  Biso   1.000  C
  C17      1.0000 0.81900  0.48200  0.90600  Biso   1.000  C
  C18      1.0000 0.68100  0.98200  0.59400  Biso   1.000  C
  C19      1.0000 0.18100  0.51800  0.09400  Biso   1.000  C
  C20      1.0000 0.31900  0.01800  0.40600  Biso   1.000  C
  H1       1.0000 0.84630  0.89460  0.36410  Biso   1.000  H
  H2       1.0000 0.65370  0.39460  0.13590  Biso   1.000  H
  H3       1.0000 0.15370  0.10540  0.63590  Biso   1.000  H
  H4       1.0000 0.34630  0.60540  0.86410  Biso   1.000  H
  H5       1.0000 0.90590  0.78540  0.49910  Biso   1.000  H
  H6       1.0000 0.59410  0.28540  0.00090  Biso   1.000  H
  H7       1.0000 0.09410  0.21460  0.50090  Biso   1.000  H
  H8       1.0000 0.40590  0.71460  0.99910  Biso   1.000  H
  H9       1.0000 0.52880  0.90790  0.60780  Biso   1.000  H
  H10      1.0000 0.97120  0.40790  0.89220  Biso   1.000  H
  H11      1.0000 0.47120  0.09210  0.39220  Biso   1.000  H
  H12      1.0000 0.02880  0.59210  0.10780  Biso   1.000  H
  H13      1.0000 0.58880  0.79500  0.75090  Biso   1.000  H
  H14      1.0000 0.91120  0.29500  0.74910  Biso   1.000  H
  H15      1.0000 0.41120  0.20500  0.24910  Biso   1.000  H
  H16      1.0000 0.08880  0.70500  0.25090  Biso   1.000  H
  H17      1.0000 0.80440  0.79380  0.72660  Biso   1.000  H
  H18      1.0000 0.69560  0.29380  0.77340  Biso   1.000  H
  H19      1.0000 0.19560  0.20620  0.27340  Biso   1.000  H
  H20      1.0000 0.30440  0.70620  0.22660  Biso   1.000  H
  H21      1.0000 0.73660  0.00420  0.74810  Biso   1.000  H
  H22      1.0000 0.76340  0.50420  0.75190  Biso   1.000  H
  H23      1.0000 0.26340  0.99580  0.25190  Biso   1.000  H
  H24      1.0000 0.23660  0.49580  0.24810  Biso   1.000  H
  H25      1.0000 0.87750  0.03070  0.58710  Biso   1.000  H
  H26      1.0000 0.62250  0.53070  0.91290  Biso   1.000  H
  H27      1.0000 0.12250  0.96930  0.41290  Biso   1.000  H
  H28      1.0000 0.37750  0.46930  0.08710  Biso   1.000  H
  H29      1.0000 0.73140  0.04120  0.50030  Biso   1.000  H
  H30      1.0000 0.76860  0.54120  0.99970  Biso   1.000  H
  H31      1.0000 0.26860  0.95880  0.49970  Biso   1.000  H
  H32      1.0000 0.23140  0.45880  0.00030  Biso   1.000  H
