data_image0
_cell_length_a       15.126
_cell_length_b       13.709
_cell_length_c       8.659
_cell_angle_alpha    90
_cell_angle_beta     93.79
_cell_angle_gamma    90

_symmetry_space_group_name_H-M    "P 1"
_symmetry_int_tables_number       1

loop_
  _symmetry_equiv_pos_as_xyz
  'x, y, z'

loop_
  _atom_site_label
  _atom_site_occupancy
  _atom_site_fract_x
  _atom_site_fract_y
  _atom_site_fract_z
  _atom_site_thermal_displace_type
  _atom_site_B_iso_or_equiv
  _atom_site_type_symbol
  Cu1      1.0000 0.31980  0.28150  0.43160  Biso   1.000  Cu
  Cu2      1.0000 0.81980  0.78150  0.43160  Biso   1.000  Cu
  Cu3      1.0000 0.68020  0.28150  0.06840  Biso   1.000  Cu
  Cu4      1.0000 0.18020  0.78150  0.06840  Biso   1.000  Cu
  Cu5      1.0000 0.68020  0.71850  0.56840  Biso   1.000  Cu
  Cu6      1.0000 0.18020  0.21850  0.56840  Biso   1.000  Cu
  Cu7      1.0000 0.31980  0.71850  0.93160  Biso   1.000  Cu
  Cu8      1.0000 0.81980  0.21850  0.93160  Biso   1.000  Cu
  C1       1.0000 0.18900  0.42360  0.50920  Biso   1.000  C
  C2       1.0000 0.68900  0.92360  0.50920  Biso   1.000  C
  C3       1.0000 0.81100  0.42360  0.99080  Biso   1.000  C
  C4       1.0000 0.31100  0.92360  0.99080  Biso   1.000  C
  C5       1.0000 0.81100  0.57640  0.49080  Biso   1.000  C
  C6       1.0000 0.31100  0.07640  0.49080  Biso   1.000  C
  C7       1.0000 0.18900  0.57640  0.00920  Biso   1.000  C
  C8       1.0000 0.68900  0.07640  0.00920  Biso   1.000  C
  C9       1.0000 0.15560  0.52640  0.51770  Biso   1.000  C
  C10      1.0000 0.65560  0.02640  0.51770  Biso   1.000  C
  C11      1.0000 0.84440  0.52640  0.98230  Biso   1.000  C
  C12      1.0000 0.34440  0.02640  0.98230  Biso   1.000  C
  C13      1.0000 0.84440  0.47360  0.48230  Biso   1.000  C
  C14      1.0000 0.34440  0.97360  0.48230  Biso   1.000  C
  C15      1.0000 0.15560  0.47360  0.01770  Biso   1.000  C
  C16      1.0000 0.65560  0.97360  0.01770  Biso   1.000  C
  O1       1.0000 0.26010  0.40940  0.44920  Biso   1.000  O
  O2       1.0000 0.76010  0.90940  0.44920  Biso   1.000  O
  O3       1.0000 0.73990  0.40940  0.05080  Biso   1.000  O
  O4       1.0000 0.23990  0.90940  0.05080  Biso   1.000  O
  O5       1.0000 0.73990  0.59060  0.55080  Biso   1.000  O
  O6       1.0000 0.23990  0.09060  0.55080  Biso   1.000  O
  O7       1.0000 0.26010  0.59060  0.94920  Biso   1.000  O
  O8       1.0000 0.76010  0.09060  0.94920  Biso   1.000  O
  O9       1.0000 0.14280  0.35670  0.56510  Biso   1.000  O
  O10      1.0000 0.64280  0.85670  0.56510  Biso   1.000  O
  O11      1.0000 0.85720  0.35670  0.93490  Biso   1.000  O
  O12      1.0000 0.35720  0.85670  0.93490  Biso   1.000  O
  O13      1.0000 0.85720  0.64330  0.43490  Biso   1.000  O
  O14      1.0000 0.35720  0.14330  0.43490  Biso   1.000  O
  O15      1.0000 0.14280  0.64330  0.06510  Biso   1.000  O
  O16      1.0000 0.64280  0.14330  0.06510  Biso   1.000  O
  C17      1.0000 0.16880  0.22260  0.23910  Biso   1.000  C
  C18      1.0000 0.66880  0.72260  0.23910  Biso   1.000  C
  C19      1.0000 0.83120  0.22260  0.26090  Biso   1.000  C
  C20      1.0000 0.33120  0.72260  0.26090  Biso   1.000  C
  C21      1.0000 0.83120  0.77740  0.76090  Biso   1.000  C
  C22      1.0000 0.33120  0.27740  0.76090  Biso   1.000  C
  C23      1.0000 0.16880  0.77740  0.73910  Biso   1.000  C
  C24      1.0000 0.66880  0.27740  0.73910  Biso   1.000  C
  C25      1.0000 0.12080  0.20980  0.08540  Biso   1.000  C
  C26      1.0000 0.62080  0.70980  0.08540  Biso   1.000  C
  C27      1.0000 0.87920  0.20980  0.41460  Biso   1.000  C
  C28      1.0000 0.37920  0.70980  0.41460  Biso   1.000  C
  C29      1.0000 0.87920  0.79020  0.91460  Biso   1.000  C
  C30      1.0000 0.37920  0.29020  0.91460  Biso   1.000  C
  C31      1.0000 0.12080  0.79020  0.58540  Biso   1.000  C
  C32      1.0000 0.62080  0.29020  0.58540  Biso   1.000  C
  O17      1.0000 0.24650  0.25640  0.24190  Biso   1.000  O
  O18      1.0000 0.74650  0.75640  0.24190  Biso   1.000  O
  O19      1.0000 0.75350  0.25640  0.25810  Biso   1.000  O
  O20      1.0000 0.25350  0.75640  0.25810  Biso   1.000  O
  O21      1.0000 0.75350  0.74360  0.75810  Biso   1.000  O
  O22      1.0000 0.25350  0.24360  0.75810  Biso   1.000  O
  O23      1.0000 0.24650  0.74360  0.74190  Biso   1.000  O
  O24      1.0000 0.74650  0.24360  0.74190  Biso   1.000  O
  O25      1.0000 0.12920  0.20340  0.35650  Biso   1.000  O
  O26      1.0000 0.62920  0.70340  0.35650  Biso   1.000  O
  O27      1.0000 0.87080  0.20340  0.14350  Biso   1.000  O
  O28      1.0000 0.37080  0.70340  0.14350  Biso   1.000  O
  O29      1.0000 0.87080  0.79660  0.64350  Biso   1.000  O
  O30      1.0000 0.37080  0.29660  0.64350  Biso   1.000  O
  O31      1.0000 0.12920  0.79660  0.85650  Biso   1.000  O
  O32      1.0000 0.62920  0.29660  0.85650  Biso   1.000  O
  N1       1.0000 0.43340  0.34490  0.31710  Biso   1.000  N
  N2       1.0000 0.93340  0.84490  0.31710  Biso   1.000  N
  N3       1.0000 0.56660  0.34490  0.18290  Biso   1.000  N
  N4       1.0000 0.06660  0.84490  0.18290  Biso   1.000  N
  N5       1.0000 0.56660  0.65510  0.68290  Biso   1.000  N
  N6       1.0000 0.06660  0.15510  0.68290  Biso   1.000  N
  N7       1.0000 0.43340  0.65510  0.81710  Biso   1.000  N
  N8       1.0000 0.93340  0.15510  0.81710  Biso   1.000  N
  C33      1.0000 0.50000  0.29960  0.25000  Biso   1.000  C
  C34      1.0000 0.00000  0.79960  0.25000  Biso   1.000  C
  C35      1.0000 0.50000  0.70040  0.75000  Biso   1.000  C
  C36      1.0000 0.00000  0.20040  0.75000  Biso   1.000  C
  N9       1.0000 0.50000  0.20280  0.25000  Biso   1.000  N
  N10      1.0000 0.00000  0.70280  0.25000  Biso   1.000  N
  N11      1.0000 0.50000  0.79720  0.75000  Biso   1.000  N
  N12      1.0000 0.00000  0.29720  0.75000  Biso   1.000  N
  C37      1.0000 0.43630  0.44150  0.31650  Biso   1.000  C
  C38      1.0000 0.93630  0.94150  0.31650  Biso   1.000  C
  C39      1.0000 0.56370  0.44150  0.18350  Biso   1.000  C
  C40      1.0000 0.06370  0.94150  0.18350  Biso   1.000  C
  C41      1.0000 0.56370  0.55850  0.68350  Biso   1.000  C
  C42      1.0000 0.06370  0.05850  0.68350  Biso   1.000  C
  C43      1.0000 0.43630  0.55850  0.81650  Biso   1.000  C
  C44      1.0000 0.93630  0.05850  0.81650  Biso   1.000  C
  C45      1.0000 0.50000  0.49520  0.25000  Biso   1.000  C
  C46      1.0000 0.00000  0.99520  0.25000  Biso   1.000  C
  C47      1.0000 0.50000  0.50480  0.75000  Biso   1.000  C
  C48      1.0000 0.00000  0.00480  0.75000  Biso   1.000  C
  H1       1.0000 0.11300  0.52200  0.62700  Biso   1.000  H
  H2       1.0000 0.61300  0.02200  0.62700  Biso   1.000  H
  H3       1.0000 0.88700  0.52200  0.87300  Biso   1.000  H
  H4       1.0000 0.38700  0.02200  0.87300  Biso   1.000  H
  H5       1.0000 0.88700  0.47800  0.37300  Biso   1.000  H
  H6       1.0000 0.38700  0.97800  0.37300  Biso   1.000  H
  H7       1.0000 0.11300  0.47800  0.12700  Biso   1.000  H
  H8       1.0000 0.61300  0.97800  0.12700  Biso   1.000  H
  H9       1.0000 0.15900  0.24900  0.99900  Biso   1.000  H
  H10      1.0000 0.65900  0.74900  0.99900  Biso   1.000  H
  H11      1.0000 0.84100  0.24900  0.50100  Biso   1.000  H
  H12      1.0000 0.34100  0.74900  0.50100  Biso   1.000  H
  H13      1.0000 0.84100  0.75100  0.00100  Biso   1.000  H
  H14      1.0000 0.34100  0.25100  0.00100  Biso   1.000  H
  H15      1.0000 0.15900  0.75100  0.49900  Biso   1.000  H
  H16      1.0000 0.65900  0.25100  0.49900  Biso   1.000  H
  H17      1.0000 0.08300  0.14100  0.05900  Biso   1.000  H
  H18      1.0000 0.58300  0.64100  0.05900  Biso   1.000  H
  H19      1.0000 0.91700  0.14100  0.44100  Biso   1.000  H
  H20      1.0000 0.41700  0.64100  0.44100  Biso   1.000  H
  H21      1.0000 0.91700  0.85900  0.94100  Biso   1.000  H
  H22      1.0000 0.41700  0.35900  0.94100  Biso   1.000  H
  H23      1.0000 0.08300  0.85900  0.55900  Biso   1.000  H
  H24      1.0000 0.58300  0.35900  0.55900  Biso   1.000  H
  H25      1.0000 0.47000  0.18600  0.28900  Biso   1.000  H
  H26      1.0000 0.97000  0.68600  0.28900  Biso   1.000  H
  H27      1.0000 0.53000  0.18600  0.21100  Biso   1.000  H
  H28      1.0000 0.03000  0.68600  0.21100  Biso   1.000  H
  H29      1.0000 0.53000  0.81400  0.71100  Biso   1.000  H
  H30      1.0000 0.03000  0.31400  0.71100  Biso   1.000  H
  H31      1.0000 0.47000  0.81400  0.78900  Biso   1.000  H
  H32      1.0000 0.97000  0.31400  0.78900  Biso   1.000  H
  H33      1.0000 0.40100  0.48100  0.36600  Biso   1.000  H
  H34      1.0000 0.90100  0.98100  0.36600  Biso   1.000  H
  H35      1.0000 0.59900  0.48100  0.13400  Biso   1.000  H
  H36      1.0000 0.09900  0.98100  0.13400  Biso   1.000  H
  H37      1.0000 0.59900  0.51900  0.63400  Biso   1.000  H
  H38      1.0000 0.09900  0.01900  0.63400  Biso   1.000  H
  H39      1.0000 0.40100  0.51900  0.86600  Biso   1.000  H
  H40      1.0000 0.90100  0.01900  0.86600  Biso   1.000  H
  H41      1.0000 0.50000  0.56000  0.25000  Biso   1.000  H
  H42      1.0000 0.00000  0.06000  0.25000  Biso   1.000  H
  H43      1.0000 0.50000  0.44000  0.75000  Biso   1.000  H
  H44      1.0000 0.00000  0.94000  0.75000  Biso   1.000  H
