data_image0
_cell_length_a       15.096
_cell_length_b       13.585
_cell_length_c       8.58
_cell_angle_alpha    90
_cell_angle_beta     94.13
_cell_angle_gamma    90

_symmetry_space_group_name_H-M    "P 1"
_symmetry_int_tables_number       1

loop_
  _symmetry_equiv_pos_as_xyz
  'x, y, z'

loop_
  _atom_site_label
  _atom_site_occupancy
  _atom_site_fract_x
  _atom_site_fract_y
  _atom_site_fract_z
  _atom_site_thermal_displace_type
  _atom_site_B_iso_or_equiv
  _atom_site_type_symbol
  Cu1      1.0000 0.18024  0.28120  0.56882  Biso   1.000  Cu
  Cu2      1.0000 0.68024  0.78120  0.56882  Biso   1.000  Cu
  Cu3      1.0000 0.18024  0.71880  0.06882  Biso   1.000  Cu
  Cu4      1.0000 0.68024  0.21880  0.06882  Biso   1.000  Cu
  Cu5      1.0000 0.81976  0.71880  0.43118  Biso   1.000  Cu
  Cu6      1.0000 0.31976  0.21880  0.43118  Biso   1.000  Cu
  Cu7      1.0000 0.81976  0.28120  0.93118  Biso   1.000  Cu
  Cu8      1.0000 0.31976  0.78120  0.93118  Biso   1.000  Cu
  C1       1.0000 0.16842  0.27617  0.23720  Biso   1.000  C
  C2       1.0000 0.66842  0.77617  0.23720  Biso   1.000  C
  C3       1.0000 0.16842  0.72383  0.73720  Biso   1.000  C
  C4       1.0000 0.66842  0.22383  0.73720  Biso   1.000  C
  C5       1.0000 0.83158  0.72383  0.76280  Biso   1.000  C
  C6       1.0000 0.33158  0.22383  0.76280  Biso   1.000  C
  C7       1.0000 0.83158  0.27617  0.26280  Biso   1.000  C
  C8       1.0000 0.33158  0.77617  0.26280  Biso   1.000  C
  C9       1.0000 0.12003  0.29180  0.08050  Biso   1.000  C
  C10      1.0000 0.62003  0.79180  0.08050  Biso   1.000  C
  C11      1.0000 0.12003  0.70820  0.58050  Biso   1.000  C
  C12      1.0000 0.62003  0.20820  0.58050  Biso   1.000  C
  C13      1.0000 0.87997  0.70820  0.91950  Biso   1.000  C
  C14      1.0000 0.37997  0.20820  0.91950  Biso   1.000  C
  C15      1.0000 0.87997  0.29180  0.41950  Biso   1.000  C
  C16      1.0000 0.37997  0.79180  0.41950  Biso   1.000  C
  H1       1.0000 0.05870  0.27430  0.08560  Biso   1.000  H
  H2       1.0000 0.55870  0.77430  0.08560  Biso   1.000  H
  H3       1.0000 0.05870  0.72570  0.58560  Biso   1.000  H
  H4       1.0000 0.55870  0.22570  0.58560  Biso   1.000  H
  H5       1.0000 0.94130  0.72570  0.91440  Biso   1.000  H
  H6       1.0000 0.44130  0.22570  0.91440  Biso   1.000  H
  H7       1.0000 0.94130  0.27430  0.41440  Biso   1.000  H
  H8       1.0000 0.44130  0.77430  0.41440  Biso   1.000  H
  H9       1.0000 0.14610  0.25140  0.00420  Biso   1.000  H
  H10      1.0000 0.64610  0.75140  0.00420  Biso   1.000  H
  H11      1.0000 0.14610  0.74860  0.50420  Biso   1.000  H
  H12      1.0000 0.64610  0.24860  0.50420  Biso   1.000  H
  H13      1.0000 0.85390  0.74860  0.99580  Biso   1.000  H
  H14      1.0000 0.35390  0.24860  0.99580  Biso   1.000  H
  H15      1.0000 0.85390  0.25140  0.49580  Biso   1.000  H
  H16      1.0000 0.35390  0.75140  0.49580  Biso   1.000  H
  H17      1.0000 0.12430  0.35980  0.05130  Biso   1.000  H
  H18      1.0000 0.62430  0.85980  0.05130  Biso   1.000  H
  H19      1.0000 0.12430  0.64020  0.55130  Biso   1.000  H
  H20      1.0000 0.62430  0.14020  0.55130  Biso   1.000  H
  H21      1.0000 0.87570  0.64020  0.94870  Biso   1.000  H
  H22      1.0000 0.37570  0.14020  0.94870  Biso   1.000  H
  H23      1.0000 0.87570  0.35980  0.44870  Biso   1.000  H
  H24      1.0000 0.37570  0.85980  0.44870  Biso   1.000  H
  O1       1.0000 0.12790  0.29606  0.35580  Biso   1.000  O
  O2       1.0000 0.62790  0.79606  0.35580  Biso   1.000  O
  O3       1.0000 0.12790  0.70394  0.85580  Biso   1.000  O
  O4       1.0000 0.62790  0.20394  0.85580  Biso   1.000  O
  O5       1.0000 0.87210  0.70394  0.64420  Biso   1.000  O
  O6       1.0000 0.37210  0.20394  0.64420  Biso   1.000  O
  O7       1.0000 0.87210  0.29606  0.14420  Biso   1.000  O
  O8       1.0000 0.37210  0.79606  0.14420  Biso   1.000  O
  O9       1.0000 0.25338  0.25539  0.76080  Biso   1.000  O
  O10      1.0000 0.75338  0.75539  0.76080  Biso   1.000  O
  O11      1.0000 0.25338  0.74461  0.26080  Biso   1.000  O
  O12      1.0000 0.75338  0.24461  0.26080  Biso   1.000  O
  O13      1.0000 0.74662  0.74461  0.23920  Biso   1.000  O
  O14      1.0000 0.24662  0.24461  0.23920  Biso   1.000  O
  O15      1.0000 0.74662  0.25539  0.73920  Biso   1.000  O
  O16      1.0000 0.24662  0.75539  0.73920  Biso   1.000  O
  C17      1.0000 0.18900  0.07504  0.51110  Biso   1.000  C
  C18      1.0000 0.68900  0.57504  0.51110  Biso   1.000  C
  C19      1.0000 0.18900  0.92496  0.01110  Biso   1.000  C
  C20      1.0000 0.68900  0.42496  0.01110  Biso   1.000  C
  C21      1.0000 0.81100  0.92496  0.48890  Biso   1.000  C
  C22      1.0000 0.31100  0.42496  0.48890  Biso   1.000  C
  C23      1.0000 0.81100  0.07504  0.98890  Biso   1.000  C
  C24      1.0000 0.31100  0.57504  0.98890  Biso   1.000  C
  C25      1.0000 0.15770  0.96970  0.51960  Biso   1.000  C
  C26      1.0000 0.65770  0.46970  0.51960  Biso   1.000  C
  C27      1.0000 0.15770  0.03030  0.01960  Biso   1.000  C
  C28      1.0000 0.65770  0.53030  0.01960  Biso   1.000  C
  C29      1.0000 0.84230  0.03030  0.48040  Biso   1.000  C
  C30      1.0000 0.34230  0.53030  0.48040  Biso   1.000  C
  C31      1.0000 0.84230  0.96970  0.98040  Biso   1.000  C
  C32      1.0000 0.34230  0.46970  0.98040  Biso   1.000  C
  H25      1.0000 0.16460  0.93770  0.42150  Biso   1.000  H
  H26      1.0000 0.66460  0.43770  0.42150  Biso   1.000  H
  H27      1.0000 0.16460  0.06230  0.92150  Biso   1.000  H
  H28      1.0000 0.66460  0.56230  0.92150  Biso   1.000  H
  H29      1.0000 0.83540  0.06230  0.57850  Biso   1.000  H
  H30      1.0000 0.33540  0.56230  0.57850  Biso   1.000  H
  H31      1.0000 0.83540  0.93770  0.07850  Biso   1.000  H
  H32      1.0000 0.33540  0.43770  0.07850  Biso   1.000  H
  H33      1.0000 0.09630  0.96870  0.54160  Biso   1.000  H
  H34      1.0000 0.59630  0.46870  0.54160  Biso   1.000  H
  H35      1.0000 0.09630  0.03130  0.04160  Biso   1.000  H
  H36      1.0000 0.59630  0.53130  0.04160  Biso   1.000  H
  H37      1.0000 0.90370  0.03130  0.45840  Biso   1.000  H
  H38      1.0000 0.40370  0.53130  0.45840  Biso   1.000  H
  H39      1.0000 0.90370  0.96870  0.95840  Biso   1.000  H
  H40      1.0000 0.40370  0.46870  0.95840  Biso   1.000  H
  H41      1.0000 0.19240  0.93590  0.60110  Biso   1.000  H
  H42      1.0000 0.69240  0.43590  0.60110  Biso   1.000  H
  H43      1.0000 0.19240  0.06410  0.10110  Biso   1.000  H
  H44      1.0000 0.69240  0.56410  0.10110  Biso   1.000  H
  H45      1.0000 0.80760  0.06410  0.39890  Biso   1.000  H
  H46      1.0000 0.30760  0.56410  0.39890  Biso   1.000  H
  H47      1.0000 0.80760  0.93590  0.89890  Biso   1.000  H
  H48      1.0000 0.30760  0.43590  0.89890  Biso   1.000  H
  O17      1.0000 0.14316  0.14108  0.56780  Biso   1.000  O
  O18      1.0000 0.64316  0.64108  0.56780  Biso   1.000  O
  O19      1.0000 0.14316  0.85892  0.06780  Biso   1.000  O
  O20      1.0000 0.64316  0.35892  0.06780  Biso   1.000  O
  O21      1.0000 0.85684  0.85892  0.43220  Biso   1.000  O
  O22      1.0000 0.35684  0.35892  0.43220  Biso   1.000  O
  O23      1.0000 0.85684  0.14108  0.93220  Biso   1.000  O
  O24      1.0000 0.35684  0.64108  0.93220  Biso   1.000  O
  O25      1.0000 0.23984  0.41036  0.55100  Biso   1.000  O
  O26      1.0000 0.73984  0.91036  0.55100  Biso   1.000  O
  O27      1.0000 0.23984  0.58964  0.05100  Biso   1.000  O
  O28      1.0000 0.73984  0.08964  0.05100  Biso   1.000  O
  O29      1.0000 0.76016  0.58964  0.44900  Biso   1.000  O
  O30      1.0000 0.26016  0.08964  0.44900  Biso   1.000  O
  O31      1.0000 0.76016  0.41036  0.94900  Biso   1.000  O
  O32      1.0000 0.26016  0.91036  0.94900  Biso   1.000  O
  N1       1.0000 0.06641  0.34547  0.68230  Biso   1.000  N
  N2       1.0000 0.56641  0.84547  0.68230  Biso   1.000  N
  N3       1.0000 0.06641  0.65453  0.18230  Biso   1.000  N
  N4       1.0000 0.56641  0.15453  0.18230  Biso   1.000  N
  N5       1.0000 0.93359  0.65453  0.31770  Biso   1.000  N
  N6       1.0000 0.43359  0.15453  0.31770  Biso   1.000  N
  N7       1.0000 0.93359  0.34547  0.81770  Biso   1.000  N
  N8       1.0000 0.43359  0.84547  0.81770  Biso   1.000  N
  C33      1.0000 0.00000  0.29890  0.75000  Biso   1.000  C
  C34      1.0000 0.50000  0.79890  0.75000  Biso   1.000  C
  C35      1.0000 0.00000  0.70110  0.25000  Biso   1.000  C
  C36      1.0000 0.50000  0.20110  0.25000  Biso   1.000  C
  N9       1.0000 0.00000  0.20040  0.75000  Biso   1.000  N
  N10      1.0000 0.50000  0.70040  0.75000  Biso   1.000  N
  N11      1.0000 0.00000  0.79960  0.25000  Biso   1.000  N
  N12      1.0000 0.50000  0.29960  0.25000  Biso   1.000  N
  H49      1.0000 0.04250  0.17010  0.70800  Biso   1.000  H
  H50      1.0000 0.54250  0.67010  0.70800  Biso   1.000  H
  H51      1.0000 0.04250  0.82990  0.20800  Biso   1.000  H
  H52      1.0000 0.54250  0.32990  0.20800  Biso   1.000  H
  H53      1.0000 0.95750  0.82990  0.29200  Biso   1.000  H
  H54      1.0000 0.45750  0.32990  0.29200  Biso   1.000  H
  H55      1.0000 0.95750  0.17010  0.79200  Biso   1.000  H
  H56      1.0000 0.45750  0.67010  0.79200  Biso   1.000  H
  C37      1.0000 0.06495  0.44346  0.68450  Biso   1.000  C
  C38      1.0000 0.56495  0.94346  0.68450  Biso   1.000  C
  C39      1.0000 0.06495  0.55654  0.18450  Biso   1.000  C
  C40      1.0000 0.56495  0.05654  0.18450  Biso   1.000  C
  C41      1.0000 0.93505  0.55654  0.31550  Biso   1.000  C
  C42      1.0000 0.43505  0.05654  0.31550  Biso   1.000  C
  C43      1.0000 0.93505  0.44346  0.81550  Biso   1.000  C
  C44      1.0000 0.43505  0.94346  0.81550  Biso   1.000  C
  H57      1.0000 0.11010  0.47750  0.63940  Biso   1.000  H
  H58      1.0000 0.61010  0.97750  0.63940  Biso   1.000  H
  H59      1.0000 0.11010  0.52250  0.13940  Biso   1.000  H
  H60      1.0000 0.61010  0.02250  0.13940  Biso   1.000  H
  H61      1.0000 0.88990  0.52250  0.36060  Biso   1.000  H
  H62      1.0000 0.38990  0.02250  0.36060  Biso   1.000  H
  H63      1.0000 0.88990  0.47750  0.86060  Biso   1.000  H
  H64      1.0000 0.38990  0.97750  0.86060  Biso   1.000  H
  C45      1.0000 0.00000  0.49640  0.75000  Biso   1.000  C
  C46      1.0000 0.50000  0.99640  0.75000  Biso   1.000  C
  C47      1.0000 0.00000  0.50360  0.25000  Biso   1.000  C
  C48      1.0000 0.50000  0.00360  0.25000  Biso   1.000  C
  H65      1.0000 0.00000  0.56490  0.75000  Biso   1.000  H
  H66      1.0000 0.50000  0.06490  0.75000  Biso   1.000  H
  H67      1.0000 0.00000  0.43510  0.25000  Biso   1.000  H
  H68      1.0000 0.50000  0.93510  0.25000  Biso   1.000  H
