data_image0
_cell_length_a       15.0998
_cell_length_b       13.5326
_cell_length_c       8.5733
_cell_angle_alpha    90
_cell_angle_beta     94.148
_cell_angle_gamma    90

_symmetry_space_group_name_H-M    "P 1"
_symmetry_int_tables_number       1

loop_
  _symmetry_equiv_pos_as_xyz
  'x, y, z'

loop_
  _atom_site_label
  _atom_site_occupancy
  _atom_site_fract_x
  _atom_site_fract_y
  _atom_site_fract_z
  _atom_site_thermal_displace_type
  _atom_site_B_iso_or_equiv
  _atom_site_type_symbol
  Cu1      1.0000 0.31987  0.71901  0.43127  Biso   1.000  Cu
  Cu2      1.0000 0.68013  0.71901  0.06873  Biso   1.000  Cu
  Cu3      1.0000 0.81987  0.21901  0.43127  Biso   1.000  Cu
  Cu4      1.0000 0.18013  0.21901  0.06873  Biso   1.000  Cu
  Cu5      1.0000 0.68013  0.28099  0.56873  Biso   1.000  Cu
  Cu6      1.0000 0.31987  0.28099  0.93127  Biso   1.000  Cu
  Cu7      1.0000 0.18013  0.78099  0.56873  Biso   1.000  Cu
  Cu8      1.0000 0.81987  0.78099  0.93127  Biso   1.000  Cu
  O1       1.0000 0.24670  0.74519  0.23829  Biso   1.000  O
  O2       1.0000 0.75330  0.74519  0.26171  Biso   1.000  O
  O3       1.0000 0.74670  0.24519  0.23829  Biso   1.000  O
  O4       1.0000 0.25330  0.24519  0.26171  Biso   1.000  O
  O5       1.0000 0.75330  0.25481  0.76171  Biso   1.000  O
  O6       1.0000 0.24670  0.25481  0.73829  Biso   1.000  O
  O7       1.0000 0.25330  0.75481  0.76171  Biso   1.000  O
  O8       1.0000 0.74670  0.75481  0.73829  Biso   1.000  O
  O9       1.0000 0.26018  0.58961  0.44801  Biso   1.000  O
  O10      1.0000 0.73982  0.58961  0.05199  Biso   1.000  O
  O11      1.0000 0.76018  0.08961  0.44801  Biso   1.000  O
  O12      1.0000 0.23982  0.08961  0.05199  Biso   1.000  O
  O13      1.0000 0.73982  0.41039  0.55199  Biso   1.000  O
  O14      1.0000 0.26018  0.41039  0.94801  Biso   1.000  O
  O15      1.0000 0.23982  0.91039  0.55199  Biso   1.000  O
  O16      1.0000 0.76018  0.91039  0.94801  Biso   1.000  O
  N1       1.0000 0.43361  0.65463  0.31815  Biso   1.000  N
  N2       1.0000 0.56639  0.65463  0.18185  Biso   1.000  N
  N3       1.0000 0.93361  0.15463  0.31815  Biso   1.000  N
  N4       1.0000 0.06639  0.15463  0.18185  Biso   1.000  N
  N5       1.0000 0.56639  0.34537  0.68185  Biso   1.000  N
  N6       1.0000 0.43361  0.34537  0.81815  Biso   1.000  N
  N7       1.0000 0.06639  0.84537  0.68185  Biso   1.000  N
  N8       1.0000 0.93361  0.84537  0.81815  Biso   1.000  N
  O17      1.0000 0.37219  0.70397  0.64532  Biso   1.000  O
  O18      1.0000 0.62781  0.70397  0.85468  Biso   1.000  O
  O19      1.0000 0.87219  0.20397  0.64532  Biso   1.000  O
  O20      1.0000 0.12781  0.20397  0.85468  Biso   1.000  O
  O21      1.0000 0.62781  0.29603  0.35468  Biso   1.000  O
  O22      1.0000 0.37219  0.29603  0.14532  Biso   1.000  O
  O23      1.0000 0.12781  0.79603  0.35468  Biso   1.000  O
  O24      1.0000 0.87219  0.79603  0.14532  Biso   1.000  O
  O25      1.0000 0.35689  0.85930  0.43322  Biso   1.000  O
  O26      1.0000 0.64311  0.85930  0.06678  Biso   1.000  O
  O27      1.0000 0.85689  0.35930  0.43322  Biso   1.000  O
  O28      1.0000 0.14311  0.35930  0.06678  Biso   1.000  O
  O29      1.0000 0.64311  0.14070  0.56678  Biso   1.000  O
  O30      1.0000 0.35689  0.14070  0.93322  Biso   1.000  O
  O31      1.0000 0.14311  0.64070  0.56678  Biso   1.000  O
  O32      1.0000 0.85689  0.64070  0.93322  Biso   1.000  O
  C1       1.0000 0.16865  0.77674  0.23614  Biso   1.000  C
  C2       1.0000 0.83135  0.77674  0.26386  Biso   1.000  C
  C3       1.0000 0.66865  0.27674  0.23614  Biso   1.000  C
  C4       1.0000 0.33135  0.27674  0.26386  Biso   1.000  C
  C5       1.0000 0.83135  0.22326  0.76386  Biso   1.000  C
  C6       1.0000 0.16865  0.22326  0.73614  Biso   1.000  C
  C7       1.0000 0.33135  0.72326  0.76386  Biso   1.000  C
  C8       1.0000 0.66865  0.72326  0.73614  Biso   1.000  C
  C9       1.0000 0.18920  0.57431  0.50996  Biso   1.000  C
  C10      1.0000 0.81080  0.57431  0.99004  Biso   1.000  C
  C11      1.0000 0.68920  0.07431  0.50996  Biso   1.000  C
  C12      1.0000 0.31080  0.07431  0.99004  Biso   1.000  C
  C13      1.0000 0.81080  0.42569  0.49004  Biso   1.000  C
  C14      1.0000 0.18920  0.42569  0.00996  Biso   1.000  C
  C15      1.0000 0.31080  0.92569  0.49004  Biso   1.000  C
  C16      1.0000 0.68920  0.92569  0.00996  Biso   1.000  C
  C17      1.0000 0.50000  0.70178  0.25000  Biso   1.000  C
  C18      1.0000 0.00000  0.20178  0.25000  Biso   1.000  C
  C19      1.0000 0.50000  0.29822  0.75000  Biso   1.000  C
  C20      1.0000 0.00000  0.79822  0.75000  Biso   1.000  C
  C21      1.0000 0.43504  0.55618  0.31610  Biso   1.000  C
  C22      1.0000 0.56496  0.55618  0.18390  Biso   1.000  C
  C23      1.0000 0.93504  0.05618  0.31610  Biso   1.000  C
  C24      1.0000 0.06496  0.05618  0.18390  Biso   1.000  C
  C25      1.0000 0.56496  0.44382  0.68390  Biso   1.000  C
  C26      1.0000 0.43504  0.44382  0.81610  Biso   1.000  C
  C27      1.0000 0.06496  0.94382  0.68390  Biso   1.000  C
  C28      1.0000 0.93504  0.94382  0.81610  Biso   1.000  C
  C29      1.0000 0.12006  0.79251  0.07860  Biso   1.000  C
  C30      1.0000 0.87994  0.79251  0.42140  Biso   1.000  C
  C31      1.0000 0.62006  0.29251  0.07860  Biso   1.000  C
  C32      1.0000 0.37994  0.29251  0.42140  Biso   1.000  C
  C33      1.0000 0.87994  0.20749  0.92140  Biso   1.000  C
  C34      1.0000 0.12006  0.20749  0.57860  Biso   1.000  C
  C35      1.0000 0.37994  0.70749  0.92140  Biso   1.000  C
  C36      1.0000 0.62006  0.70749  0.57860  Biso   1.000  C
  C37      1.0000 0.15782  0.46889  0.51810  Biso   1.000  C
  C38      1.0000 0.84218  0.46889  0.98190  Biso   1.000  C
  C39      1.0000 0.65782  0.96889  0.51810  Biso   1.000  C
  C40      1.0000 0.34218  0.96889  0.98190  Biso   1.000  C
  C41      1.0000 0.84218  0.53111  0.48190  Biso   1.000  C
  C42      1.0000 0.15782  0.53111  0.01810  Biso   1.000  C
  C43      1.0000 0.34218  0.03111  0.48190  Biso   1.000  C
  C44      1.0000 0.65782  0.03111  0.01810  Biso   1.000  C
  N9       1.0000 0.50000  0.80047  0.25000  Biso   1.000  N
  N10      1.0000 0.00000  0.30047  0.25000  Biso   1.000  N
  N11      1.0000 0.50000  0.19953  0.75000  Biso   1.000  N
  N12      1.0000 0.00000  0.69953  0.75000  Biso   1.000  N
  H1       1.0000 0.38900  0.52150  0.36260  Biso   1.000  H
  H2       1.0000 0.61100  0.52150  0.13740  Biso   1.000  H
  H3       1.0000 0.88900  0.02150  0.36260  Biso   1.000  H
  H4       1.0000 0.11100  0.02150  0.13740  Biso   1.000  H
  H5       1.0000 0.61100  0.47850  0.63740  Biso   1.000  H
  H6       1.0000 0.38900  0.47850  0.86260  Biso   1.000  H
  H7       1.0000 0.11100  0.97850  0.63740  Biso   1.000  H
  H8       1.0000 0.88900  0.97850  0.86260  Biso   1.000  H
  C45      1.0000 0.50000  0.50234  0.25000  Biso   1.000  C
  C46      1.0000 0.00000  0.00234  0.25000  Biso   1.000  C
  C47      1.0000 0.50000  0.49766  0.75000  Biso   1.000  C
  C48      1.0000 0.00000  0.99766  0.75000  Biso   1.000  C
  H9       1.0000 0.05770  0.77360  0.08340  Biso   1.000  H
  H10      1.0000 0.94230  0.77360  0.41660  Biso   1.000  H
  H11      1.0000 0.55770  0.27360  0.08340  Biso   1.000  H
  H12      1.0000 0.44230  0.27360  0.41660  Biso   1.000  H
  H13      1.0000 0.94230  0.22640  0.91660  Biso   1.000  H
  H14      1.0000 0.05770  0.22640  0.58340  Biso   1.000  H
  H15      1.0000 0.44230  0.72640  0.91660  Biso   1.000  H
  H16      1.0000 0.55770  0.72640  0.58340  Biso   1.000  H
  H17      1.0000 0.14720  0.75180  0.00040  Biso   1.000  H
  H18      1.0000 0.85280  0.75180  0.49960  Biso   1.000  H
  H19      1.0000 0.64720  0.25180  0.00040  Biso   1.000  H
  H20      1.0000 0.35280  0.25180  0.49960  Biso   1.000  H
  H21      1.0000 0.85280  0.24820  0.99960  Biso   1.000  H
  H22      1.0000 0.14720  0.24820  0.50040  Biso   1.000  H
  H23      1.0000 0.35280  0.74820  0.99960  Biso   1.000  H
  H24      1.0000 0.64720  0.74820  0.50040  Biso   1.000  H
  H25      1.0000 0.12370  0.86230  0.04940  Biso   1.000  H
  H26      1.0000 0.87630  0.86230  0.45060  Biso   1.000  H
  H27      1.0000 0.62370  0.36230  0.04940  Biso   1.000  H
  H28      1.0000 0.37630  0.36230  0.45060  Biso   1.000  H
  H29      1.0000 0.87630  0.13770  0.95060  Biso   1.000  H
  H30      1.0000 0.12370  0.13770  0.54940  Biso   1.000  H
  H31      1.0000 0.37630  0.63770  0.95060  Biso   1.000  H
  H32      1.0000 0.62370  0.63770  0.54940  Biso   1.000  H
  H33      1.0000 0.16590  0.43580  0.41840  Biso   1.000  H
  H34      1.0000 0.83410  0.43580  0.08160  Biso   1.000  H
  H35      1.0000 0.66590  0.93580  0.41840  Biso   1.000  H
  H36      1.0000 0.33410  0.93580  0.08160  Biso   1.000  H
  H37      1.0000 0.83410  0.56420  0.58160  Biso   1.000  H
  H38      1.0000 0.16590  0.56420  0.91840  Biso   1.000  H
  H39      1.0000 0.33410  0.06420  0.58160  Biso   1.000  H
  H40      1.0000 0.66590  0.06420  0.91840  Biso   1.000  H
  H41      1.0000 0.09480  0.46790  0.53850  Biso   1.000  H
  H42      1.0000 0.90520  0.46790  0.96150  Biso   1.000  H
  H43      1.0000 0.59480  0.96790  0.53850  Biso   1.000  H
  H44      1.0000 0.40520  0.96790  0.96150  Biso   1.000  H
  H45      1.0000 0.90520  0.53210  0.46150  Biso   1.000  H
  H46      1.0000 0.09480  0.53210  0.03850  Biso   1.000  H
  H47      1.0000 0.40520  0.03210  0.46150  Biso   1.000  H
  H48      1.0000 0.59480  0.03210  0.03850  Biso   1.000  H
  H49      1.0000 0.19240  0.43440  0.60250  Biso   1.000  H
  H50      1.0000 0.80760  0.43440  0.89750  Biso   1.000  H
  H51      1.0000 0.69240  0.93440  0.60250  Biso   1.000  H
  H52      1.0000 0.30760  0.93440  0.89750  Biso   1.000  H
  H53      1.0000 0.80760  0.56560  0.39750  Biso   1.000  H
  H54      1.0000 0.19240  0.56560  0.10250  Biso   1.000  H
  H55      1.0000 0.30760  0.06560  0.39750  Biso   1.000  H
  H56      1.0000 0.69240  0.06560  0.10250  Biso   1.000  H
  H57      1.0000 0.54150  0.82840  0.20200  Biso   1.000  H
  H58      1.0000 0.45850  0.82840  0.29800  Biso   1.000  H
  H59      1.0000 0.04150  0.32840  0.20200  Biso   1.000  H
  H60      1.0000 0.95850  0.32840  0.29800  Biso   1.000  H
  H61      1.0000 0.45850  0.17160  0.79800  Biso   1.000  H
  H62      1.0000 0.54150  0.17160  0.70200  Biso   1.000  H
  H63      1.0000 0.95850  0.67160  0.79800  Biso   1.000  H
  H64      1.0000 0.04150  0.67160  0.70200  Biso   1.000  H
  H65      1.0000 0.50000  0.43210  0.25000  Biso   1.000  H
  H66      1.0000 0.00000  0.93210  0.25000  Biso   1.000  H
  H67      1.0000 0.50000  0.56790  0.75000  Biso   1.000  H
  H68      1.0000 0.00000  0.06790  0.75000  Biso   1.000  H
