data_image0
_cell_length_a       6.9389
_cell_length_b       18.353
_cell_length_c       7.7976
_cell_angle_alpha    90
_cell_angle_beta     98.445
_cell_angle_gamma    90

_symmetry_space_group_name_H-M    "P 1"
_symmetry_int_tables_number       1

loop_
  _symmetry_equiv_pos_as_xyz
  'x, y, z'

loop_
  _atom_site_label
  _atom_site_occupancy
  _atom_site_fract_x
  _atom_site_fract_y
  _atom_site_fract_z
  _atom_site_thermal_displace_type
  _atom_site_B_iso_or_equiv
  _atom_site_type_symbol
  C1       1.0000 0.35680  0.13710  0.67770  Biso   1.000  C
  C2       1.0000 0.64320  0.63710  0.82230  Biso   1.000  C
  C3       1.0000 0.64320  0.86290  0.32230  Biso   1.000  C
  C4       1.0000 0.35680  0.36290  0.17770  Biso   1.000  C
  C5       1.0000 0.28230  0.20370  0.69730  Biso   1.000  C
  C6       1.0000 0.71770  0.70370  0.80270  Biso   1.000  C
  C7       1.0000 0.71770  0.79630  0.30270  Biso   1.000  C
  C8       1.0000 0.28230  0.29630  0.19730  Biso   1.000  C
  H1       1.0000 0.16790  0.20770  0.74550  Biso   1.000  H
  H2       1.0000 0.83210  0.70770  0.75450  Biso   1.000  H
  H3       1.0000 0.83210  0.79230  0.25450  Biso   1.000  H
  H4       1.0000 0.16790  0.29230  0.24550  Biso   1.000  H
  C9       1.0000 0.37020  0.26610  0.64800  Biso   1.000  C
  C10      1.0000 0.62980  0.76610  0.85200  Biso   1.000  C
  C11      1.0000 0.62980  0.73390  0.35200  Biso   1.000  C
  C12      1.0000 0.37020  0.23390  0.14800  Biso   1.000  C
  C13      1.0000 0.53870  0.25900  0.57630  Biso   1.000  C
  C14      1.0000 0.46130  0.75900  0.92370  Biso   1.000  C
  C15      1.0000 0.46130  0.74100  0.42370  Biso   1.000  C
  C16      1.0000 0.53870  0.24100  0.07630  Biso   1.000  C
  H5       1.0000 0.60250  0.30040  0.54500  Biso   1.000  H
  H6       1.0000 0.39750  0.80040  0.95500  Biso   1.000  H
  H7       1.0000 0.39750  0.69960  0.45500  Biso   1.000  H
  H8       1.0000 0.60250  0.19960  0.04500  Biso   1.000  H
  C17      1.0000 0.61290  0.19230  0.55060  Biso   1.000  C
  C18      1.0000 0.38710  0.69230  0.94940  Biso   1.000  C
  C19      1.0000 0.38710  0.80770  0.44940  Biso   1.000  C
  C20      1.0000 0.61290  0.30770  0.05060  Biso   1.000  C
  C21      1.0000 0.26420  0.07010  0.74550  Biso   1.000  C
  C22      1.0000 0.73580  0.57010  0.75450  Biso   1.000  C
  C23      1.0000 0.73580  0.92990  0.25450  Biso   1.000  C
  C24      1.0000 0.26420  0.42990  0.24550  Biso   1.000  C
  C25      1.0000 0.28840  0.33960  0.68000  Biso   1.000  C
  C26      1.0000 0.71160  0.83960  0.82000  Biso   1.000  C
  C27      1.0000 0.71160  0.66040  0.32000  Biso   1.000  C
  C28      1.0000 0.28840  0.16040  0.18000  Biso   1.000  C
  C29      1.0000 0.79050  0.17870  0.46560  Biso   1.000  C
  C30      1.0000 0.20950  0.67870  0.03440  Biso   1.000  C
  C31      1.0000 0.20950  0.82130  0.53440  Biso   1.000  C
  C32      1.0000 0.79050  0.32130  0.96560  Biso   1.000  C
  H9       1.0000 0.87920  0.14760  0.53840  Biso   1.000  H
  H10      1.0000 0.12080  0.64760  0.96160  Biso   1.000  H
  H11      1.0000 0.12080  0.85240  0.46160  Biso   1.000  H
  H12      1.0000 0.87920  0.35240  0.03840  Biso   1.000  H
  H13      1.0000 0.85320  0.22420  0.44870  Biso   1.000  H
  H14      1.0000 0.14680  0.72420  0.05130  Biso   1.000  H
  H15      1.0000 0.14680  0.77580  0.55130  Biso   1.000  H
  H16      1.0000 0.85320  0.27580  0.94870  Biso   1.000  H
  H17      1.0000 0.75260  0.15550  0.35550  Biso   1.000  H
  H18      1.0000 0.24740  0.65550  0.14450  Biso   1.000  H
  H19      1.0000 0.24740  0.84450  0.64450  Biso   1.000  H
  H20      1.0000 0.75260  0.34450  0.85550  Biso   1.000  H
  Cu1      1.0000 0.60938  0.98772  0.71673  Biso   1.000  Cu
  Cu2      1.0000 0.39062  0.48772  0.78327  Biso   1.000  Cu
  Cu3      1.0000 0.39062  0.01228  0.28327  Biso   1.000  Cu
  Cu4      1.0000 0.60938  0.51228  0.21673  Biso   1.000  Cu
  N1       1.0000 0.51940  0.13130  0.59750  Biso   1.000  N
  N2       1.0000 0.48060  0.63130  0.90250  Biso   1.000  N
  N3       1.0000 0.48060  0.86870  0.40250  Biso   1.000  N
  N4       1.0000 0.51940  0.36870  0.09750  Biso   1.000  N
  O1       1.0000 0.35710  0.01164  0.77620  Biso   1.000  O
  O2       1.0000 0.64290  0.51164  0.72380  Biso   1.000  O
  O3       1.0000 0.64290  0.98836  0.22380  Biso   1.000  O
  O4       1.0000 0.35710  0.48836  0.27620  Biso   1.000  O
  O5       1.0000 0.09440  0.07879  0.77140  Biso   1.000  O
  O6       1.0000 0.90560  0.57879  0.72860  Biso   1.000  O
  O7       1.0000 0.90560  0.92121  0.22860  Biso   1.000  O
  O8       1.0000 0.09440  0.42121  0.27140  Biso   1.000  O
  O9       1.0000 0.11820  0.34226  0.70860  Biso   1.000  O
  O10      1.0000 0.88180  0.84226  0.79140  Biso   1.000  O
  O11      1.0000 0.88180  0.65774  0.29140  Biso   1.000  O
  O12      1.0000 0.11820  0.15774  0.20860  Biso   1.000  O
  O13      1.0000 0.40210  0.39251  0.67520  Biso   1.000  O
  O14      1.0000 0.59790  0.89251  0.82480  Biso   1.000  O
  O15      1.0000 0.59790  0.60749  0.32480  Biso   1.000  O
  O16      1.0000 0.40210  0.10749  0.17520  Biso   1.000  O
  O17      1.0000 0.58640  0.06811  0.55560  Biso   1.000  O
  O18      1.0000 0.41360  0.56811  0.94440  Biso   1.000  O
  O19      1.0000 0.41360  0.93189  0.44440  Biso   1.000  O
  O20      1.0000 0.58640  0.43189  0.05560  Biso   1.000  O
  O21      1.0000 0.74850  0.06930  0.93560  Biso   1.000  O
  O22      1.0000 0.25150  0.56930  0.56440  Biso   1.000  O
  O23      1.0000 0.25150  0.93070  0.06440  Biso   1.000  O
  O24      1.0000 0.74850  0.43070  0.43560  Biso   1.000  O
  H21      1.0000 0.65890  0.08560  0.98860  Biso   1.000  H
  H22      1.0000 0.34110  0.58560  0.51140  Biso   1.000  H
  H23      1.0000 0.34110  0.91440  0.01140  Biso   1.000  H
  H24      1.0000 0.65890  0.41440  0.48860  Biso   1.000  H
  H25      1.0000 0.83230  0.04680  0.00680  Biso   1.000  H
  H26      1.0000 0.16770  0.54680  0.49320  Biso   1.000  H
  H27      1.0000 0.16770  0.95320  0.99320  Biso   1.000  H
  H28      1.0000 0.83230  0.45320  0.50680  Biso   1.000  H
  O25      1.0000 0.86010  0.96757  0.64190  Biso   1.000  O
  O26      1.0000 0.13990  0.46757  0.85810  Biso   1.000  O
  O27      1.0000 0.13990  0.03243  0.35810  Biso   1.000  O
  O28      1.0000 0.86010  0.53243  0.14190  Biso   1.000  O
  H29      1.0000 0.84350  0.93770  0.55780  Biso   1.000  H
  H30      1.0000 0.15650  0.43770  0.94220  Biso   1.000  H
  H31      1.0000 0.15650  0.06230  0.44220  Biso   1.000  H
  H32      1.0000 0.84350  0.56230  0.05780  Biso   1.000  H
  H33      1.0000 0.93750  0.94920  0.72530  Biso   1.000  H
  H34      1.0000 0.06250  0.44920  0.77470  Biso   1.000  H
  H35      1.0000 0.06250  0.05080  0.27470  Biso   1.000  H
  H36      1.0000 0.93750  0.55080  0.22530  Biso   1.000  H
