data_image0
_cell_length_a       25.54
_cell_length_b       9.186
_cell_length_c       15.482
_cell_angle_alpha    90
_cell_angle_beta     117.08
_cell_angle_gamma    90

_symmetry_space_group_name_H-M    "P 1"
_symmetry_int_tables_number       1

loop_
  _symmetry_equiv_pos_as_xyz
  'x, y, z'

loop_
  _atom_site_label
  _atom_site_occupancy
  _atom_site_fract_x
  _atom_site_fract_y
  _atom_site_fract_z
  _atom_site_thermal_displace_type
  _atom_site_B_iso_or_equiv
  _atom_site_type_symbol
  Cu1      1.0000 0.79671  0.63330  0.10782  Biso   1.000  Cu
  Cu2      1.0000 0.29671  0.13330  0.10782  Biso   1.000  Cu
  Cu3      1.0000 0.79671  0.36670  0.60782  Biso   1.000  Cu
  Cu4      1.0000 0.29671  0.86670  0.60782  Biso   1.000  Cu
  Cu5      1.0000 0.20329  0.36670  0.89218  Biso   1.000  Cu
  Cu6      1.0000 0.70329  0.86670  0.89218  Biso   1.000  Cu
  Cu7      1.0000 0.20329  0.63330  0.39218  Biso   1.000  Cu
  Cu8      1.0000 0.70329  0.13330  0.39218  Biso   1.000  Cu
  C1       1.0000 0.52500  0.37500  0.11030  Biso   1.000  C
  C2       1.0000 0.02500  0.87500  0.11030  Biso   1.000  C
  C3       1.0000 0.52500  0.62500  0.61030  Biso   1.000  C
  C4       1.0000 0.02500  0.12500  0.61030  Biso   1.000  C
  C5       1.0000 0.47500  0.62500  0.88970  Biso   1.000  C
  C6       1.0000 0.97500  0.12500  0.88970  Biso   1.000  C
  C7       1.0000 0.47500  0.37500  0.38970  Biso   1.000  C
  C8       1.0000 0.97500  0.87500  0.38970  Biso   1.000  C
  C9       1.0000 0.56870  0.42010  0.11210  Biso   1.000  C
  C10      1.0000 0.06870  0.92010  0.11210  Biso   1.000  C
  C11      1.0000 0.56870  0.57990  0.61210  Biso   1.000  C
  C12      1.0000 0.06870  0.07990  0.61210  Biso   1.000  C
  C13      1.0000 0.43130  0.57990  0.88790  Biso   1.000  C
  C14      1.0000 0.93130  0.07990  0.88790  Biso   1.000  C
  C15      1.0000 0.43130  0.42010  0.38790  Biso   1.000  C
  C16      1.0000 0.93130  0.92010  0.38790  Biso   1.000  C
  N1       1.0000 0.37010  0.21090  0.10650  Biso   1.000  N
  N2       1.0000 0.87010  0.71090  0.10650  Biso   1.000  N
  N3       1.0000 0.37010  0.78910  0.60650  Biso   1.000  N
  N4       1.0000 0.87010  0.28910  0.60650  Biso   1.000  N
  N5       1.0000 0.62990  0.78910  0.89350  Biso   1.000  N
  N6       1.0000 0.12990  0.28910  0.89350  Biso   1.000  N
  N7       1.0000 0.62990  0.21090  0.39350  Biso   1.000  N
  N8       1.0000 0.12990  0.71090  0.39350  Biso   1.000  N
  C17      1.0000 0.38680  0.34400  0.13380  Biso   1.000  C
  C18      1.0000 0.88680  0.84400  0.13380  Biso   1.000  C
  C19      1.0000 0.38680  0.65600  0.63380  Biso   1.000  C
  C20      1.0000 0.88680  0.15600  0.63380  Biso   1.000  C
  C21      1.0000 0.61320  0.65600  0.86620  Biso   1.000  C
  C22      1.0000 0.11320  0.15600  0.86620  Biso   1.000  C
  C23      1.0000 0.61320  0.34400  0.36620  Biso   1.000  C
  C24      1.0000 0.11320  0.84400  0.36620  Biso   1.000  C
  H1       1.0000 0.36360  0.40060  0.15260  Biso   1.000  H
  H2       1.0000 0.86360  0.90060  0.15260  Biso   1.000  H
  H3       1.0000 0.36360  0.59940  0.65260  Biso   1.000  H
  H4       1.0000 0.86360  0.09940  0.65260  Biso   1.000  H
  H5       1.0000 0.63640  0.59940  0.84740  Biso   1.000  H
  H6       1.0000 0.13640  0.09940  0.84740  Biso   1.000  H
  H7       1.0000 0.63640  0.40060  0.34740  Biso   1.000  H
  H8       1.0000 0.13640  0.90060  0.34740  Biso   1.000  H
  C25      1.0000 0.43740  0.40790  0.13680  Biso   1.000  C
  C26      1.0000 0.93740  0.90790  0.13680  Biso   1.000  C
  C27      1.0000 0.43740  0.59210  0.63680  Biso   1.000  C
  C28      1.0000 0.93740  0.09210  0.63680  Biso   1.000  C
  C29      1.0000 0.56260  0.59210  0.86320  Biso   1.000  C
  C30      1.0000 0.06260  0.09210  0.86320  Biso   1.000  C
  C31      1.0000 0.56260  0.40790  0.36320  Biso   1.000  C
  C32      1.0000 0.06260  0.90790  0.36320  Biso   1.000  C
  H9       1.0000 0.44780  0.50380  0.15630  Biso   1.000  H
  H10      1.0000 0.94780  0.00380  0.15630  Biso   1.000  H
  H11      1.0000 0.44780  0.49620  0.65630  Biso   1.000  H
  H12      1.0000 0.94780  0.99620  0.65630  Biso   1.000  H
  H13      1.0000 0.55220  0.49620  0.84370  Biso   1.000  H
  H14      1.0000 0.05220  0.99620  0.84370  Biso   1.000  H
  H15      1.0000 0.55220  0.50380  0.34370  Biso   1.000  H
  H16      1.0000 0.05220  0.00380  0.34370  Biso   1.000  H
  C33      1.0000 0.47030  0.32140  0.10940  Biso   1.000  C
  C34      1.0000 0.97030  0.82140  0.10940  Biso   1.000  C
  C35      1.0000 0.47030  0.67860  0.60940  Biso   1.000  C
  C36      1.0000 0.97030  0.17860  0.60940  Biso   1.000  C
  C37      1.0000 0.52970  0.67860  0.89060  Biso   1.000  C
  C38      1.0000 0.02970  0.17860  0.89060  Biso   1.000  C
  C39      1.0000 0.52970  0.32140  0.39060  Biso   1.000  C
  C40      1.0000 0.02970  0.82140  0.39060  Biso   1.000  C
  C41      1.0000 0.45400  0.18230  0.08060  Biso   1.000  C
  C42      1.0000 0.95400  0.68230  0.08060  Biso   1.000  C
  C43      1.0000 0.45400  0.81770  0.58060  Biso   1.000  C
  C44      1.0000 0.95400  0.31770  0.58060  Biso   1.000  C
  C45      1.0000 0.54600  0.81770  0.91940  Biso   1.000  C
  C46      1.0000 0.04600  0.31770  0.91940  Biso   1.000  C
  C47      1.0000 0.54600  0.18230  0.41940  Biso   1.000  C
  C48      1.0000 0.04600  0.68230  0.41940  Biso   1.000  C
  H17      1.0000 0.47700  0.12340  0.06280  Biso   1.000  H
  H18      1.0000 0.97700  0.62340  0.06280  Biso   1.000  H
  H19      1.0000 0.47700  0.87660  0.56280  Biso   1.000  H
  H20      1.0000 0.97700  0.37660  0.56280  Biso   1.000  H
  H21      1.0000 0.52300  0.87660  0.93720  Biso   1.000  H
  H22      1.0000 0.02300  0.37660  0.93720  Biso   1.000  H
  H23      1.0000 0.52300  0.12340  0.43720  Biso   1.000  H
  H24      1.0000 0.02300  0.62340  0.43720  Biso   1.000  H
  C49      1.0000 0.40160  0.12700  0.07810  Biso   1.000  C
  C50      1.0000 0.90160  0.62700  0.07810  Biso   1.000  C
  C51      1.0000 0.40160  0.87300  0.57810  Biso   1.000  C
  C52      1.0000 0.90160  0.37300  0.57810  Biso   1.000  C
  C53      1.0000 0.59840  0.87300  0.92190  Biso   1.000  C
  C54      1.0000 0.09840  0.37300  0.92190  Biso   1.000  C
  C55      1.0000 0.59840  0.12700  0.42190  Biso   1.000  C
  C56      1.0000 0.09840  0.62700  0.42190  Biso   1.000  C
  H25      1.0000 0.38930  0.03320  0.05640  Biso   1.000  H
  H26      1.0000 0.88930  0.53320  0.05640  Biso   1.000  H
  H27      1.0000 0.38930  0.96680  0.55640  Biso   1.000  H
  H28      1.0000 0.88930  0.46680  0.55640  Biso   1.000  H
  H29      1.0000 0.61070  0.96680  0.94360  Biso   1.000  H
  H30      1.0000 0.11070  0.46680  0.94360  Biso   1.000  H
  H31      1.0000 0.61070  0.03320  0.44360  Biso   1.000  H
  H32      1.0000 0.11070  0.53320  0.44360  Biso   1.000  H
  N9       1.0000 0.72410  0.56340  0.11170  Biso   1.000  N
  N10      1.0000 0.22410  0.06340  0.11170  Biso   1.000  N
  N11      1.0000 0.72410  0.43660  0.61170  Biso   1.000  N
  N12      1.0000 0.22410  0.93660  0.61170  Biso   1.000  N
  N13      1.0000 0.27590  0.43660  0.88830  Biso   1.000  N
  N14      1.0000 0.77590  0.93660  0.88830  Biso   1.000  N
  N15      1.0000 0.27590  0.56340  0.38830  Biso   1.000  N
  N16      1.0000 0.77590  0.06340  0.38830  Biso   1.000  N
  C57      1.0000 0.69360  0.65390  0.13750  Biso   1.000  C
  C58      1.0000 0.19360  0.15390  0.13750  Biso   1.000  C
  C59      1.0000 0.69360  0.34610  0.63750  Biso   1.000  C
  C60      1.0000 0.19360  0.84610  0.63750  Biso   1.000  C
  C61      1.0000 0.30640  0.34610  0.86250  Biso   1.000  C
  C62      1.0000 0.80640  0.84610  0.86250  Biso   1.000  C
  C63      1.0000 0.30640  0.65390  0.36250  Biso   1.000  C
  C64      1.0000 0.80640  0.15390  0.36250  Biso   1.000  C
  H33      1.0000 0.70700  0.74880  0.15470  Biso   1.000  H
  H34      1.0000 0.20700  0.24880  0.15470  Biso   1.000  H
  H35      1.0000 0.70700  0.25120  0.65470  Biso   1.000  H
  H36      1.0000 0.20700  0.75120  0.65470  Biso   1.000  H
  H37      1.0000 0.29300  0.25120  0.84530  Biso   1.000  H
  H38      1.0000 0.79300  0.75120  0.84530  Biso   1.000  H
  H39      1.0000 0.29300  0.74880  0.34530  Biso   1.000  H
  H40      1.0000 0.79300  0.24880  0.34530  Biso   1.000  H
  C65      1.0000 0.64160  0.61100  0.13980  Biso   1.000  C
  C66      1.0000 0.14160  0.11100  0.13980  Biso   1.000  C
  C67      1.0000 0.64160  0.38900  0.63980  Biso   1.000  C
  C68      1.0000 0.14160  0.88900  0.63980  Biso   1.000  C
  C69      1.0000 0.35840  0.38900  0.86020  Biso   1.000  C
  C70      1.0000 0.85840  0.88900  0.86020  Biso   1.000  C
  C71      1.0000 0.35840  0.61100  0.36020  Biso   1.000  C
  C72      1.0000 0.85840  0.11100  0.36020  Biso   1.000  C
  H41      1.0000 0.62040  0.67680  0.15730  Biso   1.000  H
  H42      1.0000 0.12040  0.17680  0.15730  Biso   1.000  H
  H43      1.0000 0.62040  0.32320  0.65730  Biso   1.000  H
  H44      1.0000 0.12040  0.82320  0.65730  Biso   1.000  H
  H45      1.0000 0.37960  0.32320  0.84270  Biso   1.000  H
  H46      1.0000 0.87960  0.82320  0.84270  Biso   1.000  H
  H47      1.0000 0.37960  0.67680  0.34270  Biso   1.000  H
  H48      1.0000 0.87960  0.17680  0.34270  Biso   1.000  H
  C73      1.0000 0.62310  0.47450  0.11660  Biso   1.000  C
  C74      1.0000 0.12310  0.97450  0.11660  Biso   1.000  C
  C75      1.0000 0.62310  0.52550  0.61660  Biso   1.000  C
  C76      1.0000 0.12310  0.02550  0.61660  Biso   1.000  C
  C77      1.0000 0.37690  0.52550  0.88340  Biso   1.000  C
  C78      1.0000 0.87690  0.02550  0.88340  Biso   1.000  C
  C79      1.0000 0.37690  0.47450  0.38340  Biso   1.000  C
  C80      1.0000 0.87690  0.97450  0.38340  Biso   1.000  C
  C81      1.0000 0.65530  0.37700  0.08960  Biso   1.000  C
  C82      1.0000 0.15530  0.87700  0.08960  Biso   1.000  C
  C83      1.0000 0.65530  0.62300  0.58960  Biso   1.000  C
  C84      1.0000 0.15530  0.12300  0.58960  Biso   1.000  C
  C85      1.0000 0.34470  0.62300  0.91040  Biso   1.000  C
  C86      1.0000 0.84470  0.12300  0.91040  Biso   1.000  C
  C87      1.0000 0.34470  0.37700  0.41040  Biso   1.000  C
  C88      1.0000 0.84470  0.87700  0.41040  Biso   1.000  C
  H49      1.0000 0.64300  0.28140  0.07270  Biso   1.000  H
  H50      1.0000 0.14300  0.78140  0.07270  Biso   1.000  H
  H51      1.0000 0.64300  0.71860  0.57270  Biso   1.000  H
  H52      1.0000 0.14300  0.21860  0.57270  Biso   1.000  H
  H53      1.0000 0.35700  0.71860  0.92730  Biso   1.000  H
  H54      1.0000 0.85700  0.21860  0.92730  Biso   1.000  H
  H55      1.0000 0.35700  0.28140  0.42730  Biso   1.000  H
  H56      1.0000 0.85700  0.78140  0.42730  Biso   1.000  H
  C89      1.0000 0.70650  0.42810  0.08900  Biso   1.000  C
  C90      1.0000 0.20650  0.92810  0.08900  Biso   1.000  C
  C91      1.0000 0.70650  0.57190  0.58900  Biso   1.000  C
  C92      1.0000 0.20650  0.07190  0.58900  Biso   1.000  C
  C93      1.0000 0.29350  0.57190  0.91100  Biso   1.000  C
  C94      1.0000 0.79350  0.07190  0.91100  Biso   1.000  C
  C95      1.0000 0.29350  0.42810  0.41100  Biso   1.000  C
  C96      1.0000 0.79350  0.92810  0.41100  Biso   1.000  C
  H57      1.0000 0.72880  0.36480  0.07220  Biso   1.000  H
  H58      1.0000 0.22880  0.86480  0.07220  Biso   1.000  H
  H59      1.0000 0.72880  0.63520  0.57220  Biso   1.000  H
  H60      1.0000 0.22880  0.13520  0.57220  Biso   1.000  H
  H61      1.0000 0.27120  0.63520  0.92780  Biso   1.000  H
  H62      1.0000 0.77120  0.13520  0.92780  Biso   1.000  H
  H63      1.0000 0.27120  0.36480  0.42780  Biso   1.000  H
  H64      1.0000 0.77120  0.86480  0.42780  Biso   1.000  H
  N17      1.0000 0.76230  0.50300  0.93010  Biso   1.000  N
  N18      1.0000 0.26230  0.00300  0.93010  Biso   1.000  N
  N19      1.0000 0.76230  0.49700  0.43010  Biso   1.000  N
  N20      1.0000 0.26230  0.99700  0.43010  Biso   1.000  N
  N21      1.0000 0.23770  0.49700  0.06990  Biso   1.000  N
  N22      1.0000 0.73770  0.99700  0.06990  Biso   1.000  N
  N23      1.0000 0.23770  0.50300  0.56990  Biso   1.000  N
  N24      1.0000 0.73770  0.00300  0.56990  Biso   1.000  N
  O1       1.0000 0.75420  0.62750  0.96190  Biso   1.000  O
  O2       1.0000 0.25420  0.12750  0.96190  Biso   1.000  O
  O3       1.0000 0.75420  0.37250  0.46190  Biso   1.000  O
  O4       1.0000 0.25420  0.87250  0.46190  Biso   1.000  O
  O5       1.0000 0.24580  0.37250  0.03810  Biso   1.000  O
  O6       1.0000 0.74580  0.87250  0.03810  Biso   1.000  O
  O7       1.0000 0.24580  0.62750  0.53810  Biso   1.000  O
  O8       1.0000 0.74580  0.12750  0.53810  Biso   1.000  O
  O9       1.0000 0.79250  0.40900  0.98880  Biso   1.000  O
  O10      1.0000 0.29250  0.90900  0.98880  Biso   1.000  O
  O11      1.0000 0.79250  0.59100  0.48880  Biso   1.000  O
  O12      1.0000 0.29250  0.09100  0.48880  Biso   1.000  O
  O13      1.0000 0.20750  0.59100  0.01120  Biso   1.000  O
  O14      1.0000 0.70750  0.09100  0.01120  Biso   1.000  O
  O15      1.0000 0.20750  0.40900  0.51120  Biso   1.000  O
  O16      1.0000 0.70750  0.90900  0.51120  Biso   1.000  O
  O17      1.0000 0.73980  0.48640  0.84420  Biso   1.000  O
  O18      1.0000 0.23980  0.98640  0.84420  Biso   1.000  O
  O19      1.0000 0.73980  0.51360  0.34420  Biso   1.000  O
  O20      1.0000 0.23980  0.01360  0.34420  Biso   1.000  O
  O21      1.0000 0.26020  0.51360  0.15580  Biso   1.000  O
  O22      1.0000 0.76020  0.01360  0.15580  Biso   1.000  O
  O23      1.0000 0.26020  0.48640  0.65580  Biso   1.000  O
  O24      1.0000 0.76020  0.98640  0.65580  Biso   1.000  O
  N25      1.0000 0.86090  0.53600  0.28550  Biso   1.000  N
  N26      1.0000 0.36090  0.03600  0.28550  Biso   1.000  N
  N27      1.0000 0.86090  0.46400  0.78550  Biso   1.000  N
  N28      1.0000 0.36090  0.96400  0.78550  Biso   1.000  N
  N29      1.0000 0.13910  0.46400  0.71450  Biso   1.000  N
  N30      1.0000 0.63910  0.96400  0.71450  Biso   1.000  N
  N31      1.0000 0.13910  0.53600  0.21450  Biso   1.000  N
  N32      1.0000 0.63910  0.03600  0.21450  Biso   1.000  N
  O25      1.0000 0.83610  0.65950  0.25160  Biso   1.000  O
  O26      1.0000 0.33610  0.15950  0.25160  Biso   1.000  O
  O27      1.0000 0.83610  0.34050  0.75160  Biso   1.000  O
  O28      1.0000 0.33610  0.84050  0.75160  Biso   1.000  O
  O29      1.0000 0.16390  0.34050  0.74840  Biso   1.000  O
  O30      1.0000 0.66390  0.84050  0.74840  Biso   1.000  O
  O31      1.0000 0.16390  0.65950  0.24840  Biso   1.000  O
  O32      1.0000 0.66390  0.15950  0.24840  Biso   1.000  O
  O33      1.0000 0.85460  0.43640  0.22970  Biso   1.000  O
  O34      1.0000 0.35460  0.93640  0.22970  Biso   1.000  O
  O35      1.0000 0.85460  0.56360  0.72970  Biso   1.000  O
  O36      1.0000 0.35460  0.06360  0.72970  Biso   1.000  O
  O37      1.0000 0.14540  0.56360  0.77030  Biso   1.000  O
  O38      1.0000 0.64540  0.06360  0.77030  Biso   1.000  O
  O39      1.0000 0.14540  0.43640  0.27030  Biso   1.000  O
  O40      1.0000 0.64540  0.93640  0.27030  Biso   1.000  O
  O41      1.0000 0.88840  0.52400  0.37600  Biso   1.000  O
  O42      1.0000 0.38840  0.02400  0.37600  Biso   1.000  O
  O43      1.0000 0.88840  0.47600  0.87600  Biso   1.000  O
  O44      1.0000 0.38840  0.97600  0.87600  Biso   1.000  O
  O45      1.0000 0.11160  0.47600  0.62400  Biso   1.000  O
  O46      1.0000 0.61160  0.97600  0.62400  Biso   1.000  O
  O47      1.0000 0.11160  0.52400  0.12400  Biso   1.000  O
  O48      1.0000 0.61160  0.02400  0.12400  Biso   1.000  O
  O49      1.0000 0.94820  0.25400  0.22800  Biso   1.000  O
  O50      1.0000 0.44820  0.75400  0.22800  Biso   1.000  O
  O51      1.0000 0.94820  0.74600  0.72800  Biso   1.000  O
  O52      1.0000 0.44820  0.24600  0.72800  Biso   1.000  O
  O53      1.0000 0.05180  0.74600  0.77200  Biso   1.000  O
  O54      1.0000 0.55180  0.24600  0.77200  Biso   1.000  O
  O55      1.0000 0.05180  0.25400  0.27200  Biso   1.000  O
  O56      1.0000 0.55180  0.75400  0.27200  Biso   1.000  O
  C97      1.0000 0.00000  0.31300  0.25000  Biso   1.000  C
  C98      1.0000 0.50000  0.81300  0.25000  Biso   1.000  C
  C99      1.0000 0.00000  0.68700  0.75000  Biso   1.000  C
  C100     1.0000 0.50000  0.18700  0.75000  Biso   1.000  C
  C101     1.0000 0.99700  0.29300  0.14900  Biso   1.000  C
  C102     1.0000 0.49700  0.79300  0.14900  Biso   1.000  C
  C103     1.0000 0.99700  0.70700  0.64900  Biso   1.000  C
  C104     1.0000 0.49700  0.20700  0.64900  Biso   1.000  C
  C105     1.0000 0.00300  0.70700  0.85100  Biso   1.000  C
  C106     1.0000 0.50300  0.20700  0.85100  Biso   1.000  C
  C107     1.0000 0.00300  0.29300  0.35100  Biso   1.000  C
  C108     1.0000 0.50300  0.79300  0.35100  Biso   1.000  C
