data_image0
_cell_length_a       12.363
_cell_length_b       10.249
_cell_length_c       19.897
_cell_angle_alpha    90
_cell_angle_beta     101.34
_cell_angle_gamma    90

_symmetry_space_group_name_H-M    "P 1"
_symmetry_int_tables_number       1

loop_
  _symmetry_equiv_pos_as_xyz
  'x, y, z'

loop_
  _atom_site_label
  _atom_site_occupancy
  _atom_site_fract_x
  _atom_site_fract_y
  _atom_site_fract_z
  _atom_site_thermal_displace_type
  _atom_site_B_iso_or_equiv
  _atom_site_type_symbol
  Cu1      1.0000 0.00000  0.00000  0.00000  Biso   1.000  Cu
  Cu2      1.0000 0.50000  0.50000  0.50000  Biso   1.000  Cu
  C1       1.0000 0.07160  0.36030  0.30862  Biso   1.000  C
  C2       1.0000 0.42840  0.86030  0.19138  Biso   1.000  C
  C3       1.0000 0.92840  0.63970  0.69138  Biso   1.000  C
  C4       1.0000 0.57160  0.13970  0.80862  Biso   1.000  C
  C5       1.0000 0.02060  0.40960  0.24541  Biso   1.000  C
  C6       1.0000 0.47940  0.90960  0.25459  Biso   1.000  C
  C7       1.0000 0.97940  0.59040  0.75459  Biso   1.000  C
  C8       1.0000 0.52060  0.09040  0.74541  Biso   1.000  C
  C9       1.0000 0.91610  0.46640  0.23813  Biso   1.000  C
  C10      1.0000 0.58390  0.96640  0.26187  Biso   1.000  C
  C11      1.0000 0.08390  0.53360  0.76187  Biso   1.000  C
  C12      1.0000 0.41610  0.03360  0.73813  Biso   1.000  C
  H1       1.0000 0.88210  0.49780  0.19530  Biso   1.000  H
  H2       1.0000 0.61790  0.99780  0.30470  Biso   1.000  H
  H3       1.0000 0.11790  0.50220  0.80470  Biso   1.000  H
  H4       1.0000 0.38210  0.00220  0.69530  Biso   1.000  H
  C13      1.0000 0.86130  0.47760  0.29237  Biso   1.000  C
  C14      1.0000 0.63870  0.97760  0.20763  Biso   1.000  C
  C15      1.0000 0.13870  0.52240  0.70763  Biso   1.000  C
  C16      1.0000 0.36130  0.02240  0.79237  Biso   1.000  C
  C17      1.0000 0.91570  0.42810  0.35528  Biso   1.000  C
  C18      1.0000 0.58430  0.92810  0.14472  Biso   1.000  C
  C19      1.0000 0.08430  0.57190  0.64472  Biso   1.000  C
  C20      1.0000 0.41570  0.07190  0.85528  Biso   1.000  C
  H5       1.0000 0.88140  0.43480  0.39280  Biso   1.000  H
  H6       1.0000 0.61860  0.93480  0.10720  Biso   1.000  H
  H7       1.0000 0.11860  0.56520  0.60720  Biso   1.000  H
  H8       1.0000 0.38140  0.06520  0.89280  Biso   1.000  H
  C21      1.0000 0.01810  0.36940  0.36450  Biso   1.000  C
  C22      1.0000 0.48190  0.86940  0.13550  Biso   1.000  C
  C23      1.0000 0.98190  0.63060  0.63550  Biso   1.000  C
  C24      1.0000 0.51810  0.13060  0.86450  Biso   1.000  C
  C25      1.0000 0.74820  0.54270  0.28618  Biso   1.000  C
  C26      1.0000 0.75180  0.04270  0.21382  Biso   1.000  C
  C27      1.0000 0.25180  0.45730  0.71382  Biso   1.000  C
  C28      1.0000 0.24820  0.95730  0.78618  Biso   1.000  C
  C29      1.0000 0.70360  0.59170  0.21320  Biso   1.000  C
  C30      1.0000 0.79640  0.09170  0.28680  Biso   1.000  C
  C31      1.0000 0.29640  0.40830  0.78680  Biso   1.000  C
  C32      1.0000 0.20360  0.90830  0.71320  Biso   1.000  C
  H9       1.0000 0.69180  0.51890  0.18230  Biso   1.000  H
  H10      1.0000 0.80820  0.01890  0.31770  Biso   1.000  H
  H11      1.0000 0.30820  0.48110  0.81770  Biso   1.000  H
  H12      1.0000 0.19180  0.98110  0.68230  Biso   1.000  H
  H13      1.0000 0.75610  0.65030  0.19970  Biso   1.000  H
  H14      1.0000 0.74390  0.15030  0.30030  Biso   1.000  H
  H15      1.0000 0.24390  0.34970  0.80030  Biso   1.000  H
  H16      1.0000 0.25610  0.84970  0.69970  Biso   1.000  H
  H17      1.0000 0.63520  0.63670  0.21200  Biso   1.000  H
  H18      1.0000 0.86480  0.13670  0.28800  Biso   1.000  H
  H19      1.0000 0.36480  0.36330  0.78800  Biso   1.000  H
  H20      1.0000 0.13520  0.86330  0.71200  Biso   1.000  H
  C33      1.0000 0.75800  0.65940  0.33510  Biso   1.000  C
  C34      1.0000 0.74200  0.15940  0.16490  Biso   1.000  C
  C35      1.0000 0.24200  0.34060  0.66490  Biso   1.000  C
  C36      1.0000 0.25800  0.84060  0.83510  Biso   1.000  C
  H21      1.0000 0.80730  0.72270  0.32220  Biso   1.000  H
  H22      1.0000 0.69270  0.22270  0.17780  Biso   1.000  H
  H23      1.0000 0.19270  0.27730  0.67780  Biso   1.000  H
  H24      1.0000 0.30730  0.77730  0.82220  Biso   1.000  H
  H25      1.0000 0.78610  0.63040  0.38110  Biso   1.000  H
  H26      1.0000 0.71390  0.13040  0.11890  Biso   1.000  H
  H27      1.0000 0.21390  0.36960  0.61890  Biso   1.000  H
  H28      1.0000 0.28610  0.86960  0.88110  Biso   1.000  H
  H29      1.0000 0.68660  0.69800  0.33260  Biso   1.000  H
  H30      1.0000 0.81340  0.19800  0.16740  Biso   1.000  H
  H31      1.0000 0.31340  0.30200  0.66740  Biso   1.000  H
  H32      1.0000 0.18660  0.80200  0.83260  Biso   1.000  H
  C37      1.0000 0.66520  0.44430  0.30530  Biso   1.000  C
  C38      1.0000 0.83480  0.94430  0.19470  Biso   1.000  C
  C39      1.0000 0.33480  0.55570  0.69470  Biso   1.000  C
  C40      1.0000 0.16520  0.05570  0.80530  Biso   1.000  C
  H33      1.0000 0.59740  0.48830  0.30740  Biso   1.000  H
  H34      1.0000 0.90260  0.98830  0.19260  Biso   1.000  H
  H35      1.0000 0.40260  0.51170  0.69260  Biso   1.000  H
  H36      1.0000 0.09740  0.01170  0.80740  Biso   1.000  H
  H37      1.0000 0.69500  0.40660  0.34920  Biso   1.000  H
  H38      1.0000 0.80500  0.90660  0.15080  Biso   1.000  H
  H39      1.0000 0.30500  0.59340  0.65080  Biso   1.000  H
  H40      1.0000 0.19500  0.09340  0.84920  Biso   1.000  H
  H41      1.0000 0.65140  0.37670  0.27130  Biso   1.000  H
  H42      1.0000 0.84860  0.87670  0.22870  Biso   1.000  H
  H43      1.0000 0.34860  0.62330  0.72870  Biso   1.000  H
  H44      1.0000 0.15140  0.12330  0.77130  Biso   1.000  H
  C41      1.0000 0.07790  0.41010  0.18457  Biso   1.000  C
  C42      1.0000 0.42210  0.91010  0.31543  Biso   1.000  C
  C43      1.0000 0.92210  0.58990  0.81543  Biso   1.000  C
  C44      1.0000 0.57790  0.08990  0.68457  Biso   1.000  C
  H45      1.0000 0.04180  0.47280  0.15100  Biso   1.000  H
  H46      1.0000 0.45820  0.97280  0.34900  Biso   1.000  H
  H47      1.0000 0.95820  0.52720  0.84900  Biso   1.000  H
  H48      1.0000 0.54180  0.02720  0.65100  Biso   1.000  H
  H49      1.0000 0.15380  0.43790  0.19980  Biso   1.000  H
  H50      1.0000 0.34620  0.93790  0.30020  Biso   1.000  H
  H51      1.0000 0.84620  0.56210  0.80020  Biso   1.000  H
  H52      1.0000 0.65380  0.06210  0.69980  Biso   1.000  H
  C45      1.0000 0.02200  0.24090  0.09155  Biso   1.000  C
  C46      1.0000 0.47800  0.74090  0.40845  Biso   1.000  C
  C47      1.0000 0.97800  0.75910  0.90845  Biso   1.000  C
  C48      1.0000 0.52200  0.25910  0.59155  Biso   1.000  C
  H53      1.0000 0.97390  0.29160  0.06030  Biso   1.000  H
  H54      1.0000 0.52610  0.79160  0.43970  Biso   1.000  H
  H55      1.0000 0.02610  0.70840  0.93970  Biso   1.000  H
  H56      1.0000 0.47390  0.20840  0.56030  Biso   1.000  H
  C49      1.0000 0.11850  0.08690  0.14084  Biso   1.000  C
  C50      1.0000 0.38150  0.58690  0.35916  Biso   1.000  C
  C51      1.0000 0.88150  0.91310  0.85916  Biso   1.000  C
  C52      1.0000 0.61850  0.41310  0.64084  Biso   1.000  C
  H57      1.0000 0.15040  0.00480  0.14920  Biso   1.000  H
  H58      1.0000 0.34960  0.50480  0.35080  Biso   1.000  H
  H59      1.0000 0.84960  0.99520  0.85080  Biso   1.000  H
  H60      1.0000 0.65040  0.49520  0.64920  Biso   1.000  H
  C53      1.0000 0.26180  0.55940  0.50174  Biso   1.000  C
  C54      1.0000 0.23820  0.05940  0.99826  Biso   1.000  C
  C55      1.0000 0.73820  0.44060  0.49826  Biso   1.000  C
  C56      1.0000 0.76180  0.94060  0.00174  Biso   1.000  C
  H61      1.0000 0.28080  0.64290  0.51820  Biso   1.000  H
  H62      1.0000 0.21920  0.14290  0.98180  Biso   1.000  H
  H63      1.0000 0.71920  0.35710  0.48180  Biso   1.000  H
  H64      1.0000 0.78080  0.85710  0.01820  Biso   1.000  H
  C57      1.0000 0.27670  0.36430  0.47002  Biso   1.000  C
  C58      1.0000 0.22330  0.86430  0.02998  Biso   1.000  C
  C59      1.0000 0.72330  0.63570  0.52998  Biso   1.000  C
  C60      1.0000 0.77670  0.13570  0.97002  Biso   1.000  C
  H65      1.0000 0.30370  0.28400  0.45910  Biso   1.000  H
  H66      1.0000 0.19630  0.78400  0.04090  Biso   1.000  H
  H67      1.0000 0.69630  0.71600  0.54090  Biso   1.000  H
  H68      1.0000 0.80370  0.21600  0.95910  Biso   1.000  H
  C61      1.0000 0.07350  0.31730  0.43363  Biso   1.000  C
  C62      1.0000 0.42650  0.81730  0.06637  Biso   1.000  C
  C63      1.0000 0.92650  0.68270  0.56637  Biso   1.000  C
  C64      1.0000 0.57350  0.18270  0.93363  Biso   1.000  C
  H69      1.0000 0.09560  0.22760  0.42880  Biso   1.000  H
  H70      1.0000 0.40440  0.72760  0.07120  Biso   1.000  H
  H71      1.0000 0.90440  0.77240  0.57120  Biso   1.000  H
  H72      1.0000 0.59560  0.27240  0.92880  Biso   1.000  H
  H73      1.0000 0.02150  0.31840  0.46430  Biso   1.000  H
  H74      1.0000 0.47850  0.81840  0.03570  Biso   1.000  H
  H75      1.0000 0.97850  0.68160  0.53570  Biso   1.000  H
  H76      1.0000 0.52150  0.18160  0.96430  Biso   1.000  H
  C65      1.0000 0.04500  0.78950  0.38790  Biso   1.000  C
  C66      1.0000 0.45500  0.28950  0.11210  Biso   1.000  C
  C67      1.0000 0.95500  0.21050  0.61210  Biso   1.000  C
  C68      1.0000 0.54500  0.71050  0.88790  Biso   1.000  C
  H77      1.0000 0.03440  0.69680  0.38350  Biso   1.000  H
  H78      1.0000 0.46560  0.19680  0.11650  Biso   1.000  H
  H79      1.0000 0.96560  0.30320  0.61650  Biso   1.000  H
  H80      1.0000 0.53440  0.80320  0.88350  Biso   1.000  H
  H81      1.0000 0.97720  0.83010  0.39320  Biso   1.000  H
  H82      1.0000 0.52280  0.33010  0.10680  Biso   1.000  H
  H83      1.0000 0.02280  0.16990  0.60680  Biso   1.000  H
  H84      1.0000 0.47720  0.66990  0.89320  Biso   1.000  H
  H85      1.0000 0.10130  0.80790  0.42740  Biso   1.000  H
  H86      1.0000 0.39870  0.30790  0.07260  Biso   1.000  H
  H87      1.0000 0.89870  0.19210  0.57260  Biso   1.000  H
  H88      1.0000 0.60130  0.69210  0.92740  Biso   1.000  H
  C69      1.0000 0.10460  0.97590  0.32740  Biso   1.000  C
  C70      1.0000 0.39540  0.47590  0.17260  Biso   1.000  C
  C71      1.0000 0.89540  0.02410  0.67260  Biso   1.000  C
  C72      1.0000 0.60460  0.52410  0.82740  Biso   1.000  C
  H89      1.0000 0.16580  0.99370  0.36410  Biso   1.000  H
  H90      1.0000 0.33420  0.49370  0.13590  Biso   1.000  H
  H91      1.0000 0.83420  0.00630  0.63590  Biso   1.000  H
  H92      1.0000 0.66580  0.50630  0.86410  Biso   1.000  H
  H93      1.0000 0.04190  0.02610  0.33380  Biso   1.000  H
  H94      1.0000 0.45810  0.52610  0.16620  Biso   1.000  H
  H95      1.0000 0.95810  0.97390  0.66620  Biso   1.000  H
  H96      1.0000 0.54190  0.47390  0.83380  Biso   1.000  H
  H97      1.0000 0.12390  0.99920  0.28450  Biso   1.000  H
  H98      1.0000 0.37610  0.49920  0.21550  Biso   1.000  H
  H99      1.0000 0.87610  0.00080  0.71550  Biso   1.000  H
  H100     1.0000 0.62390  0.50080  0.78450  Biso   1.000  H
  C73      1.0000 0.08330  0.76710  0.27300  Biso   1.000  C
  C74      1.0000 0.41670  0.26710  0.22700  Biso   1.000  C
  C75      1.0000 0.91670  0.23290  0.72700  Biso   1.000  C
  C76      1.0000 0.58330  0.73290  0.77300  Biso   1.000  C
  H101     1.0000 0.06550  0.67930  0.27550  Biso   1.000  H
  H102     1.0000 0.43450  0.17930  0.22450  Biso   1.000  H
  H103     1.0000 0.93450  0.32070  0.72450  Biso   1.000  H
  H104     1.0000 0.56550  0.82070  0.77550  Biso   1.000  H
  Cl1      1.0000 0.80160  0.52345  0.01626  Biso   1.000  Cl
  Cl2      1.0000 0.69840  0.02345  0.48374  Biso   1.000  Cl
  Cl3      1.0000 0.19840  0.47655  0.98374  Biso   1.000  Cl
  Cl4      1.0000 0.30160  0.97655  0.51626  Biso   1.000  Cl
  N1       1.0000 0.07675  0.28180  0.15191  Biso   1.000  N
  N2       1.0000 0.42325  0.78180  0.34809  Biso   1.000  N
  N3       1.0000 0.92325  0.71820  0.84809  Biso   1.000  N
  N4       1.0000 0.57675  0.21820  0.65191  Biso   1.000  N
  N5       1.0000 0.13940  0.18390  0.18413  Biso   1.000  N
  N6       1.0000 0.36060  0.68390  0.31587  Biso   1.000  N
  N7       1.0000 0.86060  0.81610  0.81587  Biso   1.000  N
  N8       1.0000 0.63940  0.31610  0.68413  Biso   1.000  N
  N9       1.0000 0.04560  0.11780  0.08240  Biso   1.000  N
  N10      1.0000 0.45440  0.61780  0.41760  Biso   1.000  N
  N11      1.0000 0.95440  0.88220  0.91760  Biso   1.000  N
  N12      1.0000 0.54560  0.38220  0.58240  Biso   1.000  N
  N13      1.0000 0.33810  0.46670  0.49457  Biso   1.000  N
  N14      1.0000 0.16190  0.96670  0.00543  Biso   1.000  N
  N15      1.0000 0.66190  0.53330  0.50543  Biso   1.000  N
  N16      1.0000 0.83810  0.03330  0.99457  Biso   1.000  N
  N17      1.0000 0.15980  0.52020  0.48331  Biso   1.000  N
  N18      1.0000 0.34020  0.02020  0.01669  Biso   1.000  N
  N19      1.0000 0.84020  0.47980  0.51669  Biso   1.000  N
  N20      1.0000 0.65980  0.97980  0.98331  Biso   1.000  N
  N21      1.0000 0.17091  0.39510  0.46358  Biso   1.000  N
  N22      1.0000 0.32909  0.89510  0.03642  Biso   1.000  N
  N23      1.0000 0.82909  0.60490  0.53642  Biso   1.000  N
  N24      1.0000 0.67091  0.10490  0.96358  Biso   1.000  N
  N25      1.0000 0.07830  0.84010  0.32701  Biso   1.000  N
  N26      1.0000 0.42170  0.34010  0.17299  Biso   1.000  N
  N27      1.0000 0.92170  0.15990  0.67299  Biso   1.000  N
  N28      1.0000 0.57830  0.65990  0.82701  Biso   1.000  N
  O1       1.0000 0.17445  0.30510  0.32201  Biso   1.000  O
  O2       1.0000 0.32555  0.80510  0.17799  Biso   1.000  O
  O3       1.0000 0.82555  0.69490  0.67799  Biso   1.000  O
  O4       1.0000 0.67445  0.19490  0.82201  Biso   1.000  O
  H105     1.0000 0.18730  0.27200  0.28690  Biso   1.000  H
  H106     1.0000 0.31270  0.77200  0.21310  Biso   1.000  H
  H107     1.0000 0.81270  0.72800  0.71310  Biso   1.000  H
  H108     1.0000 0.68730  0.22800  0.78690  Biso   1.000  H
  O5       1.0000 0.00390  0.80690  0.07749  Biso   1.000  O
  O6       1.0000 0.49610  0.30690  0.42251  Biso   1.000  O
  O7       1.0000 0.99610  0.19310  0.92251  Biso   1.000  O
  O8       1.0000 0.50390  0.69310  0.57749  Biso   1.000  O
  H109     1.0000 0.94690  0.75940  0.06600  Biso   1.000  H
  H110     1.0000 0.55310  0.25940  0.43400  Biso   1.000  H
  H111     1.0000 0.05310  0.24060  0.93400  Biso   1.000  H
  H112     1.0000 0.44690  0.74060  0.56600  Biso   1.000  H
  H113     1.0000 0.01510  0.82750  0.11970  Biso   1.000  H
  H114     1.0000 0.48490  0.32750  0.38030  Biso   1.000  H
  H115     1.0000 0.98490  0.17250  0.88030  Biso   1.000  H
  H116     1.0000 0.51510  0.67250  0.61970  Biso   1.000  H
  O9       1.0000 0.80160  0.62480  0.96790  Biso   1.000  O
  O10      1.0000 0.69840  0.12480  0.53210  Biso   1.000  O
  O11      1.0000 0.19840  0.37520  0.03210  Biso   1.000  O
  O12      1.0000 0.30160  0.87520  0.46790  Biso   1.000  O
  O13      1.0000 0.89330  0.55020  0.06730  Biso   1.000  O
  O14      1.0000 0.60670  0.05020  0.43270  Biso   1.000  O
  O15      1.0000 0.10670  0.44980  0.93270  Biso   1.000  O
  O16      1.0000 0.39330  0.94980  0.56730  Biso   1.000  O
  O17      1.0000 0.84230  0.44770  0.96260  Biso   1.000  O
  O18      1.0000 0.65770  0.94770  0.53740  Biso   1.000  O
  O19      1.0000 0.15770  0.55230  0.03740  Biso   1.000  O
  O20      1.0000 0.34230  0.05230  0.46260  Biso   1.000  O
  O21      1.0000 0.72380  0.45220  0.01550  Biso   1.000  O
  O22      1.0000 0.77620  0.95220  0.48450  Biso   1.000  O
  O23      1.0000 0.27620  0.54780  0.98450  Biso   1.000  O
  O24      1.0000 0.22380  0.04780  0.51550  Biso   1.000  O
  O25      1.0000 0.10930  0.80500  0.21973  Biso   1.000  O
  O26      1.0000 0.39070  0.30500  0.28027  Biso   1.000  O
  O27      1.0000 0.89070  0.19500  0.78027  Biso   1.000  O
  O28      1.0000 0.60930  0.69500  0.71973  Biso   1.000  O
  O29      1.0000 0.80900  0.62600  0.05740  Biso   1.000  O
  O30      1.0000 0.69100  0.12600  0.44260  Biso   1.000  O
  O31      1.0000 0.19100  0.37400  0.94260  Biso   1.000  O
  O32      1.0000 0.30900  0.87400  0.55740  Biso   1.000  O
  O33      1.0000 0.69140  0.58700  0.02930  Biso   1.000  O
  O34      1.0000 0.80860  0.08700  0.47070  Biso   1.000  O
  O35      1.0000 0.30860  0.41300  0.97070  Biso   1.000  O
  O36      1.0000 0.19140  0.91300  0.52930  Biso   1.000  O
  O37      1.0000 0.80530  0.41800  0.06550  Biso   1.000  O
  O38      1.0000 0.69470  0.91800  0.43450  Biso   1.000  O
  O39      1.0000 0.19470  0.58200  0.93450  Biso   1.000  O
  O40      1.0000 0.30530  0.08200  0.56550  Biso   1.000  O
