data_image0
_cell_length_a       10.6498
_cell_length_b       12.5501
_cell_length_c       16.9471
_cell_angle_alpha    99.125
_cell_angle_beta     97.698
_cell_angle_gamma    98.722

_symmetry_space_group_name_H-M    "P 1"
_symmetry_int_tables_number       1

loop_
  _symmetry_equiv_pos_as_xyz
  'x, y, z'

loop_
  _atom_site_label
  _atom_site_occupancy
  _atom_site_fract_x
  _atom_site_fract_y
  _atom_site_fract_z
  _atom_site_thermal_displace_type
  _atom_site_B_iso_or_equiv
  _atom_site_type_symbol
  C1       1.0000 0.50470  0.01890  0.89610  Biso   1.000  C
  C2       1.0000 0.49530  0.98110  0.10390  Biso   1.000  C
  H1       1.0000 0.44470  0.96450  0.90830  Biso   1.000  H
  H2       1.0000 0.55530  0.03550  0.09170  Biso   1.000  H
  C3       1.0000 0.63350  0.04220  0.92840  Biso   1.000  C
  C4       1.0000 0.36650  0.95780  0.07160  Biso   1.000  C
  H3       1.0000 0.67680  0.00770  0.96560  Biso   1.000  H
  H4       1.0000 0.32320  0.99230  0.03440  Biso   1.000  H
  C5       1.0000 0.68440  0.12750  0.89390  Biso   1.000  C
  C6       1.0000 0.31560  0.87250  0.10610  Biso   1.000  C
  H5       1.0000 0.77020  0.16180  0.90420  Biso   1.000  H
  H6       1.0000 0.22980  0.83820  0.09580  Biso   1.000  H
  C7       1.0000 0.69470  0.42600  0.67490  Biso   1.000  C
  C8       1.0000 0.30530  0.57400  0.32510  Biso   1.000  C
  H7       1.0000 0.77950  0.44030  0.70130  Biso   1.000  H
  H8       1.0000 0.22050  0.55970  0.29870  Biso   1.000  H
  C9       1.0000 0.64750  0.47790  0.61490  Biso   1.000  C
  C10      1.0000 0.35250  0.52210  0.38510  Biso   1.000  C
  H9       1.0000 0.69210  0.53270  0.59300  Biso   1.000  H
  H10      1.0000 0.30790  0.46730  0.40700  Biso   1.000  H
  C11      1.0000 0.51960  0.43080  0.59440  Biso   1.000  C
  C12      1.0000 0.48040  0.56920  0.40560  Biso   1.000  C
  H11      1.0000 0.46120  0.44910  0.55510  Biso   1.000  H
  H12      1.0000 0.53880  0.55090  0.44490  Biso   1.000  H
  C13      1.0000 0.06420  0.13370  0.59080  Biso   1.000  C
  C14      1.0000 0.93580  0.86630  0.40920  Biso   1.000  C
  H13      1.0000 0.04490  0.16430  0.54510  Biso   1.000  H
  H14      1.0000 0.95510  0.83570  0.45490  Biso   1.000  H
  C15      1.0000 0.98000  0.06010  0.61860  Biso   1.000  C
  C16      1.0000 0.02000  0.93990  0.38140  Biso   1.000  C
  H15      1.0000 0.89460  0.03140  0.59640  Biso   1.000  H
  H16      1.0000 0.10540  0.96860  0.40360  Biso   1.000  H
  C17      1.0000 0.04930  0.03840  0.68610  Biso   1.000  C
  C18      1.0000 0.95070  0.96160  0.31390  Biso   1.000  C
  H17      1.0000 0.01780  0.99080  0.71850  Biso   1.000  H
  H18      1.0000 0.98220  0.00920  0.28150  Biso   1.000  H
  C19      1.0000 0.15860  0.09410  0.89235  Biso   1.000  C
  C20      1.0000 0.84140  0.90590  0.10765  Biso   1.000  C
  C21      1.0000 0.07580  0.04500  0.94785  Biso   1.000  C
  C22      1.0000 0.92420  0.95500  0.05215  Biso   1.000  C
  C23      1.0000 0.02250  0.11110  0.00211  Biso   1.000  C
  C24      1.0000 0.97750  0.88890  0.99789  Biso   1.000  C
  H19      1.0000 0.03730  0.18660  0.00420  Biso   1.000  H
  H20      1.0000 0.96270  0.81340  0.99580  Biso   1.000  H
  C25      1.0000 0.05250  0.93270  0.94658  Biso   1.000  C
  C26      1.0000 0.94750  0.06730  0.05342  Biso   1.000  C
  H21      1.0000 0.08800  0.88650  0.91070  Biso   1.000  H
  H22      1.0000 0.91200  0.11350  0.08930  Biso   1.000  H
  C27      1.0000 0.75970  0.40570  0.89273  Biso   1.000  C
  C28      1.0000 0.24030  0.59430  0.10727  Biso   1.000  C
  C29      1.0000 0.88460  0.45440  0.94775  Biso   1.000  C
  C30      1.0000 0.11540  0.54560  0.05225  Biso   1.000  C
  C31      1.0000 0.99290  0.40600  0.94290  Biso   1.000  C
  C32      1.0000 0.00710  0.59400  0.05710  Biso   1.000  C
  H23      1.0000 0.98870  0.34300  0.90480  Biso   1.000  H
  H24      1.0000 0.01130  0.65700  0.09520  Biso   1.000  H
  C33      1.0000 0.10720  0.45140  0.99478  Biso   1.000  C
  C34      1.0000 0.89280  0.54860  0.00522  Biso   1.000  C
  H25      1.0000 0.17930  0.41840  0.99110  Biso   1.000  H
  H26      1.0000 0.82070  0.58160  0.00890  Biso   1.000  H
  C35      1.0000 0.29230  0.88650  0.62480  Biso   1.000  C
  C36      1.0000 0.70770  0.11350  0.37520  Biso   1.000  C
  H27      1.0000 0.25330  0.93710  0.60030  Biso   1.000  H
  H28      1.0000 0.74670  0.06290  0.39970  Biso   1.000  H
  C37      1.0000 0.24770  0.77060  0.49260  Biso   1.000  C
  C38      1.0000 0.75230  0.22940  0.50740  Biso   1.000  C
  H29      1.0000 0.20580  0.82930  0.47900  Biso   1.000  H
  H30      1.0000 0.79420  0.17070  0.52100  Biso   1.000  H
  H31      1.0000 0.18680  0.70310  0.47980  Biso   1.000  H
  H32      1.0000 0.81320  0.29690  0.52020  Biso   1.000  H
  H33      1.0000 0.31680  0.76420  0.46200  Biso   1.000  H
  H34      1.0000 0.68320  0.23580  0.53800  Biso   1.000  H
  C39      1.0000 0.35940  0.71140  0.61120  Biso   1.000  C
  C40      1.0000 0.64060  0.28860  0.38880  Biso   1.000  C
  H35      1.0000 0.29520  0.64940  0.61250  Biso   1.000  H
  H36      1.0000 0.70480  0.35060  0.38750  Biso   1.000  H
  H37      1.0000 0.40350  0.74160  0.66510  Biso   1.000  H
  H38      1.0000 0.59650  0.25840  0.33490  Biso   1.000  H
  H39      1.0000 0.42010  0.68850  0.57780  Biso   1.000  H
  H40      1.0000 0.57990  0.31150  0.42220  Biso   1.000  H
  C41      1.0000 0.17290  0.40510  0.60480  Biso   1.000  C
  C42      1.0000 0.82710  0.59490  0.39520  Biso   1.000  C
  C43      1.0000 0.08300  0.45360  0.54977  Biso   1.000  C
  C44      1.0000 0.91700  0.54640  0.45023  Biso   1.000  C
  C45      1.0000 0.02010  0.53460  0.58237  Biso   1.000  C
  C46      1.0000 0.97990  0.46540  0.41763  Biso   1.000  C
  H41      1.0000 0.03310  0.55810  0.63820  Biso   1.000  H
  H42      1.0000 0.96690  0.44190  0.36180  Biso   1.000  H
  C47      1.0000 0.06170  0.41890  0.46690  Biso   1.000  C
  C48      1.0000 0.93830  0.58110  0.53310  Biso   1.000  C
  H43      1.0000 0.10260  0.36400  0.44410  Biso   1.000  H
  H44      1.0000 0.89740  0.63600  0.55590  Biso   1.000  H
  Cu1      1.0000 0.59753  0.25984  0.77175  Biso   1.000  Cu
  Cu2      1.0000 0.40247  0.74016  0.22825  Biso   1.000  Cu
  Cu3      1.0000 0.33103  0.26032  0.64186  Biso   1.000  Cu
  Cu4      1.0000 0.66897  0.73968  0.35814  Biso   1.000  Cu
  Cu5      1.0000 0.31930  0.08906  0.77502  Biso   1.000  Cu
  Cu6      1.0000 0.68070  0.91094  0.22498  Biso   1.000  Cu
  N1       1.0000 0.47890  0.08567  0.84472  Biso   1.000  N
  N2       1.0000 0.52110  0.91433  0.15528  Biso   1.000  N
  N3       1.0000 0.59060  0.15370  0.84305  Biso   1.000  N
  N4       1.0000 0.40940  0.84630  0.15695  Biso   1.000  N
  N5       1.0000 0.60150  0.35198  0.68996  Biso   1.000  N
  N6       1.0000 0.39850  0.64802  0.31004  Biso   1.000  N
  N7       1.0000 0.49170  0.35492  0.63939  Biso   1.000  N
  N8       1.0000 0.50830  0.64508  0.36061  Biso   1.000  N
  N9       1.0000 0.17740  0.15460  0.63886  Biso   1.000  N
  N10      1.0000 0.82260  0.84540  0.36114  Biso   1.000  N
  N11      1.0000 0.16820  0.09500  0.69862  Biso   1.000  N
  N12      1.0000 0.83180  0.90500  0.30138  Biso   1.000  N
  N13      1.0000 0.29880  0.79320  0.57830  Biso   1.000  N
  N14      1.0000 0.70120  0.20680  0.42170  Biso   1.000  N
  O1       1.0000 0.42813  0.17794  0.71165  Biso   1.000  O
  O2       1.0000 0.57187  0.82206  0.28835  Biso   1.000  O
  H45      1.0000 0.45100  0.12900  0.68050  Biso   1.000  H
  H46      1.0000 0.54900  0.87100  0.31950  Biso   1.000  H
  O3       1.0000 0.21320  0.02802  0.84981  Biso   1.000  O
  O4       1.0000 0.78680  0.97198  0.15019  Biso   1.000  O
  O5       1.0000 0.16990  0.19382  0.89276  Biso   1.000  O
  O6       1.0000 0.83010  0.80618  0.10724  Biso   1.000  O
  O7       1.0000 0.76615  0.33602  0.83047  Biso   1.000  O
  O8       1.0000 0.23385  0.66398  0.16953  Biso   1.000  O
  O9       1.0000 0.65810  0.43304  0.90958  Biso   1.000  O
  O10      1.0000 0.34190  0.56696  0.09042  Biso   1.000  O
  O11      1.0000 0.23460  0.33781  0.56970  Biso   1.000  O
  O12      1.0000 0.76540  0.66219  0.43030  Biso   1.000  O
  O13      1.0000 0.18210  0.43240  0.67836  Biso   1.000  O
  O14      1.0000 0.81790  0.56760  0.32164  Biso   1.000  O
  O15      1.0000 0.33360  0.91180  0.69745  Biso   1.000  O
  O16      1.0000 0.66640  0.08820  0.30255  Biso   1.000  O
  C49      1.0000 0.50550  0.36810  0.07260  Biso   1.000  C
  C50      1.0000 0.49450  0.63190  0.92740  Biso   1.000  C
  C51      1.0000 0.35510  0.27250  0.14460  Biso   1.000  C
  C52      1.0000 0.64490  0.72750  0.85540  Biso   1.000  C
  H47      1.0000 0.29910  0.25290  0.09320  Biso   1.000  H
  H48      1.0000 0.70090  0.74710  0.90680  Biso   1.000  H
  H49      1.0000 0.30780  0.29860  0.18580  Biso   1.000  H
  H50      1.0000 0.69220  0.70140  0.81420  Biso   1.000  H
  H51      1.0000 0.38840  0.20930  0.15740  Biso   1.000  H
  H52      1.0000 0.61160  0.79070  0.84260  Biso   1.000  H
  C53      1.0000 0.50900  0.43980  0.21390  Biso   1.000  C
  C54      1.0000 0.49100  0.56020  0.78610  Biso   1.000  C
  H53      1.0000 0.59970  0.44240  0.22940  Biso   1.000  H
  H54      1.0000 0.40030  0.55760  0.77060  Biso   1.000  H
  H55      1.0000 0.46460  0.42000  0.25660  Biso   1.000  H
  H56      1.0000 0.53540  0.58000  0.74340  Biso   1.000  H
  H57      1.0000 0.49390  0.51050  0.20440  Biso   1.000  H
  H58      1.0000 0.50610  0.48950  0.79560  Biso   1.000  H
  C55      1.0000 0.45840  0.28270  0.99840  Biso   1.000  C
  C56      1.0000 0.54160  0.71730  0.00160  Biso   1.000  C
  H59      1.0000 0.36790  0.27970  0.98200  Biso   1.000  H
  H60      1.0000 0.63210  0.72030  0.01800  Biso   1.000  H
  H61      1.0000 0.47330  0.21270  0.00970  Biso   1.000  H
  H62      1.0000 0.52670  0.78730  0.99030  Biso   1.000  H
  H63      1.0000 0.50380  0.30070  0.95560  Biso   1.000  H
  H64      1.0000 0.49620  0.69930  0.04440  Biso   1.000  H
  N15      1.0000 0.46180  0.35870  0.14040  Biso   1.000  N
  N16      1.0000 0.53820  0.64130  0.85960  Biso   1.000  N
  O17      1.0000 0.59810  0.45070  0.07067  Biso   1.000  O
  O18      1.0000 0.40190  0.54930  0.92933  Biso   1.000  O
  H65      1.0000 0.64880  0.51580  0.11800  Biso   1.000  H
  H66      1.0000 0.35120  0.48420  0.88200  Biso   1.000  H
  C57      1.0000 0.52330  0.40460  0.11440  Biso   1.000  C
  C58      1.0000 0.47670  0.59540  0.88560  Biso   1.000  C
  C59      1.0000 0.35270  0.25120  0.11280  Biso   1.000  C
  C60      1.0000 0.64730  0.74880  0.88720  Biso   1.000  C
  H67      1.0000 0.32460  0.17900  0.08090  Biso   1.000  H
  H68      1.0000 0.67540  0.82100  0.91910  Biso   1.000  H
  H69      1.0000 0.27990  0.28720  0.11710  Biso   1.000  H
  H70      1.0000 0.72010  0.71280  0.88290  Biso   1.000  H
  H71      1.0000 0.39250  0.24570  0.16600  Biso   1.000  H
  H72      1.0000 0.60750  0.75430  0.83400  Biso   1.000  H
  C61      1.0000 0.44700  0.27500  0.98940  Biso   1.000  C
  C62      1.0000 0.55300  0.72500  0.01060  Biso   1.000  C
  H73      1.0000 0.42820  0.33080  0.95940  Biso   1.000  H
  H74      1.0000 0.57180  0.66920  0.04060  Biso   1.000  H
  H75      1.0000 0.38400  0.20940  0.96930  Biso   1.000  H
  H76      1.0000 0.61600  0.79060  0.03070  Biso   1.000  H
  H77      1.0000 0.53100  0.25950  0.98330  Biso   1.000  H
  H78      1.0000 0.46900  0.74050  0.01670  Biso   1.000  H
  C63      1.0000 0.52800  0.44200  0.20150  Biso   1.000  C
  C64      1.0000 0.47200  0.55800  0.79850  Biso   1.000  C
  H79      1.0000 0.44370  0.45150  0.21200  Biso   1.000  H
  H80      1.0000 0.55630  0.54850  0.78800  Biso   1.000  H
  H81      1.0000 0.58610  0.51110  0.21860  Biso   1.000  H
  H82      1.0000 0.41390  0.48890  0.78140  Biso   1.000  H
  H83      1.0000 0.55780  0.38910  0.23090  Biso   1.000  H
  H84      1.0000 0.44220  0.61090  0.76910  Biso   1.000  H
  N17      1.0000 0.44280  0.31250  0.07540  Biso   1.000  N
  N18      1.0000 0.55720  0.68750  0.92460  Biso   1.000  N
  H85      1.0000 0.63190  0.45330  0.01650  Biso   1.000  H
  H86      1.0000 0.36810  0.54670  0.98350  Biso   1.000  H
  C65      1.0000 0.77260  0.26660  0.17700  Biso   1.000  C
  C66      1.0000 0.22740  0.73340  0.82300  Biso   1.000  C
  H87      1.0000 0.74200  0.20220  0.19760  Biso   1.000  H
  H88      1.0000 0.25800  0.79780  0.80240  Biso   1.000  H
  H89      1.0000 0.75320  0.25150  0.11890  Biso   1.000  H
  H90      1.0000 0.24680  0.74850  0.88110  Biso   1.000  H
  H91      1.0000 0.73110  0.32540  0.19780  Biso   1.000  H
  H92      1.0000 0.26890  0.67460  0.80220  Biso   1.000  H
  C67      1.0000 0.97690  0.38870  0.17650  Biso   1.000  C
  C68      1.0000 0.02310  0.61130  0.82350  Biso   1.000  C
  H93      1.0000 0.06820  0.39520  0.19210  Biso   1.000  H
  H94      1.0000 0.93180  0.60480  0.80790  Biso   1.000  H
  H95      1.0000 0.94960  0.45400  0.20060  Biso   1.000  H
  H96      1.0000 0.05040  0.54600  0.79940  Biso   1.000  H
  H97      1.0000 0.95660  0.37910  0.11860  Biso   1.000  H
  H98      1.0000 0.04340  0.62090  0.88140  Biso   1.000  H
  C69      1.0000 0.96980  0.23900  0.24890  Biso   1.000  C
  C70      1.0000 0.03020  0.76100  0.75110  Biso   1.000  C
  H99      1.0000 0.92140  0.18070  0.26530  Biso   1.000  H
  H100     1.0000 0.07860  0.81930  0.73470  Biso   1.000  H
  N19      1.0000 0.91370  0.29850  0.20270  Biso   1.000  N
  N20      1.0000 0.08630  0.70150  0.79730  Biso   1.000  N
  O19      1.0000 0.08880  0.26150  0.27060  Biso   1.000  O
  O20      1.0000 0.91120  0.73850  0.72940  Biso   1.000  O
  C71      1.0000 0.86600  0.36000  0.14810  Biso   1.000  C
  C72      1.0000 0.13400  0.64000  0.85190  Biso   1.000  C
  H101     1.0000 0.79070  0.31690  0.11320  Biso   1.000  H
  H102     1.0000 0.20930  0.68310  0.88680  Biso   1.000  H
  H103     1.0000 0.93020  0.38080  0.11620  Biso   1.000  H
  H104     1.0000 0.06980  0.61920  0.88380  Biso   1.000  H
  H105     1.0000 0.84310  0.42450  0.17720  Biso   1.000  H
  H106     1.0000 0.15690  0.57550  0.82280  Biso   1.000  H
  C73      1.0000 0.85200  0.24100  0.25160  Biso   1.000  C
  C74      1.0000 0.14800  0.75900  0.74840  Biso   1.000  C
  H107     1.0000 0.78780  0.27960  0.27140  Biso   1.000  H
  H108     1.0000 0.21220  0.72040  0.72860  Biso   1.000  H
  H109     1.0000 0.91290  0.23320  0.29660  Biso   1.000  H
  H110     1.0000 0.08710  0.76680  0.70340  Biso   1.000  H
  H111     1.0000 0.81160  0.17000  0.22170  Biso   1.000  H
  H112     1.0000 0.18840  0.83000  0.77830  Biso   1.000  H
  C75      1.0000 0.05560  0.31600  0.21900  Biso   1.000  C
  C76      1.0000 0.94440  0.68400  0.78100  Biso   1.000  C
  H113     1.0000 0.11080  0.36030  0.19460  Biso   1.000  H
  H114     1.0000 0.88920  0.63970  0.80540  Biso   1.000  H
  C77      1.0000 0.70500  0.81590  0.59080  Biso   1.000  C
  C78      1.0000 0.29500  0.18410  0.40920  Biso   1.000  C
  H115     1.0000 0.75080  0.78810  0.63350  Biso   1.000  H
  H116     1.0000 0.24920  0.21190  0.36650  Biso   1.000  H
  H117     1.0000 0.63430  0.76060  0.56210  Biso   1.000  H
  H118     1.0000 0.36570  0.23940  0.43790  Biso   1.000  H
  H119     1.0000 0.76220  0.83550  0.55410  Biso   1.000  H
  H120     1.0000 0.23780  0.16450  0.44590  Biso   1.000  H
  C79      1.0000 0.69020  0.94770  0.71290  Biso   1.000  C
  C80      1.0000 0.30980  0.05230  0.28710  Biso   1.000  C
  H121     1.0000 0.73860  0.89810  0.73570  Biso   1.000  H
  H122     1.0000 0.26140  0.10190  0.26430  Biso   1.000  H
  H123     1.0000 0.74090  0.02000  0.72470  Biso   1.000  H
  H124     1.0000 0.25910  0.98000  0.27530  Biso   1.000  H
  H125     1.0000 0.61270  0.94860  0.73600  Biso   1.000  H
  H126     1.0000 0.38730  0.05140  0.26400  Biso   1.000  H
  C81      1.0000 0.59050  0.96690  0.58070  Biso   1.000  C
  C82      1.0000 0.40950  0.03310  0.41930  Biso   1.000  C
  H127     1.0000 0.57390  0.94420  0.52470  Biso   1.000  H
  H128     1.0000 0.42610  0.05580  0.47530  Biso   1.000  H
  N21      1.0000 0.65700  0.91120  0.62470  Biso   1.000  N
  N22      1.0000 0.34300  0.08880  0.37530  Biso   1.000  N
  O21      1.0000 0.54850  0.04930  0.61100  Biso   1.000  O
  O22      1.0000 0.45150  0.95070  0.38900  Biso   1.000  O
  C83      1.0000 0.72220  0.84280  0.66850  Biso   1.000  C
  C84      1.0000 0.27780  0.15720  0.33150  Biso   1.000  C
  H129     1.0000 0.75090  0.78920  0.63140  Biso   1.000  H
  H130     1.0000 0.24910  0.21080  0.36860  Biso   1.000  H
  H131     1.0000 0.79510  0.88660  0.70500  Biso   1.000  H
  H132     1.0000 0.20490  0.11340  0.29500  Biso   1.000  H
  H133     1.0000 0.66470  0.80640  0.69880  Biso   1.000  H
  H134     1.0000 0.33530  0.19360  0.30120  Biso   1.000  H
  C85      1.0000 0.63760  0.87700  0.53280  Biso   1.000  C
  C86      1.0000 0.36240  0.12300  0.46720  Biso   1.000  C
  H135     1.0000 0.68070  0.81650  0.51900  Biso   1.000  H
  H136     1.0000 0.31930  0.18350  0.48100  Biso   1.000  H
  H137     1.0000 0.54730  0.85550  0.51210  Biso   1.000  H
  H138     1.0000 0.45270  0.14450  0.48790  Biso   1.000  H
  H139     1.0000 0.67260  0.93760  0.50950  Biso   1.000  H
  H140     1.0000 0.32740  0.06240  0.49050  Biso   1.000  H
  C87      1.0000 0.60570  0.99210  0.65530  Biso   1.000  C
  C88      1.0000 0.39430  0.00790  0.34470  Biso   1.000  C
  H141     1.0000 0.61060  0.00910  0.71120  Biso   1.000  H
  H142     1.0000 0.38940  0.99090  0.28880  Biso   1.000  H
  O23      1.0000 0.71700  0.64730  0.18734  Biso   1.000  O
  O24      1.0000 0.28300  0.35270  0.81266  Biso   1.000  O
  H143     1.0000 0.77450  0.63410  0.20980  Biso   1.000  H
  H144     1.0000 0.22550  0.36590  0.79020  Biso   1.000  H
  H145     1.0000 0.75790  0.69310  0.17490  Biso   1.000  H
  H146     1.0000 0.24210  0.30690  0.82510  Biso   1.000  H
