data_image0
_cell_length_a       13.0333
_cell_length_b       29.0123
_cell_length_c       20.573
_cell_angle_alpha    90
_cell_angle_beta     90
_cell_angle_gamma    90

_symmetry_space_group_name_H-M    "P 1"
_symmetry_int_tables_number       1

loop_
  _symmetry_equiv_pos_as_xyz
  'x, y, z'

loop_
  _atom_site_label
  _atom_site_occupancy
  _atom_site_fract_x
  _atom_site_fract_y
  _atom_site_fract_z
  _atom_site_thermal_displace_type
  _atom_site_B_iso_or_equiv
  _atom_site_type_symbol
  C1       1.0000 0.50000  0.55950  0.58930  Biso   1.000  C
  C2       1.0000 0.50000  0.44050  0.58930  Biso   1.000  C
  C3       1.0000 0.50000  0.55950  0.41070  Biso   1.000  C
  C4       1.0000 0.50000  0.44050  0.41070  Biso   1.000  C
  C5       1.0000 0.00000  0.05950  0.58930  Biso   1.000  C
  C6       1.0000 0.00000  0.94050  0.58930  Biso   1.000  C
  C7       1.0000 0.00000  0.05950  0.41070  Biso   1.000  C
  C8       1.0000 0.00000  0.94050  0.41070  Biso   1.000  C
  C9       1.0000 0.50000  0.59100  0.64740  Biso   1.000  C
  C10      1.0000 0.50000  0.40900  0.64740  Biso   1.000  C
  C11      1.0000 0.50000  0.59100  0.35260  Biso   1.000  C
  C12      1.0000 0.50000  0.40900  0.35260  Biso   1.000  C
  C13      1.0000 0.00000  0.09100  0.64740  Biso   1.000  C
  C14      1.0000 0.00000  0.90900  0.64740  Biso   1.000  C
  C15      1.0000 0.00000  0.09100  0.35260  Biso   1.000  C
  C16      1.0000 0.00000  0.90900  0.35260  Biso   1.000  C
  C17      1.0000 0.58970  0.60350  0.67580  Biso   1.000  C
  C18      1.0000 0.41030  0.39650  0.67580  Biso   1.000  C
  C19      1.0000 0.41030  0.60350  0.32420  Biso   1.000  C
  C20      1.0000 0.58970  0.39650  0.32420  Biso   1.000  C
  C21      1.0000 0.08970  0.10350  0.67580  Biso   1.000  C
  C22      1.0000 0.91030  0.89650  0.67580  Biso   1.000  C
  C23      1.0000 0.91030  0.10350  0.32420  Biso   1.000  C
  C24      1.0000 0.08970  0.89650  0.32420  Biso   1.000  C
  C25      1.0000 0.41030  0.39650  0.32420  Biso   1.000  C
  C26      1.0000 0.58970  0.60350  0.32420  Biso   1.000  C
  C27      1.0000 0.58970  0.39650  0.67580  Biso   1.000  C
  C28      1.0000 0.41030  0.60350  0.67580  Biso   1.000  C
  C29      1.0000 0.91030  0.89650  0.32420  Biso   1.000  C
  C30      1.0000 0.08970  0.10350  0.32420  Biso   1.000  C
  C31      1.0000 0.08970  0.89650  0.67580  Biso   1.000  C
  C32      1.0000 0.91030  0.10350  0.67580  Biso   1.000  C
  H1       1.0000 0.65140  0.59290  0.65870  Biso   1.000  H
  H2       1.0000 0.34860  0.40710  0.65870  Biso   1.000  H
  H3       1.0000 0.34860  0.59290  0.34130  Biso   1.000  H
  H4       1.0000 0.65140  0.40710  0.34130  Biso   1.000  H
  H5       1.0000 0.15140  0.09290  0.65870  Biso   1.000  H
  H6       1.0000 0.84860  0.90710  0.65870  Biso   1.000  H
  H7       1.0000 0.84860  0.09290  0.34130  Biso   1.000  H
  H8       1.0000 0.15140  0.90710  0.34130  Biso   1.000  H
  H9       1.0000 0.34860  0.40710  0.34130  Biso   1.000  H
  H10      1.0000 0.65140  0.59290  0.34130  Biso   1.000  H
  H11      1.0000 0.65140  0.40710  0.65870  Biso   1.000  H
  H12      1.0000 0.34860  0.59290  0.65870  Biso   1.000  H
  H13      1.0000 0.84860  0.90710  0.34130  Biso   1.000  H
  H14      1.0000 0.15140  0.09290  0.34130  Biso   1.000  H
  H15      1.0000 0.15140  0.90710  0.65870  Biso   1.000  H
  H16      1.0000 0.84860  0.09290  0.65870  Biso   1.000  H
  C33      1.0000 0.59070  0.63180  0.73010  Biso   1.000  C
  C34      1.0000 0.40930  0.36820  0.73010  Biso   1.000  C
  C35      1.0000 0.40930  0.63180  0.26990  Biso   1.000  C
  C36      1.0000 0.59070  0.36820  0.26990  Biso   1.000  C
  C37      1.0000 0.09070  0.13180  0.73010  Biso   1.000  C
  C38      1.0000 0.90930  0.86820  0.73010  Biso   1.000  C
  C39      1.0000 0.90930  0.13180  0.26990  Biso   1.000  C
  C40      1.0000 0.09070  0.86820  0.26990  Biso   1.000  C
  C41      1.0000 0.40930  0.36820  0.26990  Biso   1.000  C
  C42      1.0000 0.59070  0.63180  0.26990  Biso   1.000  C
  C43      1.0000 0.59070  0.36820  0.73010  Biso   1.000  C
  C44      1.0000 0.40930  0.63180  0.73010  Biso   1.000  C
  C45      1.0000 0.90930  0.86820  0.26990  Biso   1.000  C
  C46      1.0000 0.09070  0.13180  0.26990  Biso   1.000  C
  C47      1.0000 0.09070  0.86820  0.73010  Biso   1.000  C
  C48      1.0000 0.90930  0.13180  0.73010  Biso   1.000  C
  H17      1.0000 0.65270  0.64160  0.74780  Biso   1.000  H
  H18      1.0000 0.34730  0.35840  0.74780  Biso   1.000  H
  H19      1.0000 0.34730  0.64160  0.25220  Biso   1.000  H
  H20      1.0000 0.65270  0.35840  0.25220  Biso   1.000  H
  H21      1.0000 0.15270  0.14160  0.74780  Biso   1.000  H
  H22      1.0000 0.84730  0.85840  0.74780  Biso   1.000  H
  H23      1.0000 0.84730  0.14160  0.25220  Biso   1.000  H
  H24      1.0000 0.15270  0.85840  0.25220  Biso   1.000  H
  H25      1.0000 0.34730  0.35840  0.25220  Biso   1.000  H
  H26      1.0000 0.65270  0.64160  0.25220  Biso   1.000  H
  H27      1.0000 0.65270  0.35840  0.74780  Biso   1.000  H
  H28      1.0000 0.34730  0.64160  0.74780  Biso   1.000  H
  H29      1.0000 0.84730  0.85840  0.25220  Biso   1.000  H
  H30      1.0000 0.15270  0.14160  0.25220  Biso   1.000  H
  H31      1.0000 0.15270  0.85840  0.74780  Biso   1.000  H
  H32      1.0000 0.84730  0.14160  0.74780  Biso   1.000  H
  C49      1.0000 0.50000  0.64510  0.75740  Biso   1.000  C
  C50      1.0000 0.50000  0.35490  0.75740  Biso   1.000  C
  C51      1.0000 0.50000  0.64510  0.24260  Biso   1.000  C
  C52      1.0000 0.50000  0.35490  0.24260  Biso   1.000  C
  C53      1.0000 0.00000  0.14510  0.75740  Biso   1.000  C
  C54      1.0000 0.00000  0.85490  0.75740  Biso   1.000  C
  C55      1.0000 0.00000  0.14510  0.24260  Biso   1.000  C
  C56      1.0000 0.00000  0.85490  0.24260  Biso   1.000  C
  C57      1.0000 0.50000  0.67400  0.81800  Biso   1.000  C
  C58      1.0000 0.50000  0.32600  0.81800  Biso   1.000  C
  C59      1.0000 0.50000  0.67400  0.18200  Biso   1.000  C
  C60      1.0000 0.50000  0.32600  0.18200  Biso   1.000  C
  C61      1.0000 0.00000  0.17400  0.81800  Biso   1.000  C
  C62      1.0000 0.00000  0.82600  0.81800  Biso   1.000  C
  C63      1.0000 0.00000  0.17400  0.18200  Biso   1.000  C
  C64      1.0000 0.00000  0.82600  0.18200  Biso   1.000  C
  C65      1.0000 0.63520  0.61600  0.94710  Biso   1.000  C
  C66      1.0000 0.36480  0.38400  0.94710  Biso   1.000  C
  C67      1.0000 0.36480  0.61600  0.05290  Biso   1.000  C
  C68      1.0000 0.63520  0.38400  0.05290  Biso   1.000  C
  C69      1.0000 0.13520  0.11600  0.94710  Biso   1.000  C
  C70      1.0000 0.86480  0.88400  0.94710  Biso   1.000  C
  C71      1.0000 0.86480  0.11600  0.05290  Biso   1.000  C
  C72      1.0000 0.13520  0.88400  0.05290  Biso   1.000  C
  C73      1.0000 0.36480  0.38400  0.05290  Biso   1.000  C
  C74      1.0000 0.63520  0.61600  0.05290  Biso   1.000  C
  C75      1.0000 0.63520  0.38400  0.94710  Biso   1.000  C
  C76      1.0000 0.36480  0.61600  0.94710  Biso   1.000  C
  C77      1.0000 0.86480  0.88400  0.05290  Biso   1.000  C
  C78      1.0000 0.13520  0.11600  0.05290  Biso   1.000  C
  C79      1.0000 0.13520  0.88400  0.94710  Biso   1.000  C
  C80      1.0000 0.86480  0.11600  0.94710  Biso   1.000  C
  H33      1.0000 0.63470  0.60620  0.90410  Biso   1.000  H
  H34      1.0000 0.36530  0.39380  0.90410  Biso   1.000  H
  H35      1.0000 0.36530  0.60620  0.09590  Biso   1.000  H
  H36      1.0000 0.63470  0.39380  0.09590  Biso   1.000  H
  H37      1.0000 0.13470  0.10620  0.90410  Biso   1.000  H
  H38      1.0000 0.86530  0.89380  0.90410  Biso   1.000  H
  H39      1.0000 0.86530  0.10620  0.09590  Biso   1.000  H
  H40      1.0000 0.13470  0.89380  0.09590  Biso   1.000  H
  H41      1.0000 0.36530  0.39380  0.09590  Biso   1.000  H
  H42      1.0000 0.63470  0.60620  0.09590  Biso   1.000  H
  H43      1.0000 0.63470  0.39380  0.90410  Biso   1.000  H
  H44      1.0000 0.36530  0.60620  0.90410  Biso   1.000  H
  H45      1.0000 0.86530  0.89380  0.09590  Biso   1.000  H
  H46      1.0000 0.13470  0.10620  0.09590  Biso   1.000  H
  H47      1.0000 0.13470  0.89380  0.90410  Biso   1.000  H
  H48      1.0000 0.86530  0.10620  0.90410  Biso   1.000  H
  C81      1.0000 0.64070  0.58840  0.00000  Biso   1.000  C
  C82      1.0000 0.35930  0.41160  0.00000  Biso   1.000  C
  C83      1.0000 0.35930  0.58840  0.00000  Biso   1.000  C
  C84      1.0000 0.64070  0.41160  0.00000  Biso   1.000  C
  C85      1.0000 0.14070  0.08840  0.00000  Biso   1.000  C
  C86      1.0000 0.85930  0.91160  0.00000  Biso   1.000  C
  C87      1.0000 0.85930  0.08840  0.00000  Biso   1.000  C
  C88      1.0000 0.14070  0.91160  0.00000  Biso   1.000  C
  H49      1.0000 0.64700  0.55640  0.00000  Biso   1.000  H
  H50      1.0000 0.35300  0.44360  0.00000  Biso   1.000  H
  H51      1.0000 0.35300  0.55640  0.00000  Biso   1.000  H
  H52      1.0000 0.64700  0.44360  0.00000  Biso   1.000  H
  H53      1.0000 0.14700  0.05640  0.00000  Biso   1.000  H
  H54      1.0000 0.85300  0.94360  0.00000  Biso   1.000  H
  H55      1.0000 0.85300  0.05640  0.00000  Biso   1.000  H
  H56      1.0000 0.14700  0.94360  0.00000  Biso   1.000  H
  C89      1.0000 0.63680  0.78630  0.81040  Biso   1.000  C
  C90      1.0000 0.36320  0.21370  0.81040  Biso   1.000  C
  C91      1.0000 0.36320  0.78630  0.18960  Biso   1.000  C
  C92      1.0000 0.63680  0.21370  0.18960  Biso   1.000  C
  C93      1.0000 0.13680  0.28630  0.81040  Biso   1.000  C
  C94      1.0000 0.86320  0.71370  0.81040  Biso   1.000  C
  C95      1.0000 0.86320  0.28630  0.18960  Biso   1.000  C
  C96      1.0000 0.13680  0.71370  0.18960  Biso   1.000  C
  C97      1.0000 0.36320  0.21370  0.18960  Biso   1.000  C
  C98      1.0000 0.63680  0.78630  0.18960  Biso   1.000  C
  C99      1.0000 0.63680  0.21370  0.81040  Biso   1.000  C
  C100     1.0000 0.36320  0.78630  0.81040  Biso   1.000  C
  C101     1.0000 0.86320  0.71370  0.18960  Biso   1.000  C
  C102     1.0000 0.13680  0.28630  0.18960  Biso   1.000  C
  C103     1.0000 0.13680  0.71370  0.81040  Biso   1.000  C
  C104     1.0000 0.86320  0.28630  0.81040  Biso   1.000  C
  H57      1.0000 0.63750  0.76520  0.77630  Biso   1.000  H
  H58      1.0000 0.36250  0.23480  0.77630  Biso   1.000  H
  H59      1.0000 0.36250  0.76520  0.22370  Biso   1.000  H
  H60      1.0000 0.63750  0.23480  0.22370  Biso   1.000  H
  H61      1.0000 0.13750  0.26520  0.77630  Biso   1.000  H
  H62      1.0000 0.86250  0.73480  0.77630  Biso   1.000  H
  H63      1.0000 0.86250  0.26520  0.22370  Biso   1.000  H
  H64      1.0000 0.13750  0.73480  0.22370  Biso   1.000  H
  H65      1.0000 0.36250  0.23480  0.22370  Biso   1.000  H
  H66      1.0000 0.63750  0.76520  0.22370  Biso   1.000  H
  H67      1.0000 0.63750  0.23480  0.77630  Biso   1.000  H
  H68      1.0000 0.36250  0.76520  0.77630  Biso   1.000  H
  H69      1.0000 0.86250  0.73480  0.22370  Biso   1.000  H
  H70      1.0000 0.13750  0.26520  0.22370  Biso   1.000  H
  H71      1.0000 0.13750  0.73480  0.77630  Biso   1.000  H
  H72      1.0000 0.86250  0.26520  0.77630  Biso   1.000  H
  C105     1.0000 0.64080  0.83360  0.80340  Biso   1.000  C
  C106     1.0000 0.35920  0.16640  0.80340  Biso   1.000  C
  C107     1.0000 0.35920  0.83360  0.19660  Biso   1.000  C
  C108     1.0000 0.64080  0.16640  0.19660  Biso   1.000  C
  C109     1.0000 0.14080  0.33360  0.80340  Biso   1.000  C
  C110     1.0000 0.85920  0.66640  0.80340  Biso   1.000  C
  C111     1.0000 0.85920  0.33360  0.19660  Biso   1.000  C
  C112     1.0000 0.14080  0.66640  0.19660  Biso   1.000  C
  C113     1.0000 0.35920  0.16640  0.19660  Biso   1.000  C
  C114     1.0000 0.64080  0.83360  0.19660  Biso   1.000  C
  C115     1.0000 0.64080  0.16640  0.80340  Biso   1.000  C
  C116     1.0000 0.35920  0.83360  0.80340  Biso   1.000  C
  C117     1.0000 0.85920  0.66640  0.19660  Biso   1.000  C
  C118     1.0000 0.14080  0.33360  0.19660  Biso   1.000  C
  C119     1.0000 0.14080  0.66640  0.80340  Biso   1.000  C
  C120     1.0000 0.85920  0.33360  0.80340  Biso   1.000  C
  H73      1.0000 0.64440  0.84990  0.76460  Biso   1.000  H
  H74      1.0000 0.35560  0.15010  0.76460  Biso   1.000  H
  H75      1.0000 0.35560  0.84990  0.23540  Biso   1.000  H
  H76      1.0000 0.64440  0.15010  0.23540  Biso   1.000  H
  H77      1.0000 0.14440  0.34990  0.76460  Biso   1.000  H
  H78      1.0000 0.85560  0.65010  0.76460  Biso   1.000  H
  H79      1.0000 0.85560  0.34990  0.23540  Biso   1.000  H
  H80      1.0000 0.14440  0.65010  0.23540  Biso   1.000  H
  H81      1.0000 0.35560  0.15010  0.23540  Biso   1.000  H
  H82      1.0000 0.64440  0.84990  0.23540  Biso   1.000  H
  H83      1.0000 0.64440  0.15010  0.76460  Biso   1.000  H
  H84      1.0000 0.35560  0.84990  0.76460  Biso   1.000  H
  H85      1.0000 0.85560  0.65010  0.23540  Biso   1.000  H
  H86      1.0000 0.14440  0.34990  0.23540  Biso   1.000  H
  H87      1.0000 0.14440  0.65010  0.76460  Biso   1.000  H
  H88      1.0000 0.85560  0.34990  0.76460  Biso   1.000  H
  C121     1.0000 0.63850  0.85160  0.86500  Biso   1.000  C
  C122     1.0000 0.36150  0.14840  0.86500  Biso   1.000  C
  C123     1.0000 0.36150  0.85160  0.13500  Biso   1.000  C
  C124     1.0000 0.63850  0.14840  0.13500  Biso   1.000  C
  C125     1.0000 0.13850  0.35160  0.86500  Biso   1.000  C
  C126     1.0000 0.86150  0.64840  0.86500  Biso   1.000  C
  C127     1.0000 0.86150  0.35160  0.13500  Biso   1.000  C
  C128     1.0000 0.13850  0.64840  0.13500  Biso   1.000  C
  C129     1.0000 0.36150  0.14840  0.13500  Biso   1.000  C
  C130     1.0000 0.63850  0.85160  0.13500  Biso   1.000  C
  C131     1.0000 0.63850  0.14840  0.86500  Biso   1.000  C
  C132     1.0000 0.36150  0.85160  0.86500  Biso   1.000  C
  C133     1.0000 0.86150  0.64840  0.13500  Biso   1.000  C
  C134     1.0000 0.13850  0.35160  0.13500  Biso   1.000  C
  C135     1.0000 0.13850  0.64840  0.86500  Biso   1.000  C
  C136     1.0000 0.86150  0.35160  0.86500  Biso   1.000  C
  H89      1.0000 0.64130  0.88260  0.87620  Biso   1.000  H
  H90      1.0000 0.35870  0.11740  0.87620  Biso   1.000  H
  H91      1.0000 0.35870  0.88260  0.12380  Biso   1.000  H
  H92      1.0000 0.64130  0.11740  0.12380  Biso   1.000  H
  H93      1.0000 0.14130  0.38260  0.87620  Biso   1.000  H
  H94      1.0000 0.85870  0.61740  0.87620  Biso   1.000  H
  H95      1.0000 0.85870  0.38260  0.12380  Biso   1.000  H
  H96      1.0000 0.14130  0.61740  0.12380  Biso   1.000  H
  H97      1.0000 0.35870  0.11740  0.12380  Biso   1.000  H
  H98      1.0000 0.64130  0.88260  0.12380  Biso   1.000  H
  H99      1.0000 0.64130  0.11740  0.87620  Biso   1.000  H
  H100     1.0000 0.35870  0.88260  0.87620  Biso   1.000  H
  H101     1.0000 0.85870  0.61740  0.12380  Biso   1.000  H
  H102     1.0000 0.14130  0.38260  0.12380  Biso   1.000  H
  H103     1.0000 0.14130  0.61740  0.87620  Biso   1.000  H
  H104     1.0000 0.85870  0.38260  0.87620  Biso   1.000  H
  C137     1.0000 0.50000  0.90060  0.00000  Biso   1.000  C
  C138     1.0000 0.50000  0.09940  0.00000  Biso   1.000  C
  C139     1.0000 0.00000  0.40060  0.00000  Biso   1.000  C
  C140     1.0000 0.00000  0.59940  0.00000  Biso   1.000  C
  C141     1.0000 0.50000  0.95240  0.00000  Biso   1.000  C
  C142     1.0000 0.50000  0.04760  0.00000  Biso   1.000  C
  C143     1.0000 0.00000  0.45240  0.00000  Biso   1.000  C
  C144     1.0000 0.00000  0.54760  0.00000  Biso   1.000  C
  C145     1.0000 0.59050  0.97580  0.00000  Biso   1.000  C
  C146     1.0000 0.40950  0.02420  0.00000  Biso   1.000  C
  C147     1.0000 0.40950  0.97580  0.00000  Biso   1.000  C
  C148     1.0000 0.59050  0.02420  0.00000  Biso   1.000  C
  C149     1.0000 0.09050  0.47580  0.00000  Biso   1.000  C
  C150     1.0000 0.90950  0.52420  0.00000  Biso   1.000  C
  C151     1.0000 0.90950  0.47580  0.00000  Biso   1.000  C
  C152     1.0000 0.09050  0.52420  0.00000  Biso   1.000  C
  H105     1.0000 0.65230  0.95980  0.00000  Biso   1.000  H
  H106     1.0000 0.34770  0.04020  0.00000  Biso   1.000  H
  H107     1.0000 0.34770  0.95980  0.00000  Biso   1.000  H
  H108     1.0000 0.65230  0.04020  0.00000  Biso   1.000  H
  H109     1.0000 0.15230  0.45980  0.00000  Biso   1.000  H
  H110     1.0000 0.84770  0.54020  0.00000  Biso   1.000  H
  H111     1.0000 0.84770  0.45980  0.00000  Biso   1.000  H
  H112     1.0000 0.15230  0.54020  0.00000  Biso   1.000  H
  Cu1      1.0000 0.40080  0.50000  0.50000  Biso   1.000  Cu
  Cu2      1.0000 0.59920  0.50000  0.50000  Biso   1.000  Cu
  Cu3      1.0000 0.90080  0.00000  0.50000  Biso   1.000  Cu
  Cu4      1.0000 0.09920  0.00000  0.50000  Biso   1.000  Cu
  Cu5      1.0000 0.62378  0.71804  0.91983  Biso   1.000  Cu
  Cu6      1.0000 0.37622  0.28196  0.91983  Biso   1.000  Cu
  Cu7      1.0000 0.37622  0.71804  0.08017  Biso   1.000  Cu
  Cu8      1.0000 0.62378  0.28196  0.08017  Biso   1.000  Cu
  Cu9      1.0000 0.12378  0.21804  0.91983  Biso   1.000  Cu
  Cu10     1.0000 0.87622  0.78196  0.91983  Biso   1.000  Cu
  Cu11     1.0000 0.87622  0.21804  0.08017  Biso   1.000  Cu
  Cu12     1.0000 0.12378  0.78196  0.08017  Biso   1.000  Cu
  Cu13     1.0000 0.37622  0.28196  0.08017  Biso   1.000  Cu
  Cu14     1.0000 0.62378  0.71804  0.08017  Biso   1.000  Cu
  Cu15     1.0000 0.62378  0.28196  0.91983  Biso   1.000  Cu
  Cu16     1.0000 0.37622  0.71804  0.91983  Biso   1.000  Cu
  Cu17     1.0000 0.87622  0.78196  0.08017  Biso   1.000  Cu
  Cu18     1.0000 0.12378  0.21804  0.08017  Biso   1.000  Cu
  Cu19     1.0000 0.12378  0.78196  0.91983  Biso   1.000  Cu
  Cu20     1.0000 0.87622  0.21804  0.91983  Biso   1.000  Cu
  Cu21     1.0000 0.62409  0.81631  0.00000  Biso   1.000  Cu
  Cu22     1.0000 0.37591  0.18369  0.00000  Biso   1.000  Cu
  Cu23     1.0000 0.37591  0.81631  0.00000  Biso   1.000  Cu
  Cu24     1.0000 0.62409  0.18369  0.00000  Biso   1.000  Cu
  Cu25     1.0000 0.12409  0.31631  0.00000  Biso   1.000  Cu
  Cu26     1.0000 0.87591  0.68369  0.00000  Biso   1.000  Cu
  Cu27     1.0000 0.87591  0.31631  0.00000  Biso   1.000  Cu
  Cu28     1.0000 0.12409  0.68369  0.00000  Biso   1.000  Cu
  N1       1.0000 0.63170  0.77520  0.87340  Biso   1.000  N
  N2       1.0000 0.36830  0.22480  0.87340  Biso   1.000  N
  N3       1.0000 0.36830  0.77520  0.12660  Biso   1.000  N
  N4       1.0000 0.63170  0.22480  0.12660  Biso   1.000  N
  N5       1.0000 0.13170  0.27520  0.87340  Biso   1.000  N
  N6       1.0000 0.86830  0.72480  0.87340  Biso   1.000  N
  N7       1.0000 0.86830  0.27520  0.12660  Biso   1.000  N
  N8       1.0000 0.13170  0.72480  0.12660  Biso   1.000  N
  N9       1.0000 0.36830  0.22480  0.12660  Biso   1.000  N
  N10      1.0000 0.63170  0.77520  0.12660  Biso   1.000  N
  N11      1.0000 0.63170  0.22480  0.87340  Biso   1.000  N
  N12      1.0000 0.36830  0.77520  0.87340  Biso   1.000  N
  N13      1.0000 0.86830  0.72480  0.12660  Biso   1.000  N
  N14      1.0000 0.13170  0.27520  0.12660  Biso   1.000  N
  N15      1.0000 0.13170  0.72480  0.87340  Biso   1.000  N
  N16      1.0000 0.86830  0.27520  0.87340  Biso   1.000  N
  N17      1.0000 0.63130  0.81564  0.90570  Biso   1.000  N
  N18      1.0000 0.36870  0.18436  0.90570  Biso   1.000  N
  N19      1.0000 0.36870  0.81564  0.09430  Biso   1.000  N
  N20      1.0000 0.63130  0.18436  0.09430  Biso   1.000  N
  N21      1.0000 0.13130  0.31564  0.90570  Biso   1.000  N
  N22      1.0000 0.86870  0.68436  0.90570  Biso   1.000  N
  N23      1.0000 0.86870  0.31564  0.09430  Biso   1.000  N
  N24      1.0000 0.13130  0.68436  0.09430  Biso   1.000  N
  N25      1.0000 0.36870  0.18436  0.09430  Biso   1.000  N
  N26      1.0000 0.63130  0.81564  0.09430  Biso   1.000  N
  N27      1.0000 0.63130  0.18436  0.90570  Biso   1.000  N
  N28      1.0000 0.36870  0.81564  0.90570  Biso   1.000  N
  N29      1.0000 0.86870  0.68436  0.09430  Biso   1.000  N
  N30      1.0000 0.13130  0.31564  0.09430  Biso   1.000  N
  N31      1.0000 0.13130  0.68436  0.90570  Biso   1.000  N
  N32      1.0000 0.86870  0.31564  0.90570  Biso   1.000  N
  N33      1.0000 0.63060  0.66086  0.96750  Biso   1.000  N
  N34      1.0000 0.36940  0.33914  0.96750  Biso   1.000  N
  N35      1.0000 0.36940  0.66086  0.03250  Biso   1.000  N
  N36      1.0000 0.63060  0.33914  0.03250  Biso   1.000  N
  N37      1.0000 0.13060  0.16086  0.96750  Biso   1.000  N
  N38      1.0000 0.86940  0.83914  0.96750  Biso   1.000  N
  N39      1.0000 0.86940  0.16086  0.03250  Biso   1.000  N
  N40      1.0000 0.13060  0.83914  0.03250  Biso   1.000  N
  N41      1.0000 0.36940  0.33914  0.03250  Biso   1.000  N
  N42      1.0000 0.63060  0.66086  0.03250  Biso   1.000  N
  N43      1.0000 0.63060  0.33914  0.96750  Biso   1.000  N
  N44      1.0000 0.36940  0.66086  0.96750  Biso   1.000  N
  N45      1.0000 0.86940  0.83914  0.03250  Biso   1.000  N
  N46      1.0000 0.13060  0.16086  0.03250  Biso   1.000  N
  N47      1.0000 0.13060  0.83914  0.96750  Biso   1.000  N
  N48      1.0000 0.86940  0.16086  0.96750  Biso   1.000  N
  O1       1.0000 0.58390  0.68538  0.84150  Biso   1.000  O
  O2       1.0000 0.41610  0.31462  0.84150  Biso   1.000  O
  O3       1.0000 0.41610  0.68538  0.15850  Biso   1.000  O
  O4       1.0000 0.58390  0.31462  0.15850  Biso   1.000  O
  O5       1.0000 0.08390  0.18538  0.84150  Biso   1.000  O
  O6       1.0000 0.91610  0.81462  0.84150  Biso   1.000  O
  O7       1.0000 0.91610  0.18538  0.15850  Biso   1.000  O
  O8       1.0000 0.08390  0.81462  0.15850  Biso   1.000  O
  O9       1.0000 0.41610  0.31462  0.15850  Biso   1.000  O
  O10      1.0000 0.58390  0.68538  0.15850  Biso   1.000  O
  O11      1.0000 0.58390  0.31462  0.84150  Biso   1.000  O
  O12      1.0000 0.41610  0.68538  0.84150  Biso   1.000  O
  O13      1.0000 0.91610  0.81462  0.15850  Biso   1.000  O
  O14      1.0000 0.08390  0.18538  0.15850  Biso   1.000  O
  O15      1.0000 0.08390  0.81462  0.84150  Biso   1.000  O
  O16      1.0000 0.91610  0.18538  0.84150  Biso   1.000  O
  O17      1.0000 0.41530  0.54672  0.56731  Biso   1.000  O
  O18      1.0000 0.58470  0.45328  0.56731  Biso   1.000  O
  O19      1.0000 0.58470  0.54672  0.43269  Biso   1.000  O
  O20      1.0000 0.41530  0.45328  0.43269  Biso   1.000  O
  O21      1.0000 0.91530  0.04672  0.56731  Biso   1.000  O
  O22      1.0000 0.08470  0.95328  0.56731  Biso   1.000  O
  O23      1.0000 0.08470  0.04672  0.43269  Biso   1.000  O
  O24      1.0000 0.91530  0.95328  0.43269  Biso   1.000  O
  O25      1.0000 0.58470  0.45328  0.43269  Biso   1.000  O
  O26      1.0000 0.41530  0.54672  0.43269  Biso   1.000  O
  O27      1.0000 0.41530  0.45328  0.56731  Biso   1.000  O
  O28      1.0000 0.58470  0.54672  0.56731  Biso   1.000  O
  O29      1.0000 0.08470  0.95328  0.43269  Biso   1.000  O
  O30      1.0000 0.91530  0.04672  0.43269  Biso   1.000  O
  O31      1.0000 0.91530  0.95328  0.56731  Biso   1.000  O
  O32      1.0000 0.08470  0.04672  0.56731  Biso   1.000  O
  O33      1.0000 0.23290  0.50000  0.50000  Biso   1.000  O
  O34      1.0000 0.76710  0.50000  0.50000  Biso   1.000  O
  O35      1.0000 0.73290  0.00000  0.50000  Biso   1.000  O
  O36      1.0000 0.26710  0.00000  0.50000  Biso   1.000  O
  O37      1.0000 0.65270  0.75054  0.00000  Biso   1.000  O
  O38      1.0000 0.34730  0.24946  0.00000  Biso   1.000  O
  O39      1.0000 0.34730  0.75054  0.00000  Biso   1.000  O
  O40      1.0000 0.65270  0.24946  0.00000  Biso   1.000  O
  O41      1.0000 0.15270  0.25054  0.00000  Biso   1.000  O
  O42      1.0000 0.84730  0.74946  0.00000  Biso   1.000  O
  O43      1.0000 0.84730  0.25054  0.00000  Biso   1.000  O
  O44      1.0000 0.15270  0.74946  0.00000  Biso   1.000  O
  O45      1.0000 0.58400  0.88092  0.00000  Biso   1.000  O
  O46      1.0000 0.41600  0.11908  0.00000  Biso   1.000  O
  O47      1.0000 0.41600  0.88092  0.00000  Biso   1.000  O
  O48      1.0000 0.58400  0.11908  0.00000  Biso   1.000  O
  O49      1.0000 0.08400  0.38092  0.00000  Biso   1.000  O
  O50      1.0000 0.91600  0.61908  0.00000  Biso   1.000  O
  O51      1.0000 0.91600  0.38092  0.00000  Biso   1.000  O
  O52      1.0000 0.08400  0.61908  0.00000  Biso   1.000  O
  H113     1.0000 0.69100  0.74900  0.00000  Biso   1.000  H
  H114     1.0000 0.30900  0.25100  0.00000  Biso   1.000  H
  H115     1.0000 0.30900  0.74900  0.00000  Biso   1.000  H
  H116     1.0000 0.69100  0.25100  0.00000  Biso   1.000  H
  H117     1.0000 0.19100  0.24900  0.00000  Biso   1.000  H
  H118     1.0000 0.80900  0.75100  0.00000  Biso   1.000  H
  H119     1.0000 0.80900  0.24900  0.00000  Biso   1.000  H
  H120     1.0000 0.19100  0.75100  0.00000  Biso   1.000  H
