data_image0
_cell_length_a       8.5757
_cell_length_b       10.2814
_cell_length_c       12.933
_cell_angle_alpha    101.685
_cell_angle_beta     100.89
_cell_angle_gamma    98.156

_symmetry_space_group_name_H-M    "P 1"
_symmetry_int_tables_number       1

loop_
  _symmetry_equiv_pos_as_xyz
  'x, y, z'

loop_
  _atom_site_label
  _atom_site_occupancy
  _atom_site_fract_x
  _atom_site_fract_y
  _atom_site_fract_z
  _atom_site_thermal_displace_type
  _atom_site_B_iso_or_equiv
  _atom_site_type_symbol
  C1       1.0000 0.67750  0.07630  0.53520  Biso   1.000  C
  C2       1.0000 0.32250  0.92370  0.46480  Biso   1.000  C
  C3       1.0000 0.68110  0.18660  0.63300  Biso   1.000  C
  C4       1.0000 0.31890  0.81340  0.36700  Biso   1.000  C
  C5       1.0000 0.77200  0.19590  0.73430  Biso   1.000  C
  C6       1.0000 0.22800  0.80410  0.26570  Biso   1.000  C
  H1       1.0000 0.83650  0.13250  0.74630  Biso   1.000  H
  H2       1.0000 0.16350  0.86750  0.25370  Biso   1.000  H
  C7       1.0000 0.76650  0.30130  0.81870  Biso   1.000  C
  C8       1.0000 0.23350  0.69870  0.18130  Biso   1.000  C
  H3       1.0000 0.82740  0.30980  0.88810  Biso   1.000  H
  H4       1.0000 0.17260  0.69020  0.11190  Biso   1.000  H
  C9       1.0000 0.66930  0.39340  0.79830  Biso   1.000  C
  C10      1.0000 0.33070  0.60660  0.20170  Biso   1.000  C
  H5       1.0000 0.66420  0.46480  0.85380  Biso   1.000  H
  H6       1.0000 0.33580  0.53520  0.14620  Biso   1.000  H
  C11      1.0000 0.57930  0.37870  0.69390  Biso   1.000  C
  C12      1.0000 0.42070  0.62130  0.30610  Biso   1.000  C
  H7       1.0000 0.51340  0.44050  0.68030  Biso   1.000  H
  H8       1.0000 0.48660  0.55950  0.31970  Biso   1.000  H
  C13      1.0000 0.21410  0.34950  0.39150  Biso   1.000  C
  C14      1.0000 0.78590  0.65050  0.60850  Biso   1.000  C
  C15      1.0000 0.22860  0.25500  0.28990  Biso   1.000  C
  C16      1.0000 0.77140  0.74500  0.71010  Biso   1.000  C
  C17      1.0000 0.12360  0.23630  0.19080  Biso   1.000  C
  C18      1.0000 0.87640  0.76370  0.80920  Biso   1.000  C
  H9       1.0000 0.03970  0.28430  0.18290  Biso   1.000  H
  H10      1.0000 0.96030  0.71570  0.81710  Biso   1.000  H
  C19      1.0000 0.14690  0.14330  0.10260  Biso   1.000  C
  C20      1.0000 0.85310  0.85670  0.89740  Biso   1.000  C
  H11      1.0000 0.07800  0.12750  0.03470  Biso   1.000  H
  H12      1.0000 0.92200  0.87250  0.96530  Biso   1.000  H
  C21      1.0000 0.27360  0.07540  0.11790  Biso   1.000  C
  C22      1.0000 0.72640  0.92460  0.88210  Biso   1.000  C
  H13      1.0000 0.29100  0.01310  0.06010  Biso   1.000  H
  H14      1.0000 0.70900  0.98690  0.93990  Biso   1.000  H
  C23      1.0000 0.37500  0.10020  0.21950  Biso   1.000  C
  C24      1.0000 0.62500  0.89980  0.78050  Biso   1.000  C
  H15      1.0000 0.46010  0.05370  0.22920  Biso   1.000  H
  H16      1.0000 0.53990  0.94630  0.77080  Biso   1.000  H
  C25      1.0000 0.13860  0.21470  0.67870  Biso   1.000  C
  C26      1.0000 0.86140  0.78530  0.32130  Biso   1.000  C
  C27      1.0000 0.18240  0.01430  0.72510  Biso   1.000  C
  C28      1.0000 0.81760  0.98570  0.27490  Biso   1.000  C
  H17      1.0000 0.16850  0.92050  0.70640  Biso   1.000  H
  H18      1.0000 0.83150  0.07950  0.29360  Biso   1.000  H
  C29      1.0000 0.26860  0.08380  0.82770  Biso   1.000  C
  C30      1.0000 0.73140  0.91620  0.17230  Biso   1.000  C
  H19      1.0000 0.31340  0.03750  0.87710  Biso   1.000  H
  H20      1.0000 0.68660  0.96250  0.12290  Biso   1.000  H
  C31      1.0000 0.28720  0.22370  0.85600  Biso   1.000  C
  C32      1.0000 0.71280  0.77630  0.14400  Biso   1.000  C
  H21      1.0000 0.34320  0.27220  0.92490  Biso   1.000  H
  H22      1.0000 0.65680  0.72780  0.07510  Biso   1.000  H
  C33      1.0000 0.22080  0.29050  0.77950  Biso   1.000  C
  C34      1.0000 0.77920  0.70950  0.22050  Biso   1.000  C
  H23      1.0000 0.23180  0.38420  0.79640  Biso   1.000  H
  H24      1.0000 0.76820  0.61580  0.20360  Biso   1.000  H
  C35      1.0000 0.06300  0.27320  0.58740  Biso   1.000  C
  C36      1.0000 0.93700  0.72680  0.41260  Biso   1.000  C
  O1       1.0000 0.09420  0.40590  0.38650  Biso   1.000  O
  O2       1.0000 0.90580  0.59410  0.61350  Biso   1.000  O
  O3       1.0000 0.59840  0.08790  0.44400  Biso   1.000  O
  O4       1.0000 0.40160  0.91210  0.55600  Biso   1.000  O
  O5       1.0000 0.74900  0.98140  0.54850  Biso   1.000  O
  O6       1.0000 0.25100  0.01860  0.45150  Biso   1.000  O
  O7       1.0000 0.32820  0.36390  0.47500  Biso   1.000  O
  O8       1.0000 0.67180  0.63610  0.52500  Biso   1.000  O
  N1       1.0000 0.11840  0.07850  0.65180  Biso   1.000  N
  N2       1.0000 0.88160  0.92150  0.34820  Biso   1.000  N
  O9       1.0000 0.99290  0.19180  0.49870  Biso   1.000  O
  O10      1.0000 0.00710  0.80820  0.50130  Biso   1.000  O
  O11      1.0000 0.07480  0.39940  0.60660  Biso   1.000  O
  O12      1.0000 0.92520  0.60060  0.39340  Biso   1.000  O
  O13      1.0000 0.69620  0.37440  0.41870  Biso   1.000  O
  O14      1.0000 0.30380  0.62560  0.58130  Biso   1.000  O
  H25      1.0000 0.69500  0.35100  0.35160  Biso   1.000  H
  H26      1.0000 0.30500  0.64900  0.64840  Biso   1.000  H
  H27      1.0000 0.68400  0.45600  0.43700  Biso   1.000  H
  H28      1.0000 0.31600  0.54400  0.56300  Biso   1.000  H
  Cu1      1.0000 0.00000  0.00000  0.50000  Biso   1.000  Cu
  Cu2      1.0000 0.47855  0.23592  0.45666  Biso   1.000  Cu
  Cu3      1.0000 0.52145  0.76408  0.54334  Biso   1.000  Cu
  Cu4      1.0000 0.00000  0.50000  0.50000  Biso   1.000  Cu
  N3       1.0000 0.58560  0.27670  0.61240  Biso   1.000  N
  N4       1.0000 0.41440  0.72330  0.38760  Biso   1.000  N
  N5       1.0000 0.35340  0.18930  0.30390  Biso   1.000  N
  N6       1.0000 0.64660  0.81070  0.69610  Biso   1.000  N
  O15      1.0000 0.72820  0.25590  0.20940  Biso   1.000  O
  O16      1.0000 0.27180  0.74410  0.79060  Biso   1.000  O
  O17      1.0000 0.60010  0.18020  0.02510  Biso   1.000  O
  O18      1.0000 0.39990  0.81980  0.97490  Biso   1.000  O
  O19      1.0000 0.79560  0.38020  0.08540  Biso   1.000  O
  O20      1.0000 0.20440  0.61980  0.91460  Biso   1.000  O
  O21      1.0000 0.54290  0.37510  0.13060  Biso   1.000  O
  O22      1.0000 0.45710  0.62490  0.86940  Biso   1.000  O
  Cl1      1.0000 0.66670  0.29810  0.11190  Biso   1.000  Cl
  Cl2      1.0000 0.33330  0.70190  0.88810  Biso   1.000  Cl
