data_image0
_cell_length_a       6.9597
_cell_length_b       15.7704
_cell_length_c       19.2329
_cell_angle_alpha    90
_cell_angle_beta     99.095
_cell_angle_gamma    90

_symmetry_space_group_name_H-M    "P 1"
_symmetry_int_tables_number       1

loop_
  _symmetry_equiv_pos_as_xyz
  'x, y, z'

loop_
  _atom_site_label
  _atom_site_occupancy
  _atom_site_fract_x
  _atom_site_fract_y
  _atom_site_fract_z
  _atom_site_thermal_displace_type
  _atom_site_B_iso_or_equiv
  _atom_site_type_symbol
  C1       1.0000 0.30490  0.30580  0.21627  Biso   1.000  C
  C2       1.0000 0.19510  0.80580  0.28373  Biso   1.000  C
  C3       1.0000 0.69510  0.69420  0.78373  Biso   1.000  C
  C4       1.0000 0.80490  0.19420  0.71627  Biso   1.000  C
  C5       1.0000 0.17350  0.37490  0.23664  Biso   1.000  C
  C6       1.0000 0.32650  0.87490  0.26336  Biso   1.000  C
  C7       1.0000 0.82650  0.62510  0.76336  Biso   1.000  C
  C8       1.0000 0.67350  0.12510  0.73664  Biso   1.000  C
  C9       1.0000 0.21830  0.45980  0.23839  Biso   1.000  C
  C10      1.0000 0.28170  0.95980  0.26161  Biso   1.000  C
  C11      1.0000 0.78170  0.54020  0.76161  Biso   1.000  C
  C12      1.0000 0.71830  0.04020  0.73839  Biso   1.000  C
  H1       1.0000 0.33910  0.47810  0.22950  Biso   1.000  H
  H2       1.0000 0.16090  0.97810  0.27050  Biso   1.000  H
  H3       1.0000 0.66090  0.52190  0.77050  Biso   1.000  H
  H4       1.0000 0.83910  0.02190  0.72950  Biso   1.000  H
  C13      1.0000 0.08140  0.51780  0.25360  Biso   1.000  C
  C14      1.0000 0.41860  0.01780  0.24640  Biso   1.000  C
  C15      1.0000 0.91860  0.48220  0.74640  Biso   1.000  C
  C16      1.0000 0.58140  0.98220  0.75360  Biso   1.000  C
  H5       1.0000 0.10880  0.57560  0.25490  Biso   1.000  H
  H6       1.0000 0.39120  0.07560  0.24510  Biso   1.000  H
  H7       1.0000 0.89120  0.42440  0.74510  Biso   1.000  H
  H8       1.0000 0.60880  0.92440  0.75490  Biso   1.000  H
  C17      1.0000 0.90170  0.48830  0.26690  Biso   1.000  C
  C18      1.0000 0.59830  0.98830  0.23310  Biso   1.000  C
  C19      1.0000 0.09830  0.51170  0.73310  Biso   1.000  C
  C20      1.0000 0.40170  0.01170  0.76690  Biso   1.000  C
  H9       1.0000 0.80600  0.52610  0.27600  Biso   1.000  H
  H10      1.0000 0.69400  0.02610  0.22400  Biso   1.000  H
  H11      1.0000 0.19400  0.47390  0.72400  Biso   1.000  H
  H12      1.0000 0.30600  0.97390  0.77600  Biso   1.000  H
  C21      1.0000 0.86830  0.40090  0.26638  Biso   1.000  C
  C22      1.0000 0.63170  0.90090  0.23362  Biso   1.000  C
  C23      1.0000 0.13170  0.59910  0.73362  Biso   1.000  C
  C24      1.0000 0.36830  0.09910  0.76638  Biso   1.000  C
  H13      1.0000 0.74980  0.38100  0.27620  Biso   1.000  H
  H14      1.0000 0.75020  0.88100  0.22380  Biso   1.000  H
  H15      1.0000 0.25020  0.61900  0.72380  Biso   1.000  H
  H16      1.0000 0.24980  0.11900  0.77620  Biso   1.000  H
  C25      1.0000 0.67480  0.07070  0.94050  Biso   1.000  C
  C26      1.0000 0.82520  0.57070  0.55950  Biso   1.000  C
  C27      1.0000 0.32520  0.92930  0.05950  Biso   1.000  C
  C28      1.0000 0.17480  0.42930  0.44050  Biso   1.000  C
  H17      1.0000 0.62330  0.09630  0.89800  Biso   1.000  H
  H18      1.0000 0.87670  0.59630  0.60200  Biso   1.000  H
  H19      1.0000 0.37670  0.90370  0.10200  Biso   1.000  H
  H20      1.0000 0.12330  0.40370  0.39800  Biso   1.000  H
  C29      1.0000 0.68620  0.98350  0.94330  Biso   1.000  C
  C30      1.0000 0.81380  0.48350  0.55670  Biso   1.000  C
  C31      1.0000 0.31380  0.01650  0.05670  Biso   1.000  C
  C32      1.0000 0.18620  0.51650  0.44330  Biso   1.000  C
  H21      1.0000 0.64160  0.95090  0.90370  Biso   1.000  H
  H22      1.0000 0.85840  0.45090  0.59630  Biso   1.000  H
  H23      1.0000 0.35840  0.04910  0.09630  Biso   1.000  H
  H24      1.0000 0.14160  0.54910  0.40370  Biso   1.000  H
  C33      1.0000 0.76590  0.94540  0.00643  Biso   1.000  C
  C34      1.0000 0.73410  0.44540  0.49357  Biso   1.000  C
  C35      1.0000 0.23410  0.05460  0.99357  Biso   1.000  C
  C36      1.0000 0.26590  0.55460  0.50643  Biso   1.000  C
  H25      1.0000 0.77540  0.88670  0.00980  Biso   1.000  H
  H26      1.0000 0.72460  0.38670  0.49020  Biso   1.000  H
  H27      1.0000 0.22460  0.11330  0.99020  Biso   1.000  H
  H28      1.0000 0.27540  0.61330  0.50980  Biso   1.000  H
  C37      1.0000 0.83060  0.99590  0.06400  Biso   1.000  C
  C38      1.0000 0.66940  0.49590  0.43600  Biso   1.000  C
  C39      1.0000 0.16940  0.00410  0.93600  Biso   1.000  C
  C40      1.0000 0.33060  0.50410  0.56400  Biso   1.000  C
  H29      1.0000 0.88540  0.97180  0.10670  Biso   1.000  H
  H30      1.0000 0.61460  0.47180  0.39330  Biso   1.000  H
  H31      1.0000 0.11460  0.02820  0.89330  Biso   1.000  H
  H32      1.0000 0.38540  0.52820  0.60670  Biso   1.000  H
  C41      1.0000 0.81280  0.08230  0.05719  Biso   1.000  C
  C42      1.0000 0.68720  0.58230  0.44281  Biso   1.000  C
  C43      1.0000 0.18720  0.91770  0.94281  Biso   1.000  C
  C44      1.0000 0.31280  0.41770  0.55719  Biso   1.000  C
  C45      1.0000 0.87880  0.14440  0.11529  Biso   1.000  C
  C46      1.0000 0.62120  0.64440  0.38471  Biso   1.000  C
  C47      1.0000 0.12120  0.85560  0.88471  Biso   1.000  C
  C48      1.0000 0.37880  0.35560  0.61529  Biso   1.000  C
  C49      1.0000 0.11410  0.15610  0.38846  Biso   1.000  C
  C50      1.0000 0.38590  0.65610  0.11154  Biso   1.000  C
  C51      1.0000 0.88590  0.84390  0.61154  Biso   1.000  C
  C52      1.0000 0.61410  0.34390  0.88846  Biso   1.000  C
  C53      1.0000 0.18190  0.09460  0.44682  Biso   1.000  C
  C54      1.0000 0.31810  0.59460  0.05318  Biso   1.000  C
  C55      1.0000 0.81810  0.90540  0.55318  Biso   1.000  C
  C56      1.0000 0.68190  0.40540  0.94682  Biso   1.000  C
  C57      1.0000 0.18380  0.00750  0.43900  Biso   1.000  C
  C58      1.0000 0.31620  0.50750  0.06100  Biso   1.000  C
  C59      1.0000 0.81620  0.99250  0.56100  Biso   1.000  C
  C60      1.0000 0.68380  0.49250  0.93900  Biso   1.000  C
  H33      1.0000 0.14070  0.98230  0.39560  Biso   1.000  H
  H34      1.0000 0.35930  0.48230  0.10440  Biso   1.000  H
  H35      1.0000 0.85930  0.01770  0.60440  Biso   1.000  H
  H36      1.0000 0.64070  0.51770  0.89560  Biso   1.000  H
  C61      1.0000 0.25210  0.95860  0.49800  Biso   1.000  C
  C62      1.0000 0.24790  0.45860  0.00200  Biso   1.000  C
  C63      1.0000 0.74790  0.04140  0.50200  Biso   1.000  C
  C64      1.0000 0.75210  0.54140  0.99800  Biso   1.000  C
  H37      1.0000 0.26010  0.89990  0.49410  Biso   1.000  H
  H38      1.0000 0.23990  0.39990  0.00590  Biso   1.000  H
  H39      1.0000 0.73990  0.10010  0.50590  Biso   1.000  H
  H40      1.0000 0.76010  0.60010  0.99410  Biso   1.000  H
  C65      1.0000 0.30780  0.99750  0.56230  Biso   1.000  C
  C66      1.0000 0.19220  0.49750  0.93770  Biso   1.000  C
  C67      1.0000 0.69220  0.00250  0.43770  Biso   1.000  C
  C68      1.0000 0.80780  0.50250  0.06230  Biso   1.000  C
  H41      1.0000 0.34960  0.96550  0.60240  Biso   1.000  H
  H42      1.0000 0.15040  0.46550  0.89760  Biso   1.000  H
  H43      1.0000 0.65040  0.03450  0.39760  Biso   1.000  H
  H44      1.0000 0.84960  0.53450  0.10240  Biso   1.000  H
  C69      1.0000 0.30040  0.08410  0.56590  Biso   1.000  C
  C70      1.0000 0.19960  0.58410  0.93410  Biso   1.000  C
  C71      1.0000 0.69960  0.91590  0.43410  Biso   1.000  C
  C72      1.0000 0.80040  0.41590  0.06590  Biso   1.000  C
  H45      1.0000 0.33920  0.11030  0.60910  Biso   1.000  H
  H46      1.0000 0.16080  0.61030  0.89090  Biso   1.000  H
  H47      1.0000 0.66080  0.88970  0.39090  Biso   1.000  H
  H48      1.0000 0.83920  0.38970  0.10910  Biso   1.000  H
  N1       1.0000 0.00170  0.34500  0.25209  Biso   1.000  N
  N2       1.0000 0.49830  0.84500  0.24791  Biso   1.000  N
  N3       1.0000 0.99830  0.65500  0.74791  Biso   1.000  N
  N4       1.0000 0.50170  0.15500  0.75209  Biso   1.000  N
  N5       1.0000 0.73430  0.11970  0.99583  Biso   1.000  N
  N6       1.0000 0.76570  0.61970  0.50417  Biso   1.000  N
  N7       1.0000 0.26570  0.88030  0.00417  Biso   1.000  N
  N8       1.0000 0.23430  0.38030  0.49583  Biso   1.000  N
  N9       1.0000 0.23950  0.13230  0.50948  Biso   1.000  N
  N10      1.0000 0.26050  0.63230  0.99052  Biso   1.000  N
  N11      1.0000 0.76050  0.86770  0.49052  Biso   1.000  N
  N12      1.0000 0.73950  0.36770  0.00948  Biso   1.000  N
  N13      1.0000 0.07220  0.25030  0.90432  Biso   1.000  N
  N14      1.0000 0.42780  0.75030  0.59568  Biso   1.000  N
  N15      1.0000 0.92780  0.74970  0.09568  Biso   1.000  N
  N16      1.0000 0.57220  0.24970  0.40432  Biso   1.000  N
  O1       1.0000 0.25160  0.23020  0.22496  Biso   1.000  O
  O2       1.0000 0.24840  0.73020  0.27504  Biso   1.000  O
  O3       1.0000 0.74840  0.76980  0.77504  Biso   1.000  O
  O4       1.0000 0.75160  0.26980  0.72496  Biso   1.000  O
  O5       1.0000 0.45580  0.32686  0.19217  Biso   1.000  O
  O6       1.0000 0.04420  0.82686  0.30783  Biso   1.000  O
  O7       1.0000 0.54420  0.67314  0.80783  Biso   1.000  O
  O8       1.0000 0.95580  0.17314  0.69217  Biso   1.000  O
  O9       1.0000 0.95270  0.11594  0.17381  Biso   1.000  O
  O10      1.0000 0.54730  0.61594  0.32619  Biso   1.000  O
  O11      1.0000 0.04730  0.88406  0.82619  Biso   1.000  O
  O12      1.0000 0.45270  0.38406  0.67381  Biso   1.000  O
  O13      1.0000 0.85530  0.22241  0.10064  Biso   1.000  O
  O14      1.0000 0.64470  0.72241  0.39936  Biso   1.000  O
  O15      1.0000 0.14470  0.77759  0.89936  Biso   1.000  O
  O16      1.0000 0.35530  0.27759  0.60064  Biso   1.000  O
  O17      1.0000 0.05980  0.12762  0.32788  Biso   1.000  O
  O18      1.0000 0.44020  0.62762  0.17212  Biso   1.000  O
  O19      1.0000 0.94020  0.87238  0.67212  Biso   1.000  O
  O20      1.0000 0.55980  0.37238  0.82788  Biso   1.000  O
  O21      1.0000 0.11610  0.23377  0.40524  Biso   1.000  O
  O22      1.0000 0.38390  0.73377  0.09476  Biso   1.000  O
  O23      1.0000 0.88390  0.76623  0.59476  Biso   1.000  O
  O24      1.0000 0.61610  0.26623  0.90524  Biso   1.000  O
  O25      1.0000 0.11350  0.31770  0.87624  Biso   1.000  O
  O26      1.0000 0.38650  0.81770  0.62376  Biso   1.000  O
  O27      1.0000 0.88650  0.68230  0.12376  Biso   1.000  O
  O28      1.0000 0.61350  0.18230  0.37624  Biso   1.000  O
  O29      1.0000 0.04040  0.18522  0.86950  Biso   1.000  O
  O30      1.0000 0.45960  0.68522  0.63050  Biso   1.000  O
  O31      1.0000 0.95960  0.81478  0.13050  Biso   1.000  O
  O32      1.0000 0.54040  0.31478  0.36950  Biso   1.000  O
  O33      1.0000 0.06450  0.25047  0.97001  Biso   1.000  O
  O34      1.0000 0.43550  0.75047  0.52999  Biso   1.000  O
  O35      1.0000 0.93550  0.74953  0.02999  Biso   1.000  O
  O36      1.0000 0.56450  0.24953  0.47001  Biso   1.000  O
  O37      1.0000 0.71350  0.20624  0.24991  Biso   1.000  O
  O38      1.0000 0.78650  0.70624  0.25009  Biso   1.000  O
  O39      1.0000 0.28650  0.79376  0.75009  Biso   1.000  O
  O40      1.0000 0.21350  0.29376  0.74991  Biso   1.000  O
  H49      1.0000 0.69200  0.20000  0.29260  Biso   1.000  H
  H50      1.0000 0.80800  0.70000  0.20740  Biso   1.000  H
  H51      1.0000 0.30800  0.80000  0.70740  Biso   1.000  H
  H52      1.0000 0.19200  0.30000  0.79260  Biso   1.000  H
  H53      1.0000 0.64000  0.24400  0.22750  Biso   1.000  H
  H54      1.0000 0.86000  0.74400  0.27250  Biso   1.000  H
  H55      1.0000 0.36000  0.75600  0.77250  Biso   1.000  H
  H56      1.0000 0.14000  0.25600  0.72750  Biso   1.000  H
  O41      1.0000 0.43540  0.24050  0.05645  Biso   1.000  O
  O42      1.0000 0.06460  0.74050  0.44355  Biso   1.000  O
  O43      1.0000 0.56460  0.75950  0.94355  Biso   1.000  O
  O44      1.0000 0.93540  0.25950  0.55645  Biso   1.000  O
  H57      1.0000 0.44300  0.25400  0.10110  Biso   1.000  H
  H58      1.0000 0.05700  0.75400  0.39890  Biso   1.000  H
  H59      1.0000 0.55700  0.74600  0.89890  Biso   1.000  H
  H60      1.0000 0.94300  0.24600  0.60110  Biso   1.000  H
  H61      1.0000 0.31900  0.24700  0.03500  Biso   1.000  H
  H62      1.0000 0.18100  0.74700  0.46500  Biso   1.000  H
  H63      1.0000 0.68100  0.75300  0.96500  Biso   1.000  H
  H64      1.0000 0.81900  0.25300  0.53500  Biso   1.000  H
  Cu1      1.0000 0.98878  0.21665  0.24435  Biso   1.000  Cu
  Cu2      1.0000 0.51122  0.71665  0.25565  Biso   1.000  Cu
  Cu3      1.0000 0.01122  0.78335  0.75565  Biso   1.000  Cu
  Cu4      1.0000 0.48878  0.28335  0.74435  Biso   1.000  Cu
  Cu5      1.0000 0.72564  0.24372  0.00363  Biso   1.000  Cu
  Cu6      1.0000 0.77436  0.74372  0.49637  Biso   1.000  Cu
  Cu7      1.0000 0.27436  0.75628  0.99637  Biso   1.000  Cu
  Cu8      1.0000 0.22564  0.25628  0.50363  Biso   1.000  Cu
