data_image0
_cell_length_a       8.5487
_cell_length_b       10.222
_cell_length_c       12.8509
_cell_angle_alpha    102.132
_cell_angle_beta     101.182
_cell_angle_gamma    97.946

_symmetry_space_group_name_H-M    "P 1"
_symmetry_int_tables_number       1

loop_
  _symmetry_equiv_pos_as_xyz
  'x, y, z'

loop_
  _atom_site_label
  _atom_site_occupancy
  _atom_site_fract_x
  _atom_site_fract_y
  _atom_site_fract_z
  _atom_site_thermal_displace_type
  _atom_site_B_iso_or_equiv
  _atom_site_type_symbol
  C1       1.0000 0.67680  0.07780  0.53740  Biso   1.000  C
  C2       1.0000 0.32320  0.92220  0.46260  Biso   1.000  C
  C3       1.0000 0.68160  0.18820  0.63460  Biso   1.000  C
  C4       1.0000 0.31840  0.81180  0.36540  Biso   1.000  C
  C5       1.0000 0.77310  0.19890  0.73830  Biso   1.000  C
  C6       1.0000 0.22690  0.80110  0.26170  Biso   1.000  C
  H1       1.0000 0.83800  0.13540  0.75100  Biso   1.000  H
  H2       1.0000 0.16200  0.86460  0.24900  Biso   1.000  H
  C7       1.0000 0.76660  0.30570  0.82300  Biso   1.000  C
  C8       1.0000 0.23340  0.69430  0.17700  Biso   1.000  C
  H3       1.0000 0.82630  0.31470  0.89360  Biso   1.000  H
  H4       1.0000 0.17370  0.68530  0.10640  Biso   1.000  H
  C9       1.0000 0.66940  0.39860  0.80050  Biso   1.000  C
  C10      1.0000 0.33060  0.60140  0.19950  Biso   1.000  C
  H5       1.0000 0.66560  0.47250  0.85570  Biso   1.000  H
  H6       1.0000 0.33440  0.52750  0.14430  Biso   1.000  H
  C11      1.0000 0.57830  0.38110  0.69550  Biso   1.000  C
  C12      1.0000 0.42170  0.61890  0.30450  Biso   1.000  C
  H7       1.0000 0.50950  0.44150  0.68150  Biso   1.000  H
  H8       1.0000 0.49050  0.55850  0.31850  Biso   1.000  H
  C13      1.0000 0.21300  0.34860  0.39040  Biso   1.000  C
  C14      1.0000 0.78700  0.65140  0.60960  Biso   1.000  C
  C15      1.0000 0.22670  0.25310  0.28690  Biso   1.000  C
  C16      1.0000 0.77330  0.74690  0.71310  Biso   1.000  C
  C17      1.0000 0.12210  0.23330  0.18950  Biso   1.000  C
  C18      1.0000 0.87790  0.76670  0.81050  Biso   1.000  C
  H9       1.0000 0.03510  0.27870  0.18250  Biso   1.000  H
  H10      1.0000 0.96490  0.72130  0.81750  Biso   1.000  H
  C19      1.0000 0.14730  0.14390  0.10030  Biso   1.000  C
  C20      1.0000 0.85270  0.85610  0.89970  Biso   1.000  C
  H11      1.0000 0.08110  0.13120  0.03110  Biso   1.000  H
  H12      1.0000 0.91890  0.86880  0.96890  Biso   1.000  H
  C21      1.0000 0.27540  0.07280  0.11680  Biso   1.000  C
  C22      1.0000 0.72460  0.92720  0.88320  Biso   1.000  C
  H13      1.0000 0.29080  0.00760  0.05920  Biso   1.000  H
  H14      1.0000 0.70920  0.99240  0.94080  Biso   1.000  H
  C23      1.0000 0.37710  0.09980  0.21770  Biso   1.000  C
  C24      1.0000 0.62290  0.90020  0.78230  Biso   1.000  C
  H15      1.0000 0.46430  0.05480  0.22730  Biso   1.000  H
  H16      1.0000 0.53570  0.94520  0.77270  Biso   1.000  H
  C25      1.0000 0.14210  0.21520  0.68060  Biso   1.000  C
  C26      1.0000 0.85790  0.78480  0.31940  Biso   1.000  C
  C27      1.0000 0.18570  0.01320  0.72690  Biso   1.000  C
  C28      1.0000 0.81430  0.98680  0.27310  Biso   1.000  C
  H17      1.0000 0.17140  0.91870  0.70840  Biso   1.000  H
  H18      1.0000 0.82860  0.08130  0.29160  Biso   1.000  H
  C29      1.0000 0.27320  0.08450  0.82930  Biso   1.000  C
  C30      1.0000 0.72680  0.91550  0.17070  Biso   1.000  C
  H19      1.0000 0.31920  0.03860  0.87910  Biso   1.000  H
  H20      1.0000 0.68080  0.96140  0.12090  Biso   1.000  H
  C31      1.0000 0.29310  0.22670  0.85840  Biso   1.000  C
  C32      1.0000 0.70690  0.77330  0.14160  Biso   1.000  C
  H21      1.0000 0.34980  0.27610  0.92800  Biso   1.000  H
  H22      1.0000 0.65020  0.72390  0.07200  Biso   1.000  H
  C33      1.0000 0.22720  0.29150  0.78220  Biso   1.000  C
  C34      1.0000 0.77280  0.70850  0.21780  Biso   1.000  C
  H23      1.0000 0.23990  0.38590  0.79910  Biso   1.000  H
  H24      1.0000 0.76010  0.61410  0.20090  Biso   1.000  H
  C35      1.0000 0.06590  0.27380  0.58980  Biso   1.000  C
  C36      1.0000 0.93410  0.72620  0.41020  Biso   1.000  C
  O1       1.0000 0.09150  0.40380  0.38570  Biso   1.000  O
  O2       1.0000 0.90850  0.59620  0.61430  Biso   1.000  O
  O3       1.0000 0.59880  0.08720  0.44490  Biso   1.000  O
  O4       1.0000 0.40120  0.91280  0.55510  Biso   1.000  O
  O5       1.0000 0.74990  0.98180  0.55170  Biso   1.000  O
  O6       1.0000 0.25010  0.01820  0.44830  Biso   1.000  O
  O7       1.0000 0.32830  0.36410  0.47480  Biso   1.000  O
  O8       1.0000 0.67170  0.63590  0.52520  Biso   1.000  O
  N1       1.0000 0.11990  0.07810  0.65240  Biso   1.000  N
  N2       1.0000 0.88010  0.92190  0.34760  Biso   1.000  N
  O9       1.0000 0.99190  0.18980  0.49970  Biso   1.000  O
  O10      1.0000 0.00810  0.81020  0.50030  Biso   1.000  O
  O11      1.0000 0.07710  0.40170  0.60720  Biso   1.000  O
  O12      1.0000 0.92290  0.59830  0.39280  Biso   1.000  O
  O13      1.0000 0.69570  0.37180  0.41800  Biso   1.000  O
  O14      1.0000 0.30430  0.62820  0.58200  Biso   1.000  O
  H25      1.0000 0.70300  0.32200  0.35700  Biso   1.000  H
  H26      1.0000 0.29700  0.67800  0.64300  Biso   1.000  H
  H27      1.0000 0.69000  0.45400  0.41500  Biso   1.000  H
  H28      1.0000 0.31000  0.54600  0.58500  Biso   1.000  H
  Cu1      1.0000 0.00000  0.00000  0.50000  Biso   1.000  Cu
  Cu2      1.0000 0.47885  0.23623  0.45667  Biso   1.000  Cu
  Cu3      1.0000 0.52115  0.76377  0.54333  Biso   1.000  Cu
  Cu4      1.0000 0.00000  0.50000  0.50000  Biso   1.000  Cu
  N3       1.0000 0.58710  0.27800  0.61290  Biso   1.000  N
  N4       1.0000 0.41290  0.72200  0.38710  Biso   1.000  N
  N5       1.0000 0.35470  0.18910  0.30290  Biso   1.000  N
  N6       1.0000 0.64530  0.81090  0.69710  Biso   1.000  N
  F1       1.0000 0.72360  0.25770  0.20960  Biso   1.000  F
  F2       1.0000 0.27640  0.74230  0.79040  Biso   1.000  F
  F3       1.0000 0.60030  0.17730  0.03110  Biso   1.000  F
  F4       1.0000 0.39970  0.82270  0.96890  Biso   1.000  F
  F5       1.0000 0.79300  0.37060  0.08670  Biso   1.000  F
  F6       1.0000 0.20700  0.62940  0.91330  Biso   1.000  F
  F7       1.0000 0.54850  0.37260  0.12800  Biso   1.000  F
  F8       1.0000 0.45150  0.62740  0.87200  Biso   1.000  F
  B1       1.0000 0.66940  0.29550  0.11350  Biso   1.000  B
  B2       1.0000 0.33060  0.70450  0.88650  Biso   1.000  B
