data_image0
_cell_length_a       5.9765
_cell_length_b       15.7196
_cell_length_c       12.0514
_cell_angle_alpha    90
_cell_angle_beta     101.618
_cell_angle_gamma    90

_symmetry_space_group_name_H-M    "P 1"
_symmetry_int_tables_number       1

loop_
  _symmetry_equiv_pos_as_xyz
  'x, y, z'

loop_
  _atom_site_label
  _atom_site_occupancy
  _atom_site_fract_x
  _atom_site_fract_y
  _atom_site_fract_z
  _atom_site_thermal_displace_type
  _atom_site_B_iso_or_equiv
  _atom_site_type_symbol
  Cu1      1.0000 0.00000  0.00000  0.00000  Biso   1.000  Cu
  Cu2      1.0000 0.50000  0.50000  0.50000  Biso   1.000  Cu
  O1       1.0000 0.13450  0.04955  0.88298  Biso   1.000  O
  O2       1.0000 0.36550  0.54955  0.61702  Biso   1.000  O
  O3       1.0000 0.86550  0.95045  0.11702  Biso   1.000  O
  O4       1.0000 0.63450  0.45045  0.38298  Biso   1.000  O
  O5       1.0000 0.77690  0.15674  0.99425  Biso   1.000  O
  O6       1.0000 0.72310  0.65674  0.50575  Biso   1.000  O
  O7       1.0000 0.22310  0.84326  0.00575  Biso   1.000  O
  O8       1.0000 0.27690  0.34326  0.49425  Biso   1.000  O
  H1       1.0000 0.69140  0.13600  0.03230  Biso   1.000  H
  H2       1.0000 0.80860  0.63600  0.46770  Biso   1.000  H
  H3       1.0000 0.30860  0.86400  0.96770  Biso   1.000  H
  H4       1.0000 0.19140  0.36400  0.53230  Biso   1.000  H
  O9       1.0000 0.53660  0.05547  0.39116  Biso   1.000  O
  O10      1.0000 0.96340  0.55547  0.10884  Biso   1.000  O
  O11      1.0000 0.46340  0.94453  0.60884  Biso   1.000  O
  O12      1.0000 0.03660  0.44453  0.89116  Biso   1.000  O
  N1       1.0000 0.40330  0.09599  0.03602  Biso   1.000  N
  N2       1.0000 0.09670  0.59599  0.46398  Biso   1.000  N
  N3       1.0000 0.59670  0.90401  0.96398  Biso   1.000  N
  N4       1.0000 0.90330  0.40401  0.53602  Biso   1.000  N
  N5       1.0000 0.26620  0.05207  0.09679  Biso   1.000  N
  N6       1.0000 0.23380  0.55207  0.40321  Biso   1.000  N
  N7       1.0000 0.73380  0.94793  0.90321  Biso   1.000  N
  N8       1.0000 0.76620  0.44793  0.59679  Biso   1.000  N
  C1       1.0000 0.44220  0.13484  0.84837  Biso   1.000  C
  C2       1.0000 0.05780  0.63484  0.65163  Biso   1.000  C
  C3       1.0000 0.55780  0.86516  0.15163  Biso   1.000  C
  C4       1.0000 0.94220  0.36516  0.34837  Biso   1.000  C
  C5       1.0000 0.66180  0.16660  0.88563  Biso   1.000  C
  C6       1.0000 0.83820  0.66660  0.61437  Biso   1.000  C
  C7       1.0000 0.33820  0.83340  0.11437  Biso   1.000  C
  C8       1.0000 0.16180  0.33340  0.38563  Biso   1.000  C
  C9       1.0000 0.77420  0.20754  0.81020  Biso   1.000  C
  C10      1.0000 0.72580  0.70754  0.68980  Biso   1.000  C
  C11      1.0000 0.22580  0.79246  0.18980  Biso   1.000  C
  C12      1.0000 0.27420  0.29246  0.31020  Biso   1.000  C
  H5       1.0000 0.92060  0.22900  0.83520  Biso   1.000  H
  H6       1.0000 0.57940  0.72900  0.66480  Biso   1.000  H
  H7       1.0000 0.07940  0.77100  0.16480  Biso   1.000  H
  H8       1.0000 0.42060  0.27100  0.33520  Biso   1.000  H
  C13      1.0000 0.66740  0.21608  0.69820  Biso   1.000  C
  C14      1.0000 0.83260  0.71608  0.80180  Biso   1.000  C
  C15      1.0000 0.33260  0.78392  0.30180  Biso   1.000  C
  C16      1.0000 0.16740  0.28392  0.19820  Biso   1.000  C
  H9       1.0000 0.74160  0.24400  0.64790  Biso   1.000  H
  H10      1.0000 0.75840  0.74400  0.85210  Biso   1.000  H
  H11      1.0000 0.25840  0.75600  0.35210  Biso   1.000  H
  H12      1.0000 0.24160  0.25600  0.14790  Biso   1.000  H
  C17      1.0000 0.45380  0.18381  0.66050  Biso   1.000  C
  C18      1.0000 0.04620  0.68381  0.83950  Biso   1.000  C
  C19      1.0000 0.54620  0.81619  0.33950  Biso   1.000  C
  C20      1.0000 0.95380  0.31619  0.16050  Biso   1.000  C
  H13      1.0000 0.38430  0.18930  0.58460  Biso   1.000  H
  H14      1.0000 0.11570  0.68930  0.91540  Biso   1.000  H
  H15      1.0000 0.61570  0.81070  0.41540  Biso   1.000  H
  H16      1.0000 0.88430  0.31070  0.08460  Biso   1.000  H
  C21      1.0000 0.34050  0.14326  0.73373  Biso   1.000  C
  C22      1.0000 0.15950  0.64326  0.76627  Biso   1.000  C
  C23      1.0000 0.65950  0.85674  0.26627  Biso   1.000  C
  C24      1.0000 0.84050  0.35674  0.23373  Biso   1.000  C
  H17      1.0000 0.19520  0.12120  0.70700  Biso   1.000  H
  H18      1.0000 0.30480  0.62120  0.79300  Biso   1.000  H
  H19      1.0000 0.80480  0.87880  0.29300  Biso   1.000  H
  H20      1.0000 0.69520  0.37880  0.20700  Biso   1.000  H
  C25      1.0000 0.31630  0.09063  0.92605  Biso   1.000  C
  C26      1.0000 0.18370  0.59063  0.57395  Biso   1.000  C
  C27      1.0000 0.68370  0.90937  0.07395  Biso   1.000  C
  C28      1.0000 0.81630  0.40937  0.42605  Biso   1.000  C
  C29      1.0000 0.52630  0.07666  0.27948  Biso   1.000  C
  C30      1.0000 0.97370  0.57666  0.22052  Biso   1.000  C
  C31      1.0000 0.47370  0.92334  0.72052  Biso   1.000  C
  C32      1.0000 0.02630  0.42334  0.77948  Biso   1.000  C
  C33      1.0000 0.71390  0.11963  0.26790  Biso   1.000  C
  C34      1.0000 0.78610  0.61963  0.23210  Biso   1.000  C
  C35      1.0000 0.28610  0.88037  0.73210  Biso   1.000  C
  C36      1.0000 0.21390  0.38037  0.76790  Biso   1.000  C
  H21      1.0000 0.74760  0.14150  0.20140  Biso   1.000  H
  H22      1.0000 0.75240  0.64150  0.29860  Biso   1.000  H
  H23      1.0000 0.25240  0.85850  0.79860  Biso   1.000  H
  H24      1.0000 0.24760  0.35850  0.70140  Biso   1.000  H
  C37      1.0000 0.85230  0.12469  0.38040  Biso   1.000  C
  C38      1.0000 0.64770  0.62469  0.11960  Biso   1.000  C
  C39      1.0000 0.14770  0.87531  0.61960  Biso   1.000  C
  C40      1.0000 0.35230  0.37531  0.88040  Biso   1.000  C
  H25      1.0000 0.99470  0.15040  0.40120  Biso   1.000  H
  H26      1.0000 0.50530  0.65040  0.09880  Biso   1.000  H
  H27      1.0000 0.00530  0.84960  0.59880  Biso   1.000  H
  H28      1.0000 0.49470  0.34960  0.90120  Biso   1.000  H
  C41      1.0000 0.73660  0.08550  0.44880  Biso   1.000  C
  C42      1.0000 0.76340  0.58550  0.05120  Biso   1.000  C
  C43      1.0000 0.26340  0.91450  0.55120  Biso   1.000  C
  C44      1.0000 0.23660  0.41450  0.94880  Biso   1.000  C
  H29      1.0000 0.78780  0.07960  0.52660  Biso   1.000  H
  H30      1.0000 0.71220  0.57960  0.97340  Biso   1.000  H
  H31      1.0000 0.21220  0.92040  0.47340  Biso   1.000  H
  H32      1.0000 0.28780  0.42040  0.02660  Biso   1.000  H
  C45      1.0000 0.32600  0.04574  0.20498  Biso   1.000  C
  C46      1.0000 0.17400  0.54574  0.29502  Biso   1.000  C
  C47      1.0000 0.67400  0.95426  0.79502  Biso   1.000  C
  C48      1.0000 0.82600  0.45426  0.70498  Biso   1.000  C
  H33      1.0000 0.22380  0.01670  0.24010  Biso   1.000  H
  H34      1.0000 0.27620  0.51670  0.25990  Biso   1.000  H
  H35      1.0000 0.77620  0.98330  0.75990  Biso   1.000  H
  H36      1.0000 0.72380  0.48330  0.74010  Biso   1.000  H
