data_image0
_cell_length_a       12.101
_cell_length_b       7.805
_cell_length_c       15.415
_cell_angle_alpha    90
_cell_angle_beta     109.82
_cell_angle_gamma    90

_symmetry_space_group_name_H-M    "P 1"
_symmetry_int_tables_number       1

loop_
  _symmetry_equiv_pos_as_xyz
  'x, y, z'

loop_
  _atom_site_label
  _atom_site_occupancy
  _atom_site_fract_x
  _atom_site_fract_y
  _atom_site_fract_z
  _atom_site_thermal_displace_type
  _atom_site_B_iso_or_equiv
  _atom_site_type_symbol
  Cu1      1.0000 0.82237  0.24695  0.56510  Biso   1.000  Cu
  Cu2      1.0000 0.17763  0.74695  0.43490  Biso   1.000  Cu
  Cu3      1.0000 0.95567  0.24151  0.02409  Biso   1.000  Cu
  Cu4      1.0000 0.04433  0.74151  0.97591  Biso   1.000  Cu
  Cl1      1.0000 0.38390  0.09760  0.22650  Biso   1.000  Cl
  Cl2      1.0000 0.61610  0.59760  0.77350  Biso   1.000  Cl
  Cl3      1.0000 0.78840  0.79120  0.53160  Biso   1.000  Cl
  Cl4      1.0000 0.21160  0.29120  0.46840  Biso   1.000  Cl
  C1       1.0000 0.01160  0.20320  0.73650  Biso   1.000  C
  C2       1.0000 0.98840  0.70320  0.26350  Biso   1.000  C
  C3       1.0000 0.11810  0.16900  0.94230  Biso   1.000  C
  C4       1.0000 0.88190  0.66900  0.05770  Biso   1.000  C
  C5       1.0000 0.60100  0.20050  0.58950  Biso   1.000  C
  C6       1.0000 0.39900  0.70050  0.41050  Biso   1.000  C
  C7       1.0000 0.57650  0.29100  0.50070  Biso   1.000  C
  C8       1.0000 0.42350  0.79100  0.49930  Biso   1.000  C
  C9       1.0000 0.79610  0.30560  0.37550  Biso   1.000  C
  C10      1.0000 0.20390  0.80560  0.62450  Biso   1.000  C
  C11      1.0000 0.67790  0.34840  0.38450  Biso   1.000  C
  C12      1.0000 0.32210  0.84840  0.61550  Biso   1.000  C
  C13      1.0000 0.86470  0.18790  0.16700  Biso   1.000  C
  C14      1.0000 0.13530  0.68790  0.83300  Biso   1.000  C
  C15      1.0000 0.99720  0.17660  0.21410  Biso   1.000  C
  C16      1.0000 0.00280  0.67660  0.78590  Biso   1.000  C
  C17      1.0000 0.72180  0.16450  0.00660  Biso   1.000  C
  C18      1.0000 0.27820  0.66450  0.99340  Biso   1.000  C
  C19      1.0000 0.72640  0.12880  0.91260  Biso   1.000  C
  C20      1.0000 0.27360  0.62880  0.08740  Biso   1.000  C
  C21      1.0000 0.14150  0.21870  0.78680  Biso   1.000  C
  C22      1.0000 0.85850  0.71870  0.21320  Biso   1.000  C
  C23      1.0000 0.21840  0.25990  0.73890  Biso   1.000  C
  C24      1.0000 0.78160  0.75990  0.26110  Biso   1.000  C
  C25      1.0000 0.33670  0.27530  0.78240  Biso   1.000  C
  C26      1.0000 0.66330  0.77530  0.21760  Biso   1.000  C
  C27      1.0000 0.38320  0.24900  0.87560  Biso   1.000  C
  C28      1.0000 0.61680  0.74900  0.12440  Biso   1.000  C
  C29      1.0000 0.31100  0.20830  0.92600  Biso   1.000  C
  C30      1.0000 0.68900  0.70830  0.07400  Biso   1.000  C
  C31      1.0000 0.19000  0.19500  0.88350  Biso   1.000  C
  C32      1.0000 0.81000  0.69500  0.11650  Biso   1.000  C
  N1       1.0000 0.88420  0.31920  0.46630  Biso   1.000  N
  N2       1.0000 0.11580  0.81920  0.53370  Biso   1.000  N
  N3       1.0000 0.66670  0.24360  0.46140  Biso   1.000  N
  N4       1.0000 0.33330  0.74360  0.53860  Biso   1.000  N
  N5       1.0000 0.72510  0.23120  0.64590  Biso   1.000  N
  N6       1.0000 0.27490  0.73120  0.35410  Biso   1.000  N
  N7       1.0000 0.05360  0.26660  0.15660  Biso   1.000  N
  N8       1.0000 0.94640  0.76660  0.84340  Biso   1.000  N
  N9       1.0000 0.84050  0.13270  0.07260  Biso   1.000  N
  N10      1.0000 0.15950  0.63270  0.92740  Biso   1.000  N
  N11      1.0000 0.82600  0.22660  0.90200  Biso   1.000  N
  N12      1.0000 0.17400  0.72660  0.09800  Biso   1.000  N
  O1       1.0000 0.27060  0.03710  0.22250  Biso   1.000  O
  O2       1.0000 0.72940  0.53710  0.77750  Biso   1.000  O
  O3       1.0000 0.46810  0.04960  0.30830  Biso   1.000  O
  O4       1.0000 0.53190  0.54960  0.69170  Biso   1.000  O
  O5       1.0000 0.40770  0.02870  0.15030  Biso   1.000  O
  O6       1.0000 0.59230  0.52870  0.84970  Biso   1.000  O
  O7       1.0000 0.37300  0.28510  0.22380  Biso   1.000  O
  O8       1.0000 0.62700  0.78510  0.77620  Biso   1.000  O
  O9       1.0000 0.86320  0.67290  0.51920  Biso   1.000  O
  O10      1.0000 0.13680  0.17290  0.48080  Biso   1.000  O
  O11      1.0000 0.76120  0.82920  0.60260  Biso   1.000  O
  O12      1.0000 0.23880  0.32920  0.39740  Biso   1.000  O
  O13      1.0000 0.68950  0.82920  0.45370  Biso   1.000  O
  O14      1.0000 0.31050  0.32920  0.54630  Biso   1.000  O
  O15      1.0000 0.86140  0.93990  0.55210  Biso   1.000  O
  O16      1.0000 0.13860  0.43990  0.44790  Biso   1.000  O
  O17      1.0000 0.97660  0.27130  0.65650  Biso   1.000  O
  O18      1.0000 0.02340  0.77130  0.34350  Biso   1.000  O
  O19      1.0000 0.95010  0.12670  0.77400  Biso   1.000  O
  O20      1.0000 0.04990  0.62670  0.22600  Biso   1.000  O
  O21      1.0000 0.07360  0.30300  0.96360  Biso   1.000  O
  O22      1.0000 0.92640  0.80300  0.03640  Biso   1.000  O
  O23      1.0000 0.10630  0.02180  0.97300  Biso   1.000  O
  O24      1.0000 0.89370  0.52180  0.02700  Biso   1.000  O
  H1       1.0000 0.59600  0.11200  0.59300  Biso   1.000  H
  H2       1.0000 0.40400  0.61200  0.40700  Biso   1.000  H
  H3       1.0000 0.54700  0.22000  0.60500  Biso   1.000  H
  H4       1.0000 0.45300  0.72000  0.39500  Biso   1.000  H
  H5       1.0000 0.88800  0.41100  0.47900  Biso   1.000  H
  H6       1.0000 0.11200  0.91100  0.52100  Biso   1.000  H
  H7       1.0000 0.93500  0.27400  0.46700  Biso   1.000  H
  H8       1.0000 0.06500  0.77400  0.53300  Biso   1.000  H
  H9       1.0000 0.49200  0.28400  0.45400  Biso   1.000  H
  H10      1.0000 0.50800  0.78400  0.54600  Biso   1.000  H
  H11      1.0000 0.69500  0.15300  0.47100  Biso   1.000  H
  H12      1.0000 0.30500  0.65300  0.52900  Biso   1.000  H
  H13      1.0000 0.79800  0.21200  0.36600  Biso   1.000  H
  H14      1.0000 0.20200  0.71200  0.63400  Biso   1.000  H
  H15      1.0000 0.82600  0.33900  0.34100  Biso   1.000  H
  H16      1.0000 0.17400  0.83900  0.65900  Biso   1.000  H
  H17      1.0000 0.75400  0.15600  0.69300  Biso   1.000  H
  H18      1.0000 0.24600  0.65600  0.30700  Biso   1.000  H
  H19      1.0000 0.72600  0.31500  0.66000  Biso   1.000  H
  H20      1.0000 0.27400  0.81500  0.34000  Biso   1.000  H
  H21      1.0000 0.59900  0.32800  0.31600  Biso   1.000  H
  H22      1.0000 0.40100  0.82800  0.68400  Biso   1.000  H
  H23      1.0000 0.66500  0.46600  0.39100  Biso   1.000  H
  H24      1.0000 0.33500  0.96600  0.60900  Biso   1.000  H
  H25      1.0000 0.82500  0.29600  0.16000  Biso   1.000  H
  H26      1.0000 0.17500  0.79600  0.84000  Biso   1.000  H
  H27      1.0000 0.83000  0.11100  0.20300  Biso   1.000  H
  H28      1.0000 0.17000  0.61100  0.79700  Biso   1.000  H
  H29      1.0000 0.04400  0.41600  0.16900  Biso   1.000  H
  H30      1.0000 0.95600  0.91600  0.83100  Biso   1.000  H
  H31      1.0000 0.10100  0.22200  0.16200  Biso   1.000  H
  H32      1.0000 0.89900  0.72200  0.83800  Biso   1.000  H
  H33      1.0000 0.03200  0.04100  0.22200  Biso   1.000  H
  H34      1.0000 0.96800  0.54100  0.77800  Biso   1.000  H
  H35      1.0000 0.01600  0.22100  0.27000  Biso   1.000  H
  H36      1.0000 0.98400  0.72100  0.73000  Biso   1.000  H
  H37      1.0000 0.70200  0.28800  0.00800  Biso   1.000  H
  H38      1.0000 0.29800  0.78800  0.99200  Biso   1.000  H
  H39      1.0000 0.67000  0.10500  0.01900  Biso   1.000  H
  H40      1.0000 0.33000  0.60500  0.98100  Biso   1.000  H
  H41      1.0000 0.80600  0.33200  0.88600  Biso   1.000  H
  H42      1.0000 0.19400  0.83200  0.11400  Biso   1.000  H
  H43      1.0000 0.85000  0.22000  0.86200  Biso   1.000  H
  H44      1.0000 0.15000  0.72000  0.13800  Biso   1.000  H
  H45      1.0000 0.65900  0.15500  0.88400  Biso   1.000  H
  H46      1.0000 0.34100  0.65500  0.11600  Biso   1.000  H
  H47      1.0000 0.73200  0.03000  0.89300  Biso   1.000  H
  H48      1.0000 0.26800  0.53000  0.10700  Biso   1.000  H
  H49      1.0000 0.20300  0.28400  0.68300  Biso   1.000  H
  H50      1.0000 0.79700  0.78400  0.31700  Biso   1.000  H
  H51      1.0000 0.37000  0.28200  0.75200  Biso   1.000  H
  H52      1.0000 0.63000  0.78200  0.24800  Biso   1.000  H
  H53      1.0000 0.45000  0.26600  0.90400  Biso   1.000  H
  H54      1.0000 0.55000  0.76600  0.09600  Biso   1.000  H
  H55      1.0000 0.35200  0.20400  0.98400  Biso   1.000  H
  H56      1.0000 0.64800  0.70400  0.01600  Biso   1.000  H
