data_image0
_cell_length_a       6.728
_cell_length_b       7.136
_cell_length_c       14.786
_cell_angle_alpha    90.25
_cell_angle_beta     96.24
_cell_angle_gamma    108.62

_symmetry_space_group_name_H-M    "P 1"
_symmetry_int_tables_number       1

loop_
  _symmetry_equiv_pos_as_xyz
  'x, y, z'

loop_
  _atom_site_label
  _atom_site_occupancy
  _atom_site_fract_x
  _atom_site_fract_y
  _atom_site_fract_z
  _atom_site_thermal_displace_type
  _atom_site_B_iso_or_equiv
  _atom_site_type_symbol
  Cu1      1.0000 0.50000  0.50000  0.00000  Biso   1.000  Cu
  Cu2      1.0000 0.00000  0.50000  0.00000  Biso   1.000  Cu
  Cl1      1.0000 0.25059  0.51188  0.63322  Biso   1.000  Cl
  Cl2      1.0000 0.74941  0.48812  0.36678  Biso   1.000  Cl
  O1       1.0000 0.23970  0.51820  0.93610  Biso   1.000  O
  O2       1.0000 0.76030  0.48180  0.06390  Biso   1.000  O
  O3       1.0000 0.81700  0.13460  0.95960  Biso   1.000  O
  O4       1.0000 0.18300  0.86540  0.04040  Biso   1.000  O
  B1       1.0000 0.69710  0.87660  0.16850  Biso   1.000  B
  B2       1.0000 0.30290  0.12340  0.83150  Biso   1.000  B
  F1       1.0000 0.59260  0.84800  0.07780  Biso   1.000  F
  F2       1.0000 0.40740  0.15200  0.92220  Biso   1.000  F
  F3       1.0000 0.60280  0.71950  0.22165  Biso   1.000  F
  F4       1.0000 0.39720  0.28050  0.77835  Biso   1.000  F
  F5       1.0000 0.90940  0.88860  0.16671  Biso   1.000  F
  F6       1.0000 0.09060  0.11140  0.83329  Biso   1.000  F
  F7       1.0000 0.69430  0.04950  0.21351  Biso   1.000  F
  F8       1.0000 0.30570  0.95050  0.78649  Biso   1.000  F
  N1       1.0000 0.33890  0.38540  0.10150  Biso   1.000  N
  N2       1.0000 0.66110  0.61460  0.89850  Biso   1.000  N
  N3       1.0000 0.15370  0.42220  0.11120  Biso   1.000  N
  N4       1.0000 0.84630  0.57780  0.88880  Biso   1.000  N
  N5       1.0000 0.23890  0.27300  0.23040  Biso   1.000  N
  N6       1.0000 0.76110  0.72700  0.76960  Biso   1.000  N
  N7       1.0000 0.22130  0.18130  0.31430  Biso   1.000  N
  N8       1.0000 0.77870  0.81870  0.68570  Biso   1.000  N
  C1       1.0000 0.27340  0.02400  0.31490  Biso   1.000  C
  C2       1.0000 0.72660  0.97600  0.68510  Biso   1.000  C
  H1       1.0000 0.31860  0.98410  0.26150  Biso   1.000  H
  H2       1.0000 0.68140  0.01590  0.73850  Biso   1.000  H
  C3       1.0000 0.26600  0.90340  0.39490  Biso   1.000  C
  C4       1.0000 0.73400  0.09660  0.60510  Biso   1.000  C
  C5       1.0000 0.30500  0.72550  0.38590  Biso   1.000  C
  C6       1.0000 0.69500  0.27450  0.61410  Biso   1.000  C
  H3       1.0000 0.33810  0.68740  0.32920  Biso   1.000  H
  H4       1.0000 0.66190  0.31260  0.67080  Biso   1.000  H
  C7       1.0000 0.29630  0.60250  0.45860  Biso   1.000  C
  C8       1.0000 0.70370  0.39750  0.54140  Biso   1.000  C
  H5       1.0000 0.31870  0.47860  0.45170  Biso   1.000  H
  H6       1.0000 0.68130  0.52140  0.54830  Biso   1.000  H
  C9       1.0000 0.25440  0.66330  0.54130  Biso   1.000  C
  C10      1.0000 0.74560  0.33670  0.45870  Biso   1.000  C
  C11      1.0000 0.21800  0.84360  0.55280  Biso   1.000  C
  C12      1.0000 0.78200  0.15640  0.44720  Biso   1.000  C
  H7       1.0000 0.18840  0.88280  0.61000  Biso   1.000  H
  H8       1.0000 0.81160  0.11720  0.39000  Biso   1.000  H
  C13      1.0000 0.22590  0.96410  0.47900  Biso   1.000  C
  C14      1.0000 0.77410  0.03590  0.52100  Biso   1.000  C
  H9       1.0000 0.20400  0.08820  0.48580  Biso   1.000  H
  H10      1.0000 0.79600  0.91180  0.51420  Biso   1.000  H
  C15      1.0000 0.38780  0.29600  0.17300  Biso   1.000  C
  C16      1.0000 0.61220  0.70400  0.82700  Biso   1.000  C
  H11      1.0000 0.50840  0.25370  0.18320  Biso   1.000  H
  H12      1.0000 0.49160  0.74630  0.81680  Biso   1.000  H
  C17      1.0000 0.09580  0.35400  0.19040  Biso   1.000  C
  C18      1.0000 0.90420  0.64600  0.80960  Biso   1.000  C
  H13      1.0000 0.97370  0.36040  0.21530  Biso   1.000  H
  H14      1.0000 0.02630  0.63960  0.78470  Biso   1.000  H
  H15      1.0000 0.90330  0.14130  0.91930  Biso   1.000  H
  H16      1.0000 0.09670  0.85870  0.08070  Biso   1.000  H
  H17      1.0000 0.73280  0.04270  0.99760  Biso   1.000  H
  H18      1.0000 0.26720  0.95730  0.00240  Biso   1.000  H
  H19      1.0000 0.20940  0.45700  0.88710  Biso   1.000  H
  H20      1.0000 0.79060  0.54300  0.11290  Biso   1.000  H
