data_image0
_cell_length_a       6.755
_cell_length_b       7.174
_cell_length_c       14.894
_cell_angle_alpha    90.52
_cell_angle_beta     96.09
_cell_angle_gamma    108.1

_symmetry_space_group_name_H-M    "P 1"
_symmetry_int_tables_number       1

loop_
  _symmetry_equiv_pos_as_xyz
  'x, y, z'

loop_
  _atom_site_label
  _atom_site_occupancy
  _atom_site_fract_x
  _atom_site_fract_y
  _atom_site_fract_z
  _atom_site_thermal_displace_type
  _atom_site_B_iso_or_equiv
  _atom_site_type_symbol
  Cu1      1.0000 0.50000  0.50000  0.00000  Biso   1.000  Cu
  Cu2      1.0000 0.00000  0.50000  0.00000  Biso   1.000  Cu
  Br1      1.0000 0.25016  0.50332  0.63572  Biso   1.000  Br
  Br2      1.0000 0.74984  0.49668  0.36428  Biso   1.000  Br
  O1       1.0000 0.23960  0.51830  0.93730  Biso   1.000  O
  O2       1.0000 0.76040  0.48170  0.06270  Biso   1.000  O
  O3       1.0000 0.81830  0.13720  0.95870  Biso   1.000  O
  O4       1.0000 0.18170  0.86280  0.04130  Biso   1.000  O
  B1       1.0000 0.69690  0.87870  0.16770  Biso   1.000  B
  B2       1.0000 0.30310  0.12130  0.83230  Biso   1.000  B
  F1       1.0000 0.69350  0.04720  0.21410  Biso   1.000  F
  F2       1.0000 0.30650  0.95280  0.78590  Biso   1.000  F
  F3       1.0000 0.59420  0.85050  0.07770  Biso   1.000  F
  F4       1.0000 0.40580  0.14950  0.92230  Biso   1.000  F
  F5       1.0000 0.60130  0.71930  0.21880  Biso   1.000  F
  F6       1.0000 0.39870  0.28070  0.78120  Biso   1.000  F
  F7       1.0000 0.90980  0.88930  0.16570  Biso   1.000  F
  F8       1.0000 0.09020  0.11070  0.83430  Biso   1.000  F
  F9       1.0000 0.47900  0.77000  0.17400  Biso   1.000  F
  F10      1.0000 0.52100  0.23000  0.82600  Biso   1.000  F
  F11      1.0000 0.78700  0.76000  0.21080  Biso   1.000  F
  F12      1.0000 0.21300  0.24000  0.78920  Biso   1.000  F
  F13      1.0000 0.87300  0.97200  0.11100  Biso   1.000  F
  F14      1.0000 0.12700  0.02800  0.88900  Biso   1.000  F
  N1       1.0000 0.33960  0.38530  0.10080  Biso   1.000  N
  N2       1.0000 0.66040  0.61470  0.89920  Biso   1.000  N
  N3       1.0000 0.15300  0.42030  0.10980  Biso   1.000  N
  N4       1.0000 0.84700  0.57970  0.89020  Biso   1.000  N
  N5       1.0000 0.23600  0.26860  0.22750  Biso   1.000  N
  N6       1.0000 0.76400  0.73140  0.77250  Biso   1.000  N
  N7       1.0000 0.21960  0.18020  0.31080  Biso   1.000  N
  N8       1.0000 0.78040  0.81980  0.68920  Biso   1.000  N
  C1       1.0000 0.27360  0.02360  0.31180  Biso   1.000  C
  C2       1.0000 0.72640  0.97640  0.68820  Biso   1.000  C
  H1       1.0000 0.31720  0.98210  0.25860  Biso   1.000  H
  H2       1.0000 0.68280  0.01790  0.74140  Biso   1.000  H
  C3       1.0000 0.27020  0.90780  0.39140  Biso   1.000  C
  C4       1.0000 0.72980  0.09220  0.60860  Biso   1.000  C
  C5       1.0000 0.30960  0.72790  0.38270  Biso   1.000  C
  C6       1.0000 0.69040  0.27210  0.61730  Biso   1.000  C
  H3       1.0000 0.34260  0.68860  0.32650  Biso   1.000  H
  H4       1.0000 0.65740  0.31140  0.67350  Biso   1.000  H
  C7       1.0000 0.30100  0.60800  0.45470  Biso   1.000  C
  C8       1.0000 0.69900  0.39200  0.54530  Biso   1.000  C
  H5       1.0000 0.32660  0.48590  0.44850  Biso   1.000  H
  H6       1.0000 0.67340  0.51410  0.55150  Biso   1.000  H
  C9       1.0000 0.25400  0.66820  0.53710  Biso   1.000  C
  C10      1.0000 0.74600  0.33180  0.46290  Biso   1.000  C
  C11      1.0000 0.21890  0.84640  0.54820  Biso   1.000  C
  C12      1.0000 0.78110  0.15360  0.45180  Biso   1.000  C
  H7       1.0000 0.19110  0.88680  0.60520  Biso   1.000  H
  H8       1.0000 0.80890  0.11320  0.39480  Biso   1.000  H
  C13      1.0000 0.22480  0.96660  0.47420  Biso   1.000  C
  C14      1.0000 0.77520  0.03340  0.52580  Biso   1.000  C
  H9       1.0000 0.19800  0.08810  0.48050  Biso   1.000  H
  H10      1.0000 0.80200  0.91190  0.51950  Biso   1.000  H
  C15      1.0000 0.38960  0.29490  0.17120  Biso   1.000  C
  C16      1.0000 0.61040  0.70510  0.82880  Biso   1.000  C
  H11      1.0000 0.51100  0.25450  0.18150  Biso   1.000  H
  H12      1.0000 0.48900  0.74550  0.81850  Biso   1.000  H
  C17      1.0000 0.09120  0.35040  0.18670  Biso   1.000  C
  C18      1.0000 0.90880  0.64960  0.81330  Biso   1.000  C
  H13      1.0000 0.96760  0.35510  0.21030  Biso   1.000  H
  H14      1.0000 0.03240  0.64490  0.78970  Biso   1.000  H
