data_image0
_cell_length_a       6.788
_cell_length_b       7.062
_cell_length_c       15.772
_cell_angle_alpha    86.65
_cell_angle_beta     86.35
_cell_angle_gamma    67.23

_symmetry_space_group_name_H-M    "P 1"
_symmetry_int_tables_number       1

loop_
  _symmetry_equiv_pos_as_xyz
  'x, y, z'

loop_
  _atom_site_label
  _atom_site_occupancy
  _atom_site_fract_x
  _atom_site_fract_y
  _atom_site_fract_z
  _atom_site_thermal_displace_type
  _atom_site_B_iso_or_equiv
  _atom_site_type_symbol
  Cu1      1.0000 0.50000  0.50000  0.00000  Biso   1.000  Cu
  Cu2      1.0000 0.00000  0.50000  0.00000  Biso   1.000  Cu
  Cl1      1.0000 0.41198  0.21432  0.74350  Biso   1.000  Cl
  Cl2      1.0000 0.58802  0.78568  0.25650  Biso   1.000  Cl
  O1       1.0000 0.22870  0.57280  0.94951  Biso   1.000  O
  O2       1.0000 0.77130  0.42720  0.05049  Biso   1.000  O
  O3       1.0000 0.38110  0.83970  0.07144  Biso   1.000  O
  O4       1.0000 0.61890  0.16030  0.92856  Biso   1.000  O
  O5       1.0000 0.78620  0.84560  0.04656  Biso   1.000  O
  O6       1.0000 0.21380  0.15440  0.95344  Biso   1.000  O
  O7       1.0000 0.07020  0.95140  0.84360  Biso   1.000  O
  O8       1.0000 0.92980  0.04860  0.15640  Biso   1.000  O
  O9       1.0000 0.08750  0.90320  0.70863  Biso   1.000  O
  O10      1.0000 0.91250  0.09680  0.29137  Biso   1.000  O
  O11      1.0000 0.89630  0.20270  0.75765  Biso   1.000  O
  O12      1.0000 0.10370  0.79730  0.24235  Biso   1.000  O
  N1       1.0000 0.37400  0.40510  0.10556  Biso   1.000  N
  N2       1.0000 0.62600  0.59490  0.89444  Biso   1.000  N
  N3       1.0000 0.16420  0.42200  0.10787  Biso   1.000  N
  N4       1.0000 0.83580  0.57800  0.89213  Biso   1.000  N
  N5       1.0000 0.27880  0.35280  0.23589  Biso   1.000  N
  N6       1.0000 0.72120  0.64720  0.76411  Biso   1.000  N
  N7       1.0000 0.25860  0.33060  0.32469  Biso   1.000  N
  N8       1.0000 0.74140  0.66940  0.67531  Biso   1.000  N
  N9       1.0000 0.01650  0.02110  0.76891  Biso   1.000  N
  N10      1.0000 0.98350  0.97890  0.23109  Biso   1.000  N
  C1       1.0000 0.42910  0.28680  0.36482  Biso   1.000  C
  C2       1.0000 0.57090  0.71320  0.63518  Biso   1.000  C
  H1       1.0000 0.56060  0.26680  0.33440  Biso   1.000  H
  H2       1.0000 0.43940  0.73320  0.66560  Biso   1.000  H
  C3       1.0000 0.42210  0.26740  0.45763  Biso   1.000  C
  C4       1.0000 0.57790  0.73260  0.54237  Biso   1.000  C
  C5       1.0000 0.60830  0.22840  0.49999  Biso   1.000  C
  C6       1.0000 0.39170  0.77160  0.50001  Biso   1.000  C
  H3       1.0000 0.73690  0.21330  0.46830  Biso   1.000  H
  H4       1.0000 0.26310  0.78670  0.53170  Biso   1.000  H
  C7       1.0000 0.60800  0.21140  0.58854  Biso   1.000  C
  C8       1.0000 0.39200  0.78860  0.41146  Biso   1.000  C
  H5       1.0000 0.73500  0.18330  0.61770  Biso   1.000  H
  H6       1.0000 0.26500  0.81670  0.38230  Biso   1.000  H
  C9       1.0000 0.41670  0.23660  0.63272  Biso   1.000  C
  C10      1.0000 0.58330  0.76340  0.36728  Biso   1.000  C
  C11      1.0000 0.22820  0.27420  0.59215  Biso   1.000  C
  C12      1.0000 0.77180  0.72580  0.40785  Biso   1.000  C
  H7       1.0000 0.09960  0.28940  0.62390  Biso   1.000  H
  H8       1.0000 0.90040  0.71060  0.37610  Biso   1.000  H
  C13      1.0000 0.23380  0.28870  0.50423  Biso   1.000  C
  C14      1.0000 0.76620  0.71130  0.49577  Biso   1.000  C
  H9       1.0000 0.10730  0.31360  0.47520  Biso   1.000  H
  H10      1.0000 0.89270  0.68640  0.52480  Biso   1.000  H
  C15      1.0000 0.44110  0.36420  0.18316  Biso   1.000  C
  C16      1.0000 0.55890  0.63580  0.81684  Biso   1.000  C
  H11      1.0000 0.57960  0.34550  0.19990  Biso   1.000  H
  H12      1.0000 0.42040  0.65450  0.80010  Biso   1.000  H
  C17      1.0000 0.11130  0.39160  0.18721  Biso   1.000  C
  C18      1.0000 0.88870  0.60840  0.81279  Biso   1.000  C
  H13      1.0000 0.97460  0.39630  0.20740  Biso   1.000  H
  H14      1.0000 0.02540  0.60370  0.79260  Biso   1.000  H
  H15      1.0000 0.18020  0.68550  0.92450  Biso   1.000  H
  H16      1.0000 0.81980  0.31450  0.07550  Biso   1.000  H
  H17      1.0000 0.31970  0.92280  0.04320  Biso   1.000  H
  H18      1.0000 0.68030  0.07720  0.95680  Biso   1.000  H
  H19      1.0000 0.30700  0.84620  0.10270  Biso   1.000  H
  H20      1.0000 0.69300  0.15380  0.89730  Biso   1.000  H
  H21      1.0000 0.84450  0.87300  0.08050  Biso   1.000  H
  H22      1.0000 0.15550  0.12700  0.91950  Biso   1.000  H
  H23      1.0000 0.68470  0.84160  0.06620  Biso   1.000  H
  H24      1.0000 0.31530  0.15840  0.93380  Biso   1.000  H
