data_image0
_cell_length_a       6.813
_cell_length_b       7.163
_cell_length_c       16.039
_cell_angle_alpha    85.12
_cell_angle_beta     87.33
_cell_angle_gamma    64.32

_symmetry_space_group_name_H-M    "P 1"
_symmetry_int_tables_number       1

loop_
  _symmetry_equiv_pos_as_xyz
  'x, y, z'

loop_
  _atom_site_label
  _atom_site_occupancy
  _atom_site_fract_x
  _atom_site_fract_y
  _atom_site_fract_z
  _atom_site_thermal_displace_type
  _atom_site_B_iso_or_equiv
  _atom_site_type_symbol
  Cu1      1.0000 0.50000  0.50000  0.00000  Biso   1.000  Cu
  Cu2      1.0000 0.00000  0.50000  0.00000  Biso   1.000  Cu
  Br1      1.0000 0.45033  0.21750  0.74362  Biso   1.000  Br
  Br2      1.0000 0.54967  0.78250  0.25638  Biso   1.000  Br
  O1       1.0000 0.21970  0.57920  0.95050  Biso   1.000  O
  O2       1.0000 0.78030  0.42080  0.04950  Biso   1.000  O
  O3       1.0000 0.36950  0.84030  0.06520  Biso   1.000  O
  O4       1.0000 0.63050  0.15970  0.93480  Biso   1.000  O
  O5       1.0000 0.77600  0.84070  0.05500  Biso   1.000  O
  O6       1.0000 0.22400  0.15930  0.94500  Biso   1.000  O
  O7       1.0000 0.03530  0.98640  0.84670  Biso   1.000  O
  O8       1.0000 0.96470  0.01360  0.15330  Biso   1.000  O
  O9       1.0000 0.08190  0.89190  0.71990  Biso   1.000  O
  O10      1.0000 0.91810  0.10810  0.28010  Biso   1.000  O
  O11      1.0000 0.94030  0.21940  0.74250  Biso   1.000  O
  O12      1.0000 0.05970  0.78060  0.25750  Biso   1.000  O
  N1       1.0000 0.38400  0.39950  0.10380  Biso   1.000  N
  N2       1.0000 0.61600  0.60050  0.89620  Biso   1.000  N
  N3       1.0000 0.17630  0.41100  0.10600  Biso   1.000  N
  N4       1.0000 0.82370  0.58900  0.89400  Biso   1.000  N
  N5       1.0000 0.29450  0.34320  0.23170  Biso   1.000  N
  N6       1.0000 0.70550  0.65680  0.76830  Biso   1.000  N
  N7       1.0000 0.27790  0.32070  0.32010  Biso   1.000  N
  N8       1.0000 0.72210  0.67930  0.67990  Biso   1.000  N
  N9       1.0000 0.01860  0.03430  0.76790  Biso   1.000  N
  N10      1.0000 0.98140  0.96570  0.23210  Biso   1.000  N
  C1       1.0000 0.44760  0.28480  0.36090  Biso   1.000  C
  C2       1.0000 0.55240  0.71520  0.63910  Biso   1.000  C
  H1       1.0000 0.57770  0.26900  0.33160  Biso   1.000  H
  H2       1.0000 0.42230  0.73100  0.66840  Biso   1.000  H
  C3       1.0000 0.44430  0.26770  0.45230  Biso   1.000  C
  C4       1.0000 0.55570  0.73230  0.54770  Biso   1.000  C
  C5       1.0000 0.63560  0.22220  0.49390  Biso   1.000  C
  C6       1.0000 0.36440  0.77780  0.50610  Biso   1.000  C
  H3       1.0000 0.76510  0.19930  0.46270  Biso   1.000  H
  H4       1.0000 0.23490  0.80070  0.53730  Biso   1.000  H
  C7       1.0000 0.63900  0.20980  0.58160  Biso   1.000  C
  C8       1.0000 0.36100  0.79020  0.41840  Biso   1.000  C
  H5       1.0000 0.76780  0.18410  0.61040  Biso   1.000  H
  H6       1.0000 0.23220  0.81590  0.38960  Biso   1.000  H
  C9       1.0000 0.44860  0.23620  0.62500  Biso   1.000  C
  C10      1.0000 0.55140  0.76380  0.37500  Biso   1.000  C
  C11      1.0000 0.25660  0.27940  0.58360  Biso   1.000  C
  C12      1.0000 0.74340  0.72060  0.41640  Biso   1.000  C
  H7       1.0000 0.12690  0.29970  0.61420  Biso   1.000  H
  H8       1.0000 0.87310  0.70030  0.38580  Biso   1.000  H
  C13      1.0000 0.25900  0.29190  0.49870  Biso   1.000  C
  C14      1.0000 0.74100  0.70810  0.50130  Biso   1.000  C
  H9       1.0000 0.12960  0.31810  0.47020  Biso   1.000  H
  H10      1.0000 0.87040  0.68190  0.52980  Biso   1.000  H
  C15      1.0000 0.45340  0.36080  0.18130  Biso   1.000  C
  C16      1.0000 0.54660  0.63920  0.81870  Biso   1.000  C
  H11      1.0000 0.59030  0.34740  0.19910  Biso   1.000  H
  H12      1.0000 0.40970  0.65260  0.80090  Biso   1.000  H
  C17      1.0000 0.12820  0.37700  0.18310  Biso   1.000  C
  C18      1.0000 0.87180  0.62300  0.81690  Biso   1.000  C
  H13      1.0000 0.99430  0.37630  0.20190  Biso   1.000  H
  H14      1.0000 0.00570  0.62370  0.79810  Biso   1.000  H
  H15      1.0000 0.19280  0.63500  0.91950  Biso   1.000  H
  H16      1.0000 0.80720  0.36500  0.08050  Biso   1.000  H
