data_image0
_cell_length_a       8.634
_cell_length_b       11.827
_cell_length_c       11.981
_cell_angle_alpha    94.07
_cell_angle_beta     109.57
_cell_angle_gamma    103.4

_symmetry_space_group_name_H-M    "P 1"
_symmetry_int_tables_number       1

loop_
  _symmetry_equiv_pos_as_xyz
  'x, y, z'

loop_
  _atom_site_label
  _atom_site_occupancy
  _atom_site_fract_x
  _atom_site_fract_y
  _atom_site_fract_z
  _atom_site_thermal_displace_type
  _atom_site_B_iso_or_equiv
  _atom_site_type_symbol
  Cu1      1.0000 0.22148  0.43467  0.02007  Biso   1.000  Cu
  Cu2      1.0000 0.77852  0.56533  0.97993  Biso   1.000  Cu
  O1       1.0000 0.27020  0.44000  0.87210  Biso   1.000  O
  O2       1.0000 0.72980  0.56000  0.12790  Biso   1.000  O
  N1       1.0000 0.77900  0.02670  0.96270  Biso   1.000  N
  N2       1.0000 0.22100  0.97330  0.03730  Biso   1.000  N
  C1       1.0000 0.88640  0.09930  0.92480  Biso   1.000  C
  C2       1.0000 0.11360  0.90070  0.07520  Biso   1.000  C
  C3       1.0000 0.97060  0.21560  0.98930  Biso   1.000  C
  C4       1.0000 0.02940  0.78440  0.01070  Biso   1.000  C
  C5       1.0000 0.93260  0.25000  0.09040  Biso   1.000  C
  C6       1.0000 0.06740  0.75000  0.90960  Biso   1.000  C
  C7       1.0000 0.81420  0.16880  0.12380  Biso   1.000  C
  C8       1.0000 0.18580  0.83120  0.87620  Biso   1.000  C
  C9       1.0000 0.74110  0.05760  0.05990  Biso   1.000  C
  C10      1.0000 0.25890  0.94240  0.94010  Biso   1.000  C
  C11      1.0000 0.91320  0.05690  0.81470  Biso   1.000  C
  C12      1.0000 0.08680  0.94310  0.18530  Biso   1.000  C
  C13      1.0000 0.76420  0.20000  0.22930  Biso   1.000  C
  C14      1.0000 0.23580  0.80000  0.77070  Biso   1.000  C
  O3       1.0000 0.07310  0.28170  0.94720  Biso   1.000  O
  O4       1.0000 0.92690  0.71830  0.05280  Biso   1.000  O
  P1       1.0000 0.49316  0.27669  0.12984  Biso   1.000  P
  P2       1.0000 0.50684  0.72331  0.87016  Biso   1.000  P
  O5       1.0000 0.68930  0.29780  0.21440  Biso   1.000  O
  O6       1.0000 0.31070  0.70220  0.78560  Biso   1.000  O
  O7       1.0000 0.38100  0.18430  0.16780  Biso   1.000  O
  O8       1.0000 0.61900  0.81570  0.83220  Biso   1.000  O
  O9       1.0000 0.47960  0.22610  0.00090  Biso   1.000  O
  O10      1.0000 0.52040  0.77390  0.99910  Biso   1.000  O
  O11      1.0000 0.46680  0.39740  0.13370  Biso   1.000  O
  O12      1.0000 0.53320  0.60260  0.86630  Biso   1.000  O
  C15      1.0000 0.00960  0.36720  0.16110  Biso   1.000  C
  C16      1.0000 0.99040  0.63280  0.83890  Biso   1.000  C
  N3       1.0000 0.12850  0.44480  0.14500  Biso   1.000  N
  N4       1.0000 0.87150  0.55520  0.85500  Biso   1.000  N
  C17      1.0000 0.20920  0.55520  0.22930  Biso   1.000  C
  C18      1.0000 0.79080  0.44480  0.77070  Biso   1.000  C
  C19      1.0000 0.29920  0.64670  0.17030  Biso   1.000  C
  C20      1.0000 0.70080  0.35330  0.82970  Biso   1.000  C
  O13      1.0000 0.32120  0.60670  0.07550  Biso   1.000  O
  O14      1.0000 0.67880  0.39330  0.92450  Biso   1.000  O
  O15      1.0000 0.35050  0.75080  0.21740  Biso   1.000  O
  O16      1.0000 0.64950  0.24920  0.78260  Biso   1.000  O
  C21      1.0000 0.34950  0.53760  0.34170  Biso   1.000  C
  C22      1.0000 0.65050  0.46240  0.65830  Biso   1.000  C
  C23      1.0000 0.28230  0.45640  0.41680  Biso   1.000  C
  C24      1.0000 0.71770  0.54360  0.58320  Biso   1.000  C
  C25      1.0000 0.28080  0.34010  0.40580  Biso   1.000  C
  C26      1.0000 0.71920  0.65990  0.59420  Biso   1.000  C
  C27      1.0000 0.22980  0.26870  0.48320  Biso   1.000  C
  C28      1.0000 0.77020  0.73130  0.51680  Biso   1.000  C
  C29      1.0000 0.17980  0.31800  0.57000  Biso   1.000  C
  C30      1.0000 0.82020  0.68200  0.43000  Biso   1.000  C
  C31      1.0000 0.17660  0.43430  0.57950  Biso   1.000  C
  C32      1.0000 0.82340  0.56570  0.42050  Biso   1.000  C
  C33      1.0000 0.22750  0.50170  0.50280  Biso   1.000  C
  C34      1.0000 0.77250  0.49830  0.49720  Biso   1.000  C
  O17      1.0000 0.13900  0.25490  0.65470  Biso   1.000  O
  O18      1.0000 0.86100  0.74510  0.34530  Biso   1.000  O
  O19      1.0000 0.32370  0.09200  0.70670  Biso   1.000  O
  O20      1.0000 0.67630  0.90800  0.29330  Biso   1.000  O
  O21      1.0000 0.49720  0.90870  0.60710  Biso   1.000  O
  O22      1.0000 0.50280  0.09130  0.39290  Biso   1.000  O
  O23      1.0000 0.23190  0.78190  0.41360  Biso   1.000  O
  O24      1.0000 0.76810  0.21810  0.58640  Biso   1.000  O
  O25      1.0000 0.25860  0.95640  0.50020  Biso   1.000  O
  O26      1.0000 0.74140  0.04360  0.49980  Biso   1.000  O
  H1       1.0000 0.73200  0.94200  0.91700  Biso   1.000  H
  H2       1.0000 0.26800  0.05800  0.08300  Biso   1.000  H
  H3       1.0000 0.47500  0.26800  0.02700  Biso   1.000  H
  H4       1.0000 0.52500  0.73200  0.97300  Biso   1.000  H
  H5       1.0000 0.65300  0.98700  0.07900  Biso   1.000  H
  H6       1.0000 0.34700  0.01300  0.92100  Biso   1.000  H
  H7       1.0000 0.85600  0.08100  0.75100  Biso   1.000  H
  H8       1.0000 0.14400  0.91900  0.24900  Biso   1.000  H
  H9       1.0000 0.88800  0.97400  0.80200  Biso   1.000  H
  H10      1.0000 0.11200  0.02600  0.19800  Biso   1.000  H
  H11      1.0000 0.04400  0.08400  0.82100  Biso   1.000  H
  H12      1.0000 0.95600  0.91600  0.17900  Biso   1.000  H
  H13      1.0000 0.76600  0.23100  0.30700  Biso   1.000  H
  H14      1.0000 0.23400  0.76900  0.69300  Biso   1.000  H
  H15      1.0000 0.67700  0.11500  0.23600  Biso   1.000  H
  H16      1.0000 0.32300  0.88500  0.76400  Biso   1.000  H
  H17      1.0000 0.10300  0.17500  0.60600  Biso   1.000  H
  H18      1.0000 0.89700  0.82500  0.39400  Biso   1.000  H
  H19      1.0000 0.97300  0.38800  0.23400  Biso   1.000  H
  H20      1.0000 0.02700  0.61200  0.76600  Biso   1.000  H
  H21      1.0000 0.11800  0.58300  0.26000  Biso   1.000  H
  H22      1.0000 0.88200  0.41700  0.74000  Biso   1.000  H
  H23      1.0000 0.44000  0.50100  0.32100  Biso   1.000  H
  H24      1.0000 0.56000  0.49900  0.67900  Biso   1.000  H
  H25      1.0000 0.41400  0.61300  0.38700  Biso   1.000  H
  H26      1.0000 0.58600  0.38700  0.61300  Biso   1.000  H
  H27      1.0000 0.32400  0.31200  0.33700  Biso   1.000  H
  H28      1.0000 0.67600  0.68800  0.66300  Biso   1.000  H
  H29      1.0000 0.22500  0.17700  0.46200  Biso   1.000  H
  H30      1.0000 0.77500  0.82300  0.53800  Biso   1.000  H
  H31      1.0000 0.14200  0.47100  0.65000  Biso   1.000  H
  H32      1.0000 0.85800  0.52900  0.35000  Biso   1.000  H
  H33      1.0000 0.21700  0.57400  0.51600  Biso   1.000  H
  H34      1.0000 0.78300  0.42600  0.48400  Biso   1.000  H
  H35      1.0000 0.38400  0.51700  0.88200  Biso   1.000  H
  H36      1.0000 0.61600  0.48300  0.11800  Biso   1.000  H
  H37      1.0000 0.24300  0.37600  0.82000  Biso   1.000  H
  H38      1.0000 0.75700  0.62400  0.18000  Biso   1.000  H
  H39      1.0000 0.45000  0.14000  0.75200  Biso   1.000  H
  H40      1.0000 0.55000  0.86000  0.24800  Biso   1.000  H
  H41      1.0000 0.45400  0.83600  0.55700  Biso   1.000  H
  H42      1.0000 0.54600  0.16400  0.44300  Biso   1.000  H
