data_image0
_cell_length_a       8.777
_cell_length_b       11.736
_cell_length_c       12.188
_cell_angle_alpha    97.55
_cell_angle_beta     108.72
_cell_angle_gamma    103.36

_symmetry_space_group_name_H-M    "P 1"
_symmetry_int_tables_number       1

loop_
  _symmetry_equiv_pos_as_xyz
  'x, y, z'

loop_
  _atom_site_label
  _atom_site_occupancy
  _atom_site_fract_x
  _atom_site_fract_y
  _atom_site_fract_z
  _atom_site_thermal_displace_type
  _atom_site_B_iso_or_equiv
  _atom_site_type_symbol
  Cu1      1.0000 0.27660  0.06480  0.47990  Biso   1.000  Cu
  Cu2      1.0000 0.72340  0.93520  0.52010  Biso   1.000  Cu
  O1       1.0000 0.23290  0.07070  0.62910  Biso   1.000  O
  O2       1.0000 0.76710  0.92930  0.37090  Biso   1.000  O
  N1       1.0000 0.72400  0.47520  0.53750  Biso   1.000  N
  N2       1.0000 0.27600  0.52480  0.46250  Biso   1.000  N
  C1       1.0000 0.61490  0.40440  0.57360  Biso   1.000  C
  C2       1.0000 0.38510  0.59560  0.42640  Biso   1.000  C
  C3       1.0000 0.52770  0.28420  0.50880  Biso   1.000  C
  C4       1.0000 0.47230  0.71580  0.49120  Biso   1.000  C
  C5       1.0000 0.56430  0.24200  0.41070  Biso   1.000  C
  C6       1.0000 0.43570  0.75800  0.58930  Biso   1.000  C
  C7       1.0000 0.68270  0.31960  0.37520  Biso   1.000  C
  C8       1.0000 0.31730  0.68040  0.62480  Biso   1.000  C
  C9       1.0000 0.75670  0.43560  0.44100  Biso   1.000  C
  C10      1.0000 0.24330  0.56440  0.55900  Biso   1.000  C
  C11      1.0000 0.59420  0.45570  0.68680  Biso   1.000  C
  C12      1.0000 0.40580  0.54430  0.31320  Biso   1.000  C
  C13      1.0000 0.72670  0.28010  0.27090  Biso   1.000  C
  C14      1.0000 0.27330  0.71990  0.72910  Biso   1.000  C
  O3       1.0000 0.42400  0.22440  0.54890  Biso   1.000  O
  O4       1.0000 0.57600  0.77560  0.45110  Biso   1.000  O
  C15      1.0000 0.48500  0.11920  0.33820  Biso   1.000  C
  C16      1.0000 0.51500  0.88080  0.66180  Biso   1.000  C
  N3       1.0000 0.36540  0.04530  0.35570  Biso   1.000  N
  N4       1.0000 0.63460  0.95470  0.64430  Biso   1.000  N
  C17      1.0000 0.28010  0.92740  0.27060  Biso   1.000  C
  C18      1.0000 0.71990  0.07260  0.72940  Biso   1.000  C
  C19      1.0000 0.19420  0.84200  0.33310  Biso   1.000  C
  C20      1.0000 0.80580  0.15800  0.66690  Biso   1.000  C
  O5       1.0000 0.80630  0.18510  0.28780  Biso   1.000  O
  O6       1.0000 0.19370  0.81490  0.71220  Biso   1.000  O
  P1       1.0000 0.00160  0.21620  0.37190  Biso   1.000  P
  P2       1.0000 0.99840  0.78380  0.62810  Biso   1.000  P
  O7       1.0000 0.10690  0.30860  0.33200  Biso   1.000  O
  O8       1.0000 0.89310  0.69140  0.66800  Biso   1.000  O
  O9       1.0000 0.01290  0.27530  0.49900  Biso   1.000  O
  O10      1.0000 0.98710  0.72470  0.50100  Biso   1.000  O
  O11      1.0000 0.03300  0.09580  0.37010  Biso   1.000  O
  O12      1.0000 0.96700  0.90420  0.62990  Biso   1.000  O
  O13      1.0000 0.18050  0.88800  0.42760  Biso   1.000  O
  O14      1.0000 0.81950  0.11200  0.57240  Biso   1.000  O
  O15      1.0000 0.14170  0.73290  0.28600  Biso   1.000  O
  O16      1.0000 0.85830  0.26710  0.71400  Biso   1.000  O
  C21      1.0000 0.14240  0.94340  0.16060  Biso   1.000  C
  C22      1.0000 0.85760  0.05660  0.83940  Biso   1.000  C
  C23      1.0000 0.20920  0.02460  0.09270  Biso   1.000  C
  C24      1.0000 0.79080  0.97540  0.90730  Biso   1.000  C
  C25      1.0000 0.22270  0.14570  0.11870  Biso   1.000  C
  C26      1.0000 0.77730  0.85430  0.88130  Biso   1.000  C
  C27      1.0000 0.28830  0.22370  0.05650  Biso   1.000  C
  C28      1.0000 0.71170  0.77630  0.94350  Biso   1.000  C
  C29      1.0000 0.34480  0.18010  0.97070  Biso   1.000  C
  C30      1.0000 0.65520  0.81990  0.02930  Biso   1.000  C
  C31      1.0000 0.32480  0.06070  0.94040  Biso   1.000  C
  C32      1.0000 0.67520  0.93930  0.05960  Biso   1.000  C
  C33      1.0000 0.25840  0.98150  0.00340  Biso   1.000  C
  C34      1.0000 0.74160  0.01850  0.99660  Biso   1.000  C
  O17      1.0000 0.24250  0.30370  0.73790  Biso   1.000  O
  O18      1.0000 0.75750  0.69630  0.26210  Biso   1.000  O
  O19      1.0000 0.98070  0.36720  0.10320  Biso   1.000  O
  O20      1.0000 0.01930  0.63280  0.89680  Biso   1.000  O
  O21      1.0000 0.90340  0.57360  0.09110  Biso   1.000  O
  O22      1.0000 0.09660  0.42640  0.90890  Biso   1.000  O
  H1       1.0000 0.82800  0.48700  0.42900  Biso   1.000  H
  H2       1.0000 0.17200  0.51300  0.57100  Biso   1.000  H
  H3       1.0000 0.46300  0.43100  0.67800  Biso   1.000  H
  H4       1.0000 0.53700  0.56900  0.32200  Biso   1.000  H
  H5       1.0000 0.62100  0.56000  0.69900  Biso   1.000  H
  H6       1.0000 0.37900  0.44000  0.30100  Biso   1.000  H
  H7       1.0000 0.65700  0.41900  0.75700  Biso   1.000  H
  H8       1.0000 0.34300  0.58100  0.24300  Biso   1.000  H
  H9       1.0000 0.62800  0.23400  0.19300  Biso   1.000  H
  H10      1.0000 0.37200  0.76600  0.80700  Biso   1.000  H
  H11      1.0000 0.77700  0.32800  0.24400  Biso   1.000  H
  H12      1.0000 0.22300  0.67200  0.75600  Biso   1.000  H
  H13      1.0000 0.51700  0.09700  0.26200  Biso   1.000  H
  H14      1.0000 0.48300  0.90300  0.73800  Biso   1.000  H
  H15      1.0000 0.36600  0.89600  0.24300  Biso   1.000  H
  H16      1.0000 0.63400  0.10400  0.75700  Biso   1.000  H
  H17      1.0000 0.93500  0.28000  0.51100  Biso   1.000  H
  H18      1.0000 0.06500  0.72000  0.48900  Biso   1.000  H
  H19      1.0000 0.21200  0.13700  0.64400  Biso   1.000  H
  H20      1.0000 0.78800  0.86300  0.35600  Biso   1.000  H
  H21      1.0000 0.13900  0.02900  0.61400  Biso   1.000  H
  H22      1.0000 0.86100  0.97100  0.38600  Biso   1.000  H
  H23      1.0000 0.09500  0.86300  0.10200  Biso   1.000  H
  H24      1.0000 0.90500  0.13700  0.89800  Biso   1.000  H
  H25      1.0000 0.06600  0.98500  0.21200  Biso   1.000  H
  H26      1.0000 0.93400  0.01500  0.78800  Biso   1.000  H
  H27      1.0000 0.19100  0.18500  0.17700  Biso   1.000  H
  H28      1.0000 0.80900  0.81500  0.82300  Biso   1.000  H
  H29      1.0000 0.30600  0.32000  0.07400  Biso   1.000  H
  H30      1.0000 0.69400  0.68000  0.92600  Biso   1.000  H
  H31      1.0000 0.39900  0.23700  0.91200  Biso   1.000  H
  H32      1.0000 0.60100  0.76300  0.08800  Biso   1.000  H
  H33      1.0000 0.38300  0.00800  0.89600  Biso   1.000  H
  H34      1.0000 0.61700  0.99200  0.10400  Biso   1.000  H
  H35      1.0000 0.25000  0.89400  0.96300  Biso   1.000  H
  H36      1.0000 0.75000  0.10600  0.03700  Biso   1.000  H
