data_image0
_cell_length_a       26.9835
_cell_length_b       7.842
_cell_length_c       24.013
_cell_angle_alpha    90
_cell_angle_beta     100.827
_cell_angle_gamma    90

_symmetry_space_group_name_H-M    "P 1"
_symmetry_int_tables_number       1

loop_
  _symmetry_equiv_pos_as_xyz
  'x, y, z'

loop_
  _atom_site_label
  _atom_site_occupancy
  _atom_site_fract_x
  _atom_site_fract_y
  _atom_site_fract_z
  _atom_site_thermal_displace_type
  _atom_site_B_iso_or_equiv
  _atom_site_type_symbol
  Cu1      1.0000 0.46217  0.13529  0.49440  Biso   1.000  Cu
  Cu2      1.0000 0.53783  0.13529  0.00560  Biso   1.000  Cu
  Cu3      1.0000 0.96217  0.63529  0.49440  Biso   1.000  Cu
  Cu4      1.0000 0.03783  0.63529  0.00560  Biso   1.000  Cu
  Cu5      1.0000 0.53783  0.86471  0.50560  Biso   1.000  Cu
  Cu6      1.0000 0.46217  0.86471  0.99440  Biso   1.000  Cu
  Cu7      1.0000 0.03783  0.36471  0.50560  Biso   1.000  Cu
  Cu8      1.0000 0.96217  0.36471  0.99440  Biso   1.000  Cu
  O1       1.0000 0.50896  0.24760  0.44980  Biso   1.000  O
  O2       1.0000 0.49104  0.24760  0.05020  Biso   1.000  O
  O3       1.0000 0.00896  0.74760  0.44980  Biso   1.000  O
  O4       1.0000 0.99104  0.74760  0.05020  Biso   1.000  O
  O5       1.0000 0.49104  0.75240  0.55020  Biso   1.000  O
  O6       1.0000 0.50896  0.75240  0.94980  Biso   1.000  O
  O7       1.0000 0.99104  0.25240  0.55020  Biso   1.000  O
  O8       1.0000 0.00896  0.25240  0.94980  Biso   1.000  O
  O9       1.0000 0.56530  0.98920  0.07550  Biso   1.000  O
  O10      1.0000 0.43470  0.98920  0.42450  Biso   1.000  O
  O11      1.0000 0.06530  0.48920  0.07550  Biso   1.000  O
  O12      1.0000 0.93470  0.48920  0.42450  Biso   1.000  O
  O13      1.0000 0.43470  0.01080  0.92450  Biso   1.000  O
  O14      1.0000 0.56530  0.01080  0.57550  Biso   1.000  O
  O15      1.0000 0.93470  0.51080  0.92450  Biso   1.000  O
  O16      1.0000 0.06530  0.51080  0.57550  Biso   1.000  O
  N1       1.0000 0.40484  0.30030  0.48640  Biso   1.000  N
  N2       1.0000 0.59516  0.30030  0.01360  Biso   1.000  N
  N3       1.0000 0.90484  0.80030  0.48640  Biso   1.000  N
  N4       1.0000 0.09516  0.80030  0.01360  Biso   1.000  N
  N5       1.0000 0.59516  0.69970  0.51360  Biso   1.000  N
  N6       1.0000 0.40484  0.69970  0.98640  Biso   1.000  N
  N7       1.0000 0.09516  0.19970  0.51360  Biso   1.000  N
  N8       1.0000 0.90484  0.19970  0.98640  Biso   1.000  N
  O17      1.0000 0.50860  0.78290  0.06890  Biso   1.000  O
  O18      1.0000 0.49140  0.78290  0.43110  Biso   1.000  O
  O19      1.0000 0.00860  0.28290  0.06890  Biso   1.000  O
  O20      1.0000 0.99140  0.28290  0.43110  Biso   1.000  O
  O21      1.0000 0.49140  0.21710  0.93110  Biso   1.000  O
  O22      1.0000 0.50860  0.21710  0.56890  Biso   1.000  O
  O23      1.0000 0.99140  0.71710  0.93110  Biso   1.000  O
  O24      1.0000 0.00860  0.71710  0.56890  Biso   1.000  O
  O25      1.0000 0.56540  0.04230  0.45590  Biso   1.000  O
  O26      1.0000 0.43460  0.04230  0.04410  Biso   1.000  O
  O27      1.0000 0.06540  0.54230  0.45590  Biso   1.000  O
  O28      1.0000 0.93460  0.54230  0.04410  Biso   1.000  O
  O29      1.0000 0.43460  0.95770  0.54410  Biso   1.000  O
  O30      1.0000 0.56540  0.95770  0.95590  Biso   1.000  O
  O31      1.0000 0.93460  0.45770  0.54410  Biso   1.000  O
  O32      1.0000 0.06540  0.45770  0.95590  Biso   1.000  O
  O33      1.0000 0.65280  0.57450  0.30150  Biso   1.000  O
  O34      1.0000 0.34720  0.57450  0.19850  Biso   1.000  O
  O35      1.0000 0.15280  0.07450  0.30150  Biso   1.000  O
  O36      1.0000 0.84720  0.07450  0.19850  Biso   1.000  O
  O37      1.0000 0.34720  0.42550  0.69850  Biso   1.000  O
  O38      1.0000 0.65280  0.42550  0.80150  Biso   1.000  O
  O39      1.0000 0.84720  0.92550  0.69850  Biso   1.000  O
  O40      1.0000 0.15280  0.92550  0.80150  Biso   1.000  O
  C1       1.0000 0.54770  0.85840  0.09330  Biso   1.000  C
  C2       1.0000 0.45230  0.85840  0.40670  Biso   1.000  C
  C3       1.0000 0.04770  0.35840  0.09330  Biso   1.000  C
  C4       1.0000 0.95230  0.35840  0.40670  Biso   1.000  C
  C5       1.0000 0.45230  0.14160  0.90670  Biso   1.000  C
  C6       1.0000 0.54770  0.14160  0.59330  Biso   1.000  C
  C7       1.0000 0.95230  0.64160  0.90670  Biso   1.000  C
  C8       1.0000 0.04770  0.64160  0.59330  Biso   1.000  C
  C9       1.0000 0.40600  0.46100  0.46750  Biso   1.000  C
  C10      1.0000 0.59400  0.46100  0.03250  Biso   1.000  C
  C11      1.0000 0.90600  0.96100  0.46750  Biso   1.000  C
  C12      1.0000 0.09400  0.96100  0.03250  Biso   1.000  C
  C13      1.0000 0.59400  0.53900  0.53250  Biso   1.000  C
  C14      1.0000 0.40600  0.53900  0.96750  Biso   1.000  C
  C15      1.0000 0.09400  0.03900  0.53250  Biso   1.000  C
  C16      1.0000 0.90600  0.03900  0.96750  Biso   1.000  C
  H1       1.0000 0.43436  0.49520  0.45357  Biso   1.000  H
  H2       1.0000 0.56564  0.49520  0.04643  Biso   1.000  H
  H3       1.0000 0.93436  0.99520  0.45357  Biso   1.000  H
  H4       1.0000 0.06564  0.99520  0.04643  Biso   1.000  H
  H5       1.0000 0.56564  0.50480  0.54643  Biso   1.000  H
  H6       1.0000 0.43436  0.50480  0.95357  Biso   1.000  H
  H7       1.0000 0.06564  0.00480  0.54643  Biso   1.000  H
  H8       1.0000 0.93436  0.00480  0.95357  Biso   1.000  H
  C17      1.0000 0.36820  0.57860  0.46740  Biso   1.000  C
  C18      1.0000 0.63180  0.57860  0.03260  Biso   1.000  C
  C19      1.0000 0.86820  0.07860  0.46740  Biso   1.000  C
  C20      1.0000 0.13180  0.07860  0.03260  Biso   1.000  C
  C21      1.0000 0.63180  0.42140  0.53260  Biso   1.000  C
  C22      1.0000 0.36820  0.42140  0.96740  Biso   1.000  C
  C23      1.0000 0.13180  0.92140  0.53260  Biso   1.000  C
  C24      1.0000 0.86820  0.92140  0.96740  Biso   1.000  C
  H9       1.0000 0.37082  0.68887  0.45394  Biso   1.000  H
  H10      1.0000 0.62918  0.68887  0.04606  Biso   1.000  H
  H11      1.0000 0.87082  0.18887  0.45394  Biso   1.000  H
  H12      1.0000 0.12918  0.18887  0.04606  Biso   1.000  H
  H13      1.0000 0.62918  0.31113  0.54606  Biso   1.000  H
  H14      1.0000 0.37082  0.31113  0.95394  Biso   1.000  H
  H15      1.0000 0.12918  0.81113  0.54606  Biso   1.000  H
  H16      1.0000 0.87082  0.81113  0.95394  Biso   1.000  H
  C25      1.0000 0.57490  0.77860  0.14840  Biso   1.000  C
  C26      1.0000 0.42510  0.77860  0.35160  Biso   1.000  C
  C27      1.0000 0.07490  0.27860  0.14840  Biso   1.000  C
  C28      1.0000 0.92510  0.27860  0.35160  Biso   1.000  C
  C29      1.0000 0.42510  0.22140  0.85160  Biso   1.000  C
  C30      1.0000 0.57490  0.22140  0.64840  Biso   1.000  C
  C31      1.0000 0.92510  0.72140  0.85160  Biso   1.000  C
  C32      1.0000 0.07490  0.72140  0.64840  Biso   1.000  C
  C33      1.0000 0.57730  0.28690  0.40350  Biso   1.000  C
  C34      1.0000 0.42270  0.28690  0.09650  Biso   1.000  C
  C35      1.0000 0.07730  0.78690  0.40350  Biso   1.000  C
  C36      1.0000 0.92270  0.78690  0.09650  Biso   1.000  C
  C37      1.0000 0.42270  0.71310  0.59650  Biso   1.000  C
  C38      1.0000 0.57730  0.71310  0.90350  Biso   1.000  C
  C39      1.0000 0.92270  0.21310  0.59650  Biso   1.000  C
  C40      1.0000 0.07730  0.21310  0.90350  Biso   1.000  C
  C41      1.0000 0.54830  0.18710  0.43940  Biso   1.000  C
  C42      1.0000 0.45170  0.18710  0.06060  Biso   1.000  C
  C43      1.0000 0.04830  0.68710  0.43940  Biso   1.000  C
  C44      1.0000 0.95170  0.68710  0.06060  Biso   1.000  C
  C45      1.0000 0.45170  0.81290  0.56060  Biso   1.000  C
  C46      1.0000 0.54830  0.81290  0.93940  Biso   1.000  C
  C47      1.0000 0.95170  0.31290  0.56060  Biso   1.000  C
  C48      1.0000 0.04830  0.31290  0.93940  Biso   1.000  C
  C49      1.0000 0.32650  0.52690  0.48790  Biso   1.000  C
  C50      1.0000 0.67350  0.52690  0.01210  Biso   1.000  C
  C51      1.0000 0.82650  0.02690  0.48790  Biso   1.000  C
  C52      1.0000 0.17350  0.02690  0.01210  Biso   1.000  C
  C53      1.0000 0.67350  0.47310  0.51210  Biso   1.000  C
  C54      1.0000 0.32650  0.47310  0.98790  Biso   1.000  C
  C55      1.0000 0.17350  0.97310  0.51210  Biso   1.000  C
  C56      1.0000 0.82650  0.97310  0.98790  Biso   1.000  C
  C57      1.0000 0.56340  0.45680  0.39110  Biso   1.000  C
  C58      1.0000 0.43660  0.45680  0.10890  Biso   1.000  C
  C59      1.0000 0.06340  0.95680  0.39110  Biso   1.000  C
  C60      1.0000 0.93660  0.95680  0.10890  Biso   1.000  C
  C61      1.0000 0.43660  0.54320  0.60890  Biso   1.000  C
  C62      1.0000 0.56340  0.54320  0.89110  Biso   1.000  C
  C63      1.0000 0.93660  0.04320  0.60890  Biso   1.000  C
  C64      1.0000 0.06340  0.04320  0.89110  Biso   1.000  C
  H17      1.0000 0.53738  0.50564  0.40616  Biso   1.000  H
  H18      1.0000 0.46262  0.50564  0.09384  Biso   1.000  H
  H19      1.0000 0.03738  0.00564  0.40616  Biso   1.000  H
  H20      1.0000 0.96262  0.00564  0.09384  Biso   1.000  H
  H21      1.0000 0.46262  0.49436  0.59384  Biso   1.000  H
  H22      1.0000 0.53738  0.49436  0.90616  Biso   1.000  H
  H23      1.0000 0.96262  0.99436  0.59384  Biso   1.000  H
  H24      1.0000 0.03738  0.99436  0.90616  Biso   1.000  H
  C65      1.0000 0.28500  0.64970  0.49390  Biso   1.000  C
  C66      1.0000 0.71500  0.64970  0.00610  Biso   1.000  C
  C67      1.0000 0.78500  0.14970  0.49390  Biso   1.000  C
  C68      1.0000 0.21500  0.14970  0.00610  Biso   1.000  C
  C69      1.0000 0.71500  0.35030  0.50610  Biso   1.000  C
  C70      1.0000 0.28500  0.35030  0.99390  Biso   1.000  C
  C71      1.0000 0.21500  0.85030  0.50610  Biso   1.000  C
  C72      1.0000 0.78500  0.85030  0.99390  Biso   1.000  C
  C73      1.0000 0.24700  0.58950  0.51920  Biso   1.000  C
  C74      1.0000 0.75300  0.58950  0.98080  Biso   1.000  C
  C75      1.0000 0.74700  0.08950  0.51920  Biso   1.000  C
  C76      1.0000 0.25300  0.08950  0.98080  Biso   1.000  C
  C77      1.0000 0.75300  0.41050  0.48080  Biso   1.000  C
  C78      1.0000 0.24700  0.41050  0.01920  Biso   1.000  C
  C79      1.0000 0.25300  0.91050  0.48080  Biso   1.000  C
  C80      1.0000 0.74700  0.91050  0.01920  Biso   1.000  C
  H25      1.0000 0.24710  0.47651  0.53096  Biso   1.000  H
  H26      1.0000 0.75290  0.47651  0.96904  Biso   1.000  H
  H27      1.0000 0.74710  0.97651  0.53096  Biso   1.000  H
  H28      1.0000 0.25290  0.97651  0.96904  Biso   1.000  H
  H29      1.0000 0.75290  0.52349  0.46904  Biso   1.000  H
  H30      1.0000 0.24710  0.52349  0.03096  Biso   1.000  H
  H31      1.0000 0.25290  0.02349  0.46904  Biso   1.000  H
  H32      1.0000 0.74710  0.02349  0.03096  Biso   1.000  H
  C81      1.0000 0.62730  0.47390  0.33570  Biso   1.000  C
  C82      1.0000 0.37270  0.47390  0.16430  Biso   1.000  C
  C83      1.0000 0.12730  0.97390  0.33570  Biso   1.000  C
  C84      1.0000 0.87270  0.97390  0.16430  Biso   1.000  C
  C85      1.0000 0.37270  0.52610  0.66430  Biso   1.000  C
  C86      1.0000 0.62730  0.52610  0.83570  Biso   1.000  C
  C87      1.0000 0.87270  0.02610  0.66430  Biso   1.000  C
  C88      1.0000 0.12730  0.02610  0.83570  Biso   1.000  C
  C89      1.0000 0.28830  0.81120  0.47360  Biso   1.000  C
  C90      1.0000 0.71170  0.81120  0.02640  Biso   1.000  C
  C91      1.0000 0.78830  0.31120  0.47360  Biso   1.000  C
  C92      1.0000 0.21170  0.31120  0.02640  Biso   1.000  C
  C93      1.0000 0.71170  0.18880  0.52640  Biso   1.000  C
  C94      1.0000 0.28830  0.18880  0.97360  Biso   1.000  C
  C95      1.0000 0.21170  0.68880  0.52640  Biso   1.000  C
  C96      1.0000 0.78830  0.68880  0.97360  Biso   1.000  C
  H33      1.0000 0.31444  0.84575  0.45591  Biso   1.000  H
  H34      1.0000 0.68556  0.84575  0.04409  Biso   1.000  H
  H35      1.0000 0.81444  0.34575  0.45591  Biso   1.000  H
  H36      1.0000 0.18556  0.34575  0.04409  Biso   1.000  H
  H37      1.0000 0.68556  0.15425  0.54409  Biso   1.000  H
  H38      1.0000 0.31444  0.15425  0.95591  Biso   1.000  H
  H39      1.0000 0.18556  0.65425  0.54409  Biso   1.000  H
  H40      1.0000 0.81444  0.65425  0.95591  Biso   1.000  H
  C97      1.0000 0.61810  0.22060  0.38390  Biso   1.000  C
  C98      1.0000 0.38190  0.22060  0.11610  Biso   1.000  C
  C99      1.0000 0.11810  0.72060  0.38390  Biso   1.000  C
  C100     1.0000 0.88190  0.72060  0.11610  Biso   1.000  C
  C101     1.0000 0.38190  0.77940  0.61610  Biso   1.000  C
  C102     1.0000 0.61810  0.77940  0.88390  Biso   1.000  C
  C103     1.0000 0.88190  0.27940  0.61610  Biso   1.000  C
  C104     1.0000 0.11810  0.27940  0.88390  Biso   1.000  C
  H41      1.0000 0.62876  0.11021  0.39409  Biso   1.000  H
  H42      1.0000 0.37124  0.11021  0.10591  Biso   1.000  H
  H43      1.0000 0.12876  0.61021  0.39409  Biso   1.000  H
  H44      1.0000 0.87124  0.61021  0.10591  Biso   1.000  H
  H45      1.0000 0.37124  0.88979  0.60591  Biso   1.000  H
  H46      1.0000 0.62876  0.88979  0.89409  Biso   1.000  H
  H47      1.0000 0.87124  0.38979  0.60591  Biso   1.000  H
  H48      1.0000 0.12876  0.38979  0.89409  Biso   1.000  H
  C105     1.0000 0.36260  0.25100  0.50390  Biso   1.000  C
  C106     1.0000 0.63740  0.25100  0.99610  Biso   1.000  C
  C107     1.0000 0.86260  0.75100  0.50390  Biso   1.000  C
  C108     1.0000 0.13740  0.75100  0.99610  Biso   1.000  C
  C109     1.0000 0.63740  0.74900  0.49610  Biso   1.000  C
  C110     1.0000 0.36260  0.74900  0.00390  Biso   1.000  C
  C111     1.0000 0.13740  0.24900  0.49610  Biso   1.000  C
  C112     1.0000 0.86260  0.24900  0.00390  Biso   1.000  C
  H49      1.0000 0.35996  0.13909  0.51582  Biso   1.000  H
  H50      1.0000 0.64004  0.13909  0.98418  Biso   1.000  H
  H51      1.0000 0.85996  0.63909  0.51582  Biso   1.000  H
  H52      1.0000 0.14004  0.63909  0.98418  Biso   1.000  H
  H53      1.0000 0.64004  0.86091  0.48418  Biso   1.000  H
  H54      1.0000 0.35996  0.86091  0.01582  Biso   1.000  H
  H55      1.0000 0.14004  0.36091  0.48418  Biso   1.000  H
  H56      1.0000 0.85996  0.36091  0.01582  Biso   1.000  H
  C113     1.0000 0.58840  0.55160  0.35660  Biso   1.000  C
  C114     1.0000 0.41160  0.55160  0.14340  Biso   1.000  C
  C115     1.0000 0.08840  0.05160  0.35660  Biso   1.000  C
  C116     1.0000 0.91160  0.05160  0.14340  Biso   1.000  C
  C117     1.0000 0.41160  0.44840  0.64340  Biso   1.000  C
  C118     1.0000 0.58840  0.44840  0.85660  Biso   1.000  C
  C119     1.0000 0.91160  0.94840  0.64340  Biso   1.000  C
  C120     1.0000 0.08840  0.94840  0.85660  Biso   1.000  C
  H57      1.0000 0.57946  0.66420  0.34759  Biso   1.000  H
  H58      1.0000 0.42054  0.66420  0.15241  Biso   1.000  H
  H59      1.0000 0.07946  0.16420  0.34759  Biso   1.000  H
  H60      1.0000 0.92054  0.16420  0.15241  Biso   1.000  H
  H61      1.0000 0.42054  0.33580  0.65241  Biso   1.000  H
  H62      1.0000 0.57946  0.33580  0.84759  Biso   1.000  H
  H63      1.0000 0.92054  0.83580  0.65241  Biso   1.000  H
  H64      1.0000 0.07946  0.83580  0.84759  Biso   1.000  H
  C121     1.0000 0.64330  0.31310  0.35000  Biso   1.000  C
  C122     1.0000 0.35670  0.31310  0.15000  Biso   1.000  C
  C123     1.0000 0.14330  0.81310  0.35000  Biso   1.000  C
  C124     1.0000 0.85670  0.81310  0.15000  Biso   1.000  C
  C125     1.0000 0.35670  0.68690  0.65000  Biso   1.000  C
  C126     1.0000 0.64330  0.68690  0.85000  Biso   1.000  C
  C127     1.0000 0.85670  0.18690  0.65000  Biso   1.000  C
  C128     1.0000 0.14330  0.18690  0.85000  Biso   1.000  C
  H65      1.0000 0.67070  0.26692  0.33694  Biso   1.000  H
  H66      1.0000 0.32930  0.26692  0.16306  Biso   1.000  H
  H67      1.0000 0.17070  0.76692  0.33694  Biso   1.000  H
  H68      1.0000 0.82930  0.76692  0.16306  Biso   1.000  H
  H69      1.0000 0.32930  0.73308  0.66306  Biso   1.000  H
  H70      1.0000 0.67070  0.73308  0.83694  Biso   1.000  H
  H71      1.0000 0.82930  0.23308  0.66306  Biso   1.000  H
  H72      1.0000 0.17070  0.23308  0.83694  Biso   1.000  H
  C129     1.0000 0.32320  0.36180  0.50470  Biso   1.000  C
  C130     1.0000 0.67680  0.36180  0.99530  Biso   1.000  C
  C131     1.0000 0.82320  0.86180  0.50470  Biso   1.000  C
  C132     1.0000 0.17680  0.86180  0.99530  Biso   1.000  C
  C133     1.0000 0.67680  0.63820  0.49530  Biso   1.000  C
  C134     1.0000 0.32320  0.63820  0.00470  Biso   1.000  C
  C135     1.0000 0.17680  0.13820  0.49530  Biso   1.000  C
  C136     1.0000 0.82320  0.13820  0.00470  Biso   1.000  C
  H73      1.0000 0.29423  0.32402  0.51667  Biso   1.000  H
  H74      1.0000 0.70577  0.32402  0.98333  Biso   1.000  H
  H75      1.0000 0.79423  0.82402  0.51667  Biso   1.000  H
  H76      1.0000 0.20577  0.82402  0.98333  Biso   1.000  H
  H77      1.0000 0.70577  0.67598  0.48333  Biso   1.000  H
  H78      1.0000 0.29423  0.67598  0.01667  Biso   1.000  H
  H79      1.0000 0.20577  0.17598  0.48333  Biso   1.000  H
  H80      1.0000 0.79423  0.17598  0.01667  Biso   1.000  H
  C137     1.0000 0.55930  0.63480  0.17060  Biso   1.000  C
  C138     1.0000 0.44070  0.63480  0.32940  Biso   1.000  C
  C139     1.0000 0.05930  0.13480  0.17060  Biso   1.000  C
  C140     1.0000 0.94070  0.13480  0.32940  Biso   1.000  C
  C141     1.0000 0.44070  0.36520  0.82940  Biso   1.000  C
  C142     1.0000 0.55930  0.36520  0.67060  Biso   1.000  C
  C143     1.0000 0.94070  0.86520  0.82940  Biso   1.000  C
  C144     1.0000 0.05930  0.86520  0.67060  Biso   1.000  C
  H81      1.0000 0.53056  0.58039  0.15116  Biso   1.000  H
  H82      1.0000 0.46944  0.58039  0.34884  Biso   1.000  H
  H83      1.0000 0.03056  0.08039  0.15116  Biso   1.000  H
  H84      1.0000 0.96944  0.08039  0.34884  Biso   1.000  H
  H85      1.0000 0.46944  0.41961  0.84884  Biso   1.000  H
  H86      1.0000 0.53056  0.41961  0.65116  Biso   1.000  H
  H87      1.0000 0.96944  0.91961  0.84884  Biso   1.000  H
  H88      1.0000 0.03056  0.91961  0.65116  Biso   1.000  H
  C145     1.0000 0.61620  0.85940  0.17970  Biso   1.000  C
  C146     1.0000 0.38380  0.85940  0.32030  Biso   1.000  C
  C147     1.0000 0.11620  0.35940  0.17970  Biso   1.000  C
  C148     1.0000 0.88380  0.35940  0.32030  Biso   1.000  C
  C149     1.0000 0.38380  0.14060  0.82030  Biso   1.000  C
  C150     1.0000 0.61620  0.14060  0.67970  Biso   1.000  C
  C151     1.0000 0.88380  0.64060  0.82030  Biso   1.000  C
  C152     1.0000 0.11620  0.64060  0.67970  Biso   1.000  C
  H89      1.0000 0.62736  0.96185  0.16696  Biso   1.000  H
  H90      1.0000 0.37264  0.96185  0.33304  Biso   1.000  H
  H91      1.0000 0.12736  0.46185  0.16696  Biso   1.000  H
  H92      1.0000 0.87264  0.46185  0.33304  Biso   1.000  H
  H93      1.0000 0.37264  0.03815  0.83304  Biso   1.000  H
  H94      1.0000 0.62736  0.03815  0.66696  Biso   1.000  H
  H95      1.0000 0.87264  0.53815  0.83304  Biso   1.000  H
  H96      1.0000 0.12736  0.53815  0.66696  Biso   1.000  H
  C153     1.0000 0.62500  0.64180  0.25130  Biso   1.000  C
  C154     1.0000 0.37500  0.64180  0.24870  Biso   1.000  C
  C155     1.0000 0.12500  0.14180  0.25130  Biso   1.000  C
  C156     1.0000 0.87500  0.14180  0.24870  Biso   1.000  C
  C157     1.0000 0.37500  0.35820  0.74870  Biso   1.000  C
  C158     1.0000 0.62500  0.35820  0.75130  Biso   1.000  C
  C159     1.0000 0.87500  0.85820  0.74870  Biso   1.000  C
  C160     1.0000 0.12500  0.85820  0.75130  Biso   1.000  C
  C161     1.0000 0.58410  0.56430  0.22110  Biso   1.000  C
  C162     1.0000 0.41590  0.56430  0.27890  Biso   1.000  C
  C163     1.0000 0.08410  0.06430  0.22110  Biso   1.000  C
  C164     1.0000 0.91590  0.06430  0.27890  Biso   1.000  C
  C165     1.0000 0.41590  0.43570  0.77890  Biso   1.000  C
  C166     1.0000 0.58410  0.43570  0.72110  Biso   1.000  C
  C167     1.0000 0.91590  0.93570  0.77890  Biso   1.000  C
  C168     1.0000 0.08410  0.93570  0.72110  Biso   1.000  C
  H97      1.0000 0.57245  0.46301  0.23421  Biso   1.000  H
  H98      1.0000 0.42755  0.46301  0.26579  Biso   1.000  H
  H99      1.0000 0.07245  0.96301  0.23421  Biso   1.000  H
  H100     1.0000 0.92755  0.96301  0.26579  Biso   1.000  H
  H101     1.0000 0.42755  0.53699  0.76579  Biso   1.000  H
  H102     1.0000 0.57245  0.53699  0.73421  Biso   1.000  H
  H103     1.0000 0.92755  0.03699  0.76579  Biso   1.000  H
  H104     1.0000 0.07245  0.03699  0.73421  Biso   1.000  H
  C169     1.0000 0.64190  0.78700  0.23130  Biso   1.000  C
  C170     1.0000 0.35810  0.78700  0.26870  Biso   1.000  C
  C171     1.0000 0.14190  0.28700  0.23130  Biso   1.000  C
  C172     1.0000 0.85810  0.28700  0.26870  Biso   1.000  C
  C173     1.0000 0.35810  0.21300  0.76870  Biso   1.000  C
  C174     1.0000 0.64190  0.21300  0.73130  Biso   1.000  C
  C175     1.0000 0.85810  0.71300  0.76870  Biso   1.000  C
  C176     1.0000 0.14190  0.71300  0.73130  Biso   1.000  C
  H105     1.0000 0.67052  0.84069  0.25137  Biso   1.000  H
  H106     1.0000 0.32948  0.84069  0.24863  Biso   1.000  H
  H107     1.0000 0.17052  0.34069  0.25137  Biso   1.000  H
  H108     1.0000 0.82948  0.34069  0.24863  Biso   1.000  H
  H109     1.0000 0.32948  0.15931  0.74863  Biso   1.000  H
  H110     1.0000 0.67052  0.15931  0.75137  Biso   1.000  H
  H111     1.0000 0.82948  0.65931  0.74863  Biso   1.000  H
  H112     1.0000 0.17052  0.65931  0.75137  Biso   1.000  H
