data_image0
_cell_length_a       37.171
_cell_length_b       14.579
_cell_length_c       26.594
_cell_angle_alpha    90
_cell_angle_beta     110.664
_cell_angle_gamma    90

_symmetry_space_group_name_H-M    "P 1"
_symmetry_int_tables_number       1

loop_
  _symmetry_equiv_pos_as_xyz
  'x, y, z'

loop_
  _atom_site_label
  _atom_site_occupancy
  _atom_site_fract_x
  _atom_site_fract_y
  _atom_site_fract_z
  _atom_site_thermal_displace_type
  _atom_site_B_iso_or_equiv
  _atom_site_type_symbol
  Mo1      1.0000 0.29635  0.54092  0.04949  Biso   1.000  Mo
  Mo2      1.0000 0.70365  0.54092  0.45051  Biso   1.000  Mo
  Mo3      1.0000 0.79635  0.04092  0.04949  Biso   1.000  Mo
  Mo4      1.0000 0.20365  0.04092  0.45051  Biso   1.000  Mo
  Mo5      1.0000 0.70365  0.45908  0.95051  Biso   1.000  Mo
  Mo6      1.0000 0.29635  0.45908  0.54949  Biso   1.000  Mo
  Mo7      1.0000 0.20365  0.95908  0.95051  Biso   1.000  Mo
  Mo8      1.0000 0.79635  0.95908  0.54949  Biso   1.000  Mo
  Mo9      1.0000 0.35406  0.20732  0.19550  Biso   1.000  Mo
  Mo10     1.0000 0.64594  0.20732  0.30450  Biso   1.000  Mo
  Mo11     1.0000 0.85406  0.70732  0.19550  Biso   1.000  Mo
  Mo12     1.0000 0.14594  0.70732  0.30450  Biso   1.000  Mo
  Mo13     1.0000 0.64594  0.79268  0.80450  Biso   1.000  Mo
  Mo14     1.0000 0.35406  0.79268  0.69550  Biso   1.000  Mo
  Mo15     1.0000 0.14594  0.29268  0.80450  Biso   1.000  Mo
  Mo16     1.0000 0.85406  0.29268  0.69550  Biso   1.000  Mo
  Mo17     1.0000 0.31959  0.43720  0.16780  Biso   1.000  Mo
  Mo18     1.0000 0.68041  0.43720  0.33220  Biso   1.000  Mo
  Mo19     1.0000 0.81959  0.93720  0.16780  Biso   1.000  Mo
  Mo20     1.0000 0.18041  0.93720  0.33220  Biso   1.000  Mo
  Mo21     1.0000 0.68041  0.56280  0.83220  Biso   1.000  Mo
  Mo22     1.0000 0.31959  0.56280  0.66780  Biso   1.000  Mo
  Mo23     1.0000 0.18041  0.06280  0.83220  Biso   1.000  Mo
  Mo24     1.0000 0.81959  0.06280  0.66780  Biso   1.000  Mo
  Mo25     1.0000 0.31998  0.27889  0.84787  Biso   1.000  Mo
  Mo26     1.0000 0.68002  0.27889  0.65213  Biso   1.000  Mo
  Mo27     1.0000 0.81998  0.77889  0.84787  Biso   1.000  Mo
  Mo28     1.0000 0.18002  0.77889  0.65213  Biso   1.000  Mo
  Mo29     1.0000 0.68002  0.72111  0.15213  Biso   1.000  Mo
  Mo30     1.0000 0.31998  0.72111  0.34787  Biso   1.000  Mo
  Mo31     1.0000 0.18002  0.22111  0.15213  Biso   1.000  Mo
  Mo32     1.0000 0.81998  0.22111  0.34787  Biso   1.000  Mo
  Mo33     1.0000 0.37012  0.59385  0.01152  Biso   1.000  Mo
  Mo34     1.0000 0.62988  0.59385  0.48848  Biso   1.000  Mo
  Mo35     1.0000 0.87012  0.09385  0.01152  Biso   1.000  Mo
  Mo36     1.0000 0.12988  0.09385  0.48848  Biso   1.000  Mo
  Mo37     1.0000 0.62988  0.40615  0.98848  Biso   1.000  Mo
  Mo38     1.0000 0.37012  0.40615  0.51152  Biso   1.000  Mo
  Mo39     1.0000 0.12988  0.90615  0.98848  Biso   1.000  Mo
  Mo40     1.0000 0.87012  0.90615  0.51152  Biso   1.000  Mo
  Mo41     1.0000 0.36523  0.07928  0.09983  Biso   1.000  Mo
  Mo42     1.0000 0.63477  0.07928  0.40017  Biso   1.000  Mo
  Mo43     1.0000 0.86523  0.57928  0.09983  Biso   1.000  Mo
  Mo44     1.0000 0.13477  0.57928  0.40017  Biso   1.000  Mo
  Mo45     1.0000 0.63477  0.92072  0.90017  Biso   1.000  Mo
  Mo46     1.0000 0.36523  0.92072  0.59983  Biso   1.000  Mo
  Mo47     1.0000 0.13477  0.42072  0.90017  Biso   1.000  Mo
  Mo48     1.0000 0.86523  0.42072  0.59983  Biso   1.000  Mo
  Mo49     1.0000 0.43700  0.13382  0.05742  Biso   1.000  Mo
  Mo50     1.0000 0.56300  0.13382  0.44258  Biso   1.000  Mo
  Mo51     1.0000 0.93700  0.63382  0.05742  Biso   1.000  Mo
  Mo52     1.0000 0.06300  0.63382  0.44258  Biso   1.000  Mo
  Mo53     1.0000 0.56300  0.86618  0.94258  Biso   1.000  Mo
  Mo54     1.0000 0.43700  0.86618  0.55742  Biso   1.000  Mo
  Mo55     1.0000 0.06300  0.36618  0.94258  Biso   1.000  Mo
  Mo56     1.0000 0.93700  0.36618  0.55742  Biso   1.000  Mo
  Mo57     1.0000 0.38294  0.45161  0.90386  Biso   1.000  Mo
  Mo58     1.0000 0.61706  0.45161  0.59614  Biso   1.000  Mo
  Mo59     1.0000 0.88294  0.95161  0.90386  Biso   1.000  Mo
  Mo60     1.0000 0.11706  0.95161  0.59614  Biso   1.000  Mo
  Mo61     1.0000 0.61706  0.54839  0.09614  Biso   1.000  Mo
  Mo62     1.0000 0.38294  0.54839  0.40386  Biso   1.000  Mo
  Mo63     1.0000 0.11706  0.04839  0.09614  Biso   1.000  Mo
  Mo64     1.0000 0.88294  0.04839  0.40386  Biso   1.000  Mo
  Mo65     1.0000 0.41057  0.23502  0.92210  Biso   1.000  Mo
  Mo66     1.0000 0.58943  0.23502  0.57790  Biso   1.000  Mo
  Mo67     1.0000 0.91057  0.73502  0.92210  Biso   1.000  Mo
  Mo68     1.0000 0.08943  0.73502  0.57790  Biso   1.000  Mo
  Mo69     1.0000 0.58943  0.76498  0.07790  Biso   1.000  Mo
  Mo70     1.0000 0.41057  0.76498  0.42210  Biso   1.000  Mo
  Mo71     1.0000 0.08943  0.26498  0.07790  Biso   1.000  Mo
  Mo72     1.0000 0.91057  0.26498  0.42210  Biso   1.000  Mo
  Mo73     1.0000 0.42833  0.26431  0.15398  Biso   1.000  Mo
  Mo74     1.0000 0.57167  0.26431  0.34602  Biso   1.000  Mo
  Mo75     1.0000 0.92833  0.76431  0.15398  Biso   1.000  Mo
  Mo76     1.0000 0.07167  0.76431  0.34602  Biso   1.000  Mo
  Mo77     1.0000 0.57167  0.73569  0.84602  Biso   1.000  Mo
  Mo78     1.0000 0.42833  0.73569  0.65398  Biso   1.000  Mo
  Mo79     1.0000 0.07167  0.23569  0.84602  Biso   1.000  Mo
  Mo80     1.0000 0.92833  0.23569  0.65398  Biso   1.000  Mo
  V1       1.0000 0.42321  0.38170  0.03892  Biso   1.000  V
  V2       1.0000 0.57679  0.38170  0.46108  Biso   1.000  V
  V3       1.0000 0.92321  0.88170  0.03892  Biso   1.000  V
  V4       1.0000 0.07679  0.88170  0.46108  Biso   1.000  V
  V5       1.0000 0.57679  0.61830  0.96108  Biso   1.000  V
  V6       1.0000 0.42321  0.61830  0.53892  Biso   1.000  V
  V7       1.0000 0.07679  0.11830  0.96108  Biso   1.000  V
  V8       1.0000 0.92321  0.11830  0.53892  Biso   1.000  V
  V9       1.0000 0.29428  0.44220  0.92992  Biso   1.000  V
  V10      1.0000 0.70572  0.44220  0.57008  Biso   1.000  V
  V11      1.0000 0.79428  0.94220  0.92992  Biso   1.000  V
  V12      1.0000 0.20572  0.94220  0.57008  Biso   1.000  V
  V13      1.0000 0.70572  0.55780  0.07008  Biso   1.000  V
  V14      1.0000 0.29428  0.55780  0.42992  Biso   1.000  V
  V15      1.0000 0.20572  0.05780  0.07008  Biso   1.000  V
  V16      1.0000 0.79428  0.05780  0.42992  Biso   1.000  V
  V17      1.0000 0.16124  0.36530  0.03778  Biso   1.000  V
  V18      1.0000 0.83876  0.36530  0.46222  Biso   1.000  V
  V19      1.0000 0.66124  0.86530  0.03778  Biso   1.000  V
  V20      1.0000 0.33876  0.86530  0.46222  Biso   1.000  V
  V21      1.0000 0.83876  0.63470  0.96222  Biso   1.000  V
  V22      1.0000 0.16124  0.63470  0.53778  Biso   1.000  V
  V23      1.0000 0.33876  0.13470  0.96222  Biso   1.000  V
  V24      1.0000 0.66124  0.13470  0.53778  Biso   1.000  V
  V25      1.0000 0.39278  0.49850  0.12938  Biso   1.000  V
  V26      1.0000 0.60722  0.49850  0.37062  Biso   1.000  V
  V27      1.0000 0.89278  0.99850  0.12938  Biso   1.000  V
  V28      1.0000 0.10722  0.99850  0.37062  Biso   1.000  V
  V29      1.0000 0.60722  0.50150  0.87062  Biso   1.000  V
  V30      1.0000 0.39278  0.50150  0.62938  Biso   1.000  V
  V31      1.0000 0.10722  0.00150  0.87062  Biso   1.000  V
  V32      1.0000 0.89278  0.00150  0.62938  Biso   1.000  V
  Cu1      1.0000 0.23345  0.35378  0.98602  Biso   1.000  Cu
  Cu2      1.0000 0.76655  0.35378  0.51398  Biso   1.000  Cu
  Cu3      1.0000 0.73345  0.85378  0.98602  Biso   1.000  Cu
  Cu4      1.0000 0.26655  0.85378  0.51398  Biso   1.000  Cu
  Cu5      1.0000 0.76655  0.64622  0.01398  Biso   1.000  Cu
  Cu6      1.0000 0.23345  0.64622  0.48602  Biso   1.000  Cu
  Cu7      1.0000 0.26655  0.14622  0.01398  Biso   1.000  Cu
  Cu8      1.0000 0.73345  0.14622  0.48602  Biso   1.000  Cu
  Cu9      1.0000 0.24422  0.24206  0.89866  Biso   1.000  Cu
  Cu10     1.0000 0.75578  0.24206  0.60134  Biso   1.000  Cu
  Cu11     1.0000 0.74422  0.74206  0.89866  Biso   1.000  Cu
  Cu12     1.0000 0.25578  0.74206  0.60134  Biso   1.000  Cu
  Cu13     1.0000 0.75578  0.75794  0.10134  Biso   1.000  Cu
  Cu14     1.0000 0.24422  0.75794  0.39866  Biso   1.000  Cu
  Cu15     1.0000 0.25578  0.25794  0.10134  Biso   1.000  Cu
  Cu16     1.0000 0.74422  0.25794  0.39866  Biso   1.000  Cu
  Cu17     1.0000 0.29824  0.50130  0.29990  Biso   1.000  Cu
  Cu18     1.0000 0.70176  0.50130  0.20010  Biso   1.000  Cu
  Cu19     1.0000 0.79824  0.00130  0.29990  Biso   1.000  Cu
  Cu20     1.0000 0.20176  0.00130  0.20010  Biso   1.000  Cu
  Cu21     1.0000 0.70176  0.49870  0.70010  Biso   1.000  Cu
  Cu22     1.0000 0.29824  0.49870  0.79990  Biso   1.000  Cu
  Cu23     1.0000 0.20176  0.99870  0.70010  Biso   1.000  Cu
  Cu24     1.0000 0.79824  0.99870  0.79990  Biso   1.000  Cu
  As1      1.0000 0.33141  0.30651  0.05924  Biso   1.000  As
  As2      1.0000 0.66859  0.30651  0.44076  Biso   1.000  As
  As3      1.0000 0.83141  0.80651  0.05924  Biso   1.000  As
  As4      1.0000 0.16859  0.80651  0.44076  Biso   1.000  As
  As5      1.0000 0.66859  0.69349  0.94076  Biso   1.000  As
  As6      1.0000 0.33141  0.69349  0.55924  Biso   1.000  As
  As7      1.0000 0.16859  0.19349  0.94076  Biso   1.000  As
  As8      1.0000 0.83141  0.19349  0.55924  Biso   1.000  As
  O1       1.0000 0.33260  0.41350  0.09290  Biso   1.000  O
  O2       1.0000 0.66740  0.41350  0.40710  Biso   1.000  O
  O3       1.0000 0.83260  0.91350  0.09290  Biso   1.000  O
  O4       1.0000 0.16740  0.91350  0.40710  Biso   1.000  O
  O5       1.0000 0.66740  0.58650  0.90710  Biso   1.000  O
  O6       1.0000 0.33260  0.58650  0.59290  Biso   1.000  O
  O7       1.0000 0.16740  0.08650  0.90710  Biso   1.000  O
  O8       1.0000 0.83260  0.08650  0.59290  Biso   1.000  O
  O9       1.0000 0.25750  0.47190  0.02050  Biso   1.000  O
  O10      1.0000 0.74250  0.47190  0.47950  Biso   1.000  O
  O11      1.0000 0.75750  0.97190  0.02050  Biso   1.000  O
  O12      1.0000 0.24250  0.97190  0.47950  Biso   1.000  O
  O13      1.0000 0.74250  0.52810  0.97950  Biso   1.000  O
  O14      1.0000 0.25750  0.52810  0.52050  Biso   1.000  O
  O15      1.0000 0.24250  0.02810  0.97950  Biso   1.000  O
  O16      1.0000 0.75750  0.02810  0.52050  Biso   1.000  O
  O17      1.0000 0.35920  0.23530  0.11590  Biso   1.000  O
  O18      1.0000 0.64080  0.23530  0.38410  Biso   1.000  O
  O19      1.0000 0.85920  0.73530  0.11590  Biso   1.000  O
  O20      1.0000 0.14080  0.73530  0.38410  Biso   1.000  O
  O21      1.0000 0.64080  0.76470  0.88410  Biso   1.000  O
  O22      1.0000 0.35920  0.76470  0.61590  Biso   1.000  O
  O23      1.0000 0.14080  0.26470  0.88410  Biso   1.000  O
  O24      1.0000 0.85920  0.26470  0.61590  Biso   1.000  O
  O25      1.0000 0.36830  0.08760  0.17130  Biso   1.000  O
  O26      1.0000 0.63170  0.08760  0.32870  Biso   1.000  O
  O27      1.0000 0.86830  0.58760  0.17130  Biso   1.000  O
  O28      1.0000 0.13170  0.58760  0.32870  Biso   1.000  O
  O29      1.0000 0.63170  0.91240  0.82870  Biso   1.000  O
  O30      1.0000 0.36830  0.91240  0.67130  Biso   1.000  O
  O31      1.0000 0.13170  0.41240  0.82870  Biso   1.000  O
  O32      1.0000 0.86830  0.41240  0.67130  Biso   1.000  O
  O33      1.0000 0.26330  0.35890  0.93710  Biso   1.000  O
  O34      1.0000 0.73670  0.35890  0.56290  Biso   1.000  O
  O35      1.0000 0.76330  0.85890  0.93710  Biso   1.000  O
  O36      1.0000 0.23670  0.85890  0.56290  Biso   1.000  O
  O37      1.0000 0.73670  0.64110  0.06290  Biso   1.000  O
  O38      1.0000 0.26330  0.64110  0.43710  Biso   1.000  O
  O39      1.0000 0.23670  0.14110  0.06290  Biso   1.000  O
  O40      1.0000 0.76330  0.14110  0.43710  Biso   1.000  O
  O41      1.0000 0.31640  0.50690  0.99080  Biso   1.000  O
  O42      1.0000 0.68360  0.50690  0.50920  Biso   1.000  O
  O43      1.0000 0.81640  0.00690  0.99080  Biso   1.000  O
  O44      1.0000 0.18360  0.00690  0.50920  Biso   1.000  O
  O45      1.0000 0.68360  0.49310  0.00920  Biso   1.000  O
  O46      1.0000 0.31640  0.49310  0.49080  Biso   1.000  O
  O47      1.0000 0.18360  0.99310  0.00920  Biso   1.000  O
  O48      1.0000 0.81640  0.99310  0.49080  Biso   1.000  O
  O49      1.0000 0.37690  0.53860  0.95420  Biso   1.000  O
  O50      1.0000 0.62310  0.53860  0.54580  Biso   1.000  O
  O51      1.0000 0.87690  0.03860  0.95420  Biso   1.000  O
  O52      1.0000 0.12310  0.03860  0.54580  Biso   1.000  O
  O53      1.0000 0.62310  0.46140  0.04580  Biso   1.000  O
  O54      1.0000 0.37690  0.46140  0.45420  Biso   1.000  O
  O55      1.0000 0.12310  0.96140  0.04580  Biso   1.000  O
  O56      1.0000 0.87690  0.96140  0.45420  Biso   1.000  O
  O57      1.0000 0.42160  0.28010  0.07260  Biso   1.000  O
  O58      1.0000 0.57840  0.28010  0.42740  Biso   1.000  O
  O59      1.0000 0.92160  0.78010  0.07260  Biso   1.000  O
  O60      1.0000 0.07840  0.78010  0.42740  Biso   1.000  O
  O61      1.0000 0.57840  0.71990  0.92740  Biso   1.000  O
  O62      1.0000 0.42160  0.71990  0.57260  Biso   1.000  O
  O63      1.0000 0.07840  0.21990  0.92740  Biso   1.000  O
  O64      1.0000 0.92160  0.21990  0.57260  Biso   1.000  O
  O65      1.0000 0.41740  0.38780  0.15050  Biso   1.000  O
  O66      1.0000 0.58260  0.38780  0.34950  Biso   1.000  O
  O67      1.0000 0.91740  0.88780  0.15050  Biso   1.000  O
  O68      1.0000 0.08260  0.88780  0.34950  Biso   1.000  O
  O69      1.0000 0.58260  0.61220  0.84950  Biso   1.000  O
  O70      1.0000 0.41740  0.61220  0.65050  Biso   1.000  O
  O71      1.0000 0.08260  0.11220  0.84950  Biso   1.000  O
  O72      1.0000 0.91740  0.11220  0.65050  Biso   1.000  O
  O73      1.0000 0.42450  0.13520  0.12460  Biso   1.000  O
  O74      1.0000 0.57550  0.13520  0.37540  Biso   1.000  O
  O75      1.0000 0.92450  0.63520  0.12460  Biso   1.000  O
  O76      1.0000 0.07550  0.63520  0.37540  Biso   1.000  O
  O77      1.0000 0.57550  0.86480  0.87540  Biso   1.000  O
  O78      1.0000 0.42450  0.86480  0.62460  Biso   1.000  O
  O79      1.0000 0.07550  0.36480  0.87540  Biso   1.000  O
  O80      1.0000 0.92450  0.36480  0.62460  Biso   1.000  O
  O81      1.0000 0.43790  0.01940  0.05120  Biso   1.000  O
  O82      1.0000 0.56210  0.01940  0.44880  Biso   1.000  O
  O83      1.0000 0.93790  0.51940  0.05120  Biso   1.000  O
  O84      1.0000 0.06210  0.51940  0.44880  Biso   1.000  O
  O85      1.0000 0.56210  0.98060  0.94880  Biso   1.000  O
  O86      1.0000 0.43790  0.98060  0.55120  Biso   1.000  O
  O87      1.0000 0.06210  0.48060  0.94880  Biso   1.000  O
  O88      1.0000 0.93790  0.48060  0.55120  Biso   1.000  O
  O89      1.0000 0.36610  0.18130  0.26250  Biso   1.000  O
  O90      1.0000 0.63390  0.18130  0.23750  Biso   1.000  O
  O91      1.0000 0.86610  0.68130  0.26250  Biso   1.000  O
  O92      1.0000 0.13390  0.68130  0.23750  Biso   1.000  O
  O93      1.0000 0.63390  0.81870  0.73750  Biso   1.000  O
  O94      1.0000 0.36610  0.81870  0.76250  Biso   1.000  O
  O95      1.0000 0.13390  0.31870  0.73750  Biso   1.000  O
  O96      1.0000 0.86610  0.31870  0.76250  Biso   1.000  O
  O97      1.0000 0.32820  0.39470  0.90900  Biso   1.000  O
  O98      1.0000 0.67180  0.39470  0.59100  Biso   1.000  O
  O99      1.0000 0.82820  0.89470  0.90900  Biso   1.000  O
  O100     1.0000 0.17180  0.89470  0.59100  Biso   1.000  O
  O101     1.0000 0.67180  0.60530  0.09100  Biso   1.000  O
  O102     1.0000 0.32820  0.60530  0.40900  Biso   1.000  O
  O103     1.0000 0.17180  0.10530  0.09100  Biso   1.000  O
  O104     1.0000 0.82820  0.10530  0.40900  Biso   1.000  O
  O105     1.0000 0.37700  0.32130  0.86990  Biso   1.000  O
  O106     1.0000 0.62300  0.32130  0.63010  Biso   1.000  O
  O107     1.0000 0.87700  0.82130  0.86990  Biso   1.000  O
  O108     1.0000 0.12300  0.82130  0.63010  Biso   1.000  O
  O109     1.0000 0.62300  0.67870  0.13010  Biso   1.000  O
  O110     1.0000 0.37700  0.67870  0.36990  Biso   1.000  O
  O111     1.0000 0.12300  0.17870  0.13010  Biso   1.000  O
  O112     1.0000 0.87700  0.17870  0.36990  Biso   1.000  O
  O113     1.0000 0.27810  0.24920  0.85690  Biso   1.000  O
  O114     1.0000 0.72190  0.24920  0.64310  Biso   1.000  O
  O115     1.0000 0.77810  0.74920  0.85690  Biso   1.000  O
  O116     1.0000 0.22190  0.74920  0.64310  Biso   1.000  O
  O117     1.0000 0.72190  0.75080  0.14310  Biso   1.000  O
  O118     1.0000 0.27810  0.75080  0.35690  Biso   1.000  O
  O119     1.0000 0.22190  0.25080  0.14310  Biso   1.000  O
  O120     1.0000 0.77810  0.25080  0.35690  Biso   1.000  O
  O121     1.0000 0.42830  0.47700  0.90530  Biso   1.000  O
  O122     1.0000 0.57170  0.47700  0.59470  Biso   1.000  O
  O123     1.0000 0.92830  0.97700  0.90530  Biso   1.000  O
  O124     1.0000 0.07170  0.97700  0.59470  Biso   1.000  O
  O125     1.0000 0.57170  0.52300  0.09470  Biso   1.000  O
  O126     1.0000 0.42830  0.52300  0.40530  Biso   1.000  O
  O127     1.0000 0.07170  0.02300  0.09470  Biso   1.000  O
  O128     1.0000 0.92830  0.02300  0.40530  Biso   1.000  O
  O129     1.0000 0.41420  0.23570  0.20850  Biso   1.000  O
  O130     1.0000 0.58580  0.23570  0.29150  Biso   1.000  O
  O131     1.0000 0.91420  0.73570  0.20850  Biso   1.000  O
  O132     1.0000 0.08580  0.73570  0.29150  Biso   1.000  O
  O133     1.0000 0.58580  0.76430  0.79150  Biso   1.000  O
  O134     1.0000 0.41420  0.76430  0.70850  Biso   1.000  O
  O135     1.0000 0.08580  0.26430  0.79150  Biso   1.000  O
  O136     1.0000 0.91420  0.26430  0.70850  Biso   1.000  O
  O137     1.0000 0.35190  0.33970  0.19910  Biso   1.000  O
  O138     1.0000 0.64810  0.33970  0.30090  Biso   1.000  O
  O139     1.0000 0.85190  0.83970  0.19910  Biso   1.000  O
  O140     1.0000 0.14810  0.83970  0.30090  Biso   1.000  O
  O141     1.0000 0.64810  0.66030  0.80090  Biso   1.000  O
  O142     1.0000 0.35190  0.66030  0.69910  Biso   1.000  O
  O143     1.0000 0.14810  0.16030  0.80090  Biso   1.000  O
  O144     1.0000 0.85190  0.16030  0.69910  Biso   1.000  O
  O145     1.0000 0.42690  0.16800  0.98710  Biso   1.000  O
  O146     1.0000 0.57310  0.16800  0.51290  Biso   1.000  O
  O147     1.0000 0.92690  0.66800  0.98710  Biso   1.000  O
  O148     1.0000 0.07310  0.66800  0.51290  Biso   1.000  O
  O149     1.0000 0.57310  0.83200  0.01290  Biso   1.000  O
  O150     1.0000 0.42690  0.83200  0.48710  Biso   1.000  O
  O151     1.0000 0.07310  0.33200  0.01290  Biso   1.000  O
  O152     1.0000 0.92690  0.33200  0.48710  Biso   1.000  O
  O153     1.0000 0.18260  0.43380  0.92860  Biso   1.000  O
  O154     1.0000 0.81740  0.43380  0.57140  Biso   1.000  O
  O155     1.0000 0.68260  0.93380  0.92860  Biso   1.000  O
  O156     1.0000 0.31740  0.93380  0.57140  Biso   1.000  O
  O157     1.0000 0.81740  0.56620  0.07140  Biso   1.000  O
  O158     1.0000 0.18260  0.56620  0.42860  Biso   1.000  O
  O159     1.0000 0.31740  0.06620  0.07140  Biso   1.000  O
  O160     1.0000 0.68260  0.06620  0.42860  Biso   1.000  O
  O161     1.0000 0.27800  0.37350  0.14220  Biso   1.000  O
  O162     1.0000 0.72200  0.37350  0.35780  Biso   1.000  O
  O163     1.0000 0.77800  0.87350  0.14220  Biso   1.000  O
  O164     1.0000 0.22200  0.87350  0.35780  Biso   1.000  O
  O165     1.0000 0.72200  0.62650  0.85780  Biso   1.000  O
  O166     1.0000 0.27800  0.62650  0.64220  Biso   1.000  O
  O167     1.0000 0.22200  0.12650  0.85780  Biso   1.000  O
  O168     1.0000 0.77800  0.12650  0.64220  Biso   1.000  O
  O169     1.0000 0.29970  0.54980  0.11920  Biso   1.000  O
  O170     1.0000 0.70030  0.54980  0.38080  Biso   1.000  O
  O171     1.0000 0.79970  0.04980  0.11920  Biso   1.000  O
  O172     1.0000 0.20030  0.04980  0.38080  Biso   1.000  O
  O173     1.0000 0.70030  0.45020  0.88080  Biso   1.000  O
  O174     1.0000 0.29970  0.45020  0.61920  Biso   1.000  O
  O175     1.0000 0.20030  0.95020  0.88080  Biso   1.000  O
  O176     1.0000 0.79970  0.95020  0.61920  Biso   1.000  O
  O177     1.0000 0.33960  0.68320  0.98090  Biso   1.000  O
  O178     1.0000 0.66040  0.68320  0.51910  Biso   1.000  O
  O179     1.0000 0.83960  0.18320  0.98090  Biso   1.000  O
  O180     1.0000 0.16040  0.18320  0.51910  Biso   1.000  O
  O181     1.0000 0.66040  0.31680  0.01910  Biso   1.000  O
  O182     1.0000 0.33960  0.31680  0.48090  Biso   1.000  O
  O183     1.0000 0.16040  0.81680  0.01910  Biso   1.000  O
  O184     1.0000 0.83960  0.81680  0.48090  Biso   1.000  O
  O185     1.0000 0.41480  0.65610  0.04310  Biso   1.000  O
  O186     1.0000 0.58520  0.65610  0.45690  Biso   1.000  O
  O187     1.0000 0.91480  0.15610  0.04310  Biso   1.000  O
  O188     1.0000 0.08520  0.15610  0.45690  Biso   1.000  O
  O189     1.0000 0.58520  0.34390  0.95690  Biso   1.000  O
  O190     1.0000 0.41480  0.34390  0.54310  Biso   1.000  O
  O191     1.0000 0.08520  0.84390  0.95690  Biso   1.000  O
  O192     1.0000 0.91480  0.84390  0.54310  Biso   1.000  O
  O193     1.0000 0.39480  0.46360  0.05510  Biso   1.000  O
  O194     1.0000 0.60520  0.46360  0.44490  Biso   1.000  O
  O195     1.0000 0.89480  0.96360  0.05510  Biso   1.000  O
  O196     1.0000 0.10520  0.96360  0.44490  Biso   1.000  O
  O197     1.0000 0.60520  0.53640  0.94490  Biso   1.000  O
  O198     1.0000 0.39480  0.53640  0.55510  Biso   1.000  O
  O199     1.0000 0.10520  0.03640  0.94490  Biso   1.000  O
  O200     1.0000 0.89480  0.03640  0.55510  Biso   1.000  O
  O201     1.0000 0.35510  0.58760  0.07690  Biso   1.000  O
  O202     1.0000 0.64490  0.58760  0.42310  Biso   1.000  O
  O203     1.0000 0.85510  0.08760  0.07690  Biso   1.000  O
  O204     1.0000 0.14490  0.08760  0.42310  Biso   1.000  O
  O205     1.0000 0.64490  0.41240  0.92310  Biso   1.000  O
  O206     1.0000 0.35510  0.41240  0.57690  Biso   1.000  O
  O207     1.0000 0.14490  0.91240  0.92310  Biso   1.000  O
  O208     1.0000 0.85510  0.91240  0.57690  Biso   1.000  O
  O209     1.0000 0.27890  0.64800  0.02860  Biso   1.000  O
  O210     1.0000 0.72110  0.64800  0.47140  Biso   1.000  O
  O211     1.0000 0.77890  0.14800  0.02860  Biso   1.000  O
  O212     1.0000 0.22110  0.14800  0.47140  Biso   1.000  O
  O213     1.0000 0.72110  0.35200  0.97140  Biso   1.000  O
  O214     1.0000 0.27890  0.35200  0.52860  Biso   1.000  O
  O215     1.0000 0.22110  0.85200  0.97140  Biso   1.000  O
  O216     1.0000 0.77890  0.85200  0.52860  Biso   1.000  O
  O217     1.0000 0.28460  0.26510  0.05310  Biso   1.000  O
  O218     1.0000 0.71540  0.26510  0.44690  Biso   1.000  O
  O219     1.0000 0.78460  0.76510  0.05310  Biso   1.000  O
  O220     1.0000 0.21540  0.76510  0.44690  Biso   1.000  O
  O221     1.0000 0.71540  0.73490  0.94690  Biso   1.000  O
  O222     1.0000 0.28460  0.73490  0.55310  Biso   1.000  O
  O223     1.0000 0.21540  0.23490  0.94690  Biso   1.000  O
  O224     1.0000 0.78460  0.23490  0.55310  Biso   1.000  O
  O225     1.0000 0.35310  0.21020  0.92080  Biso   1.000  O
  O226     1.0000 0.64690  0.21020  0.57920  Biso   1.000  O
  O227     1.0000 0.85310  0.71020  0.92080  Biso   1.000  O
  O228     1.0000 0.14690  0.71020  0.57920  Biso   1.000  O
  O229     1.0000 0.64690  0.78980  0.07920  Biso   1.000  O
  O230     1.0000 0.35310  0.78980  0.42080  Biso   1.000  O
  O231     1.0000 0.14690  0.28980  0.07920  Biso   1.000  O
  O232     1.0000 0.85310  0.28980  0.42080  Biso   1.000  O
  O233     1.0000 0.35380  0.50310  0.84350  Biso   1.000  O
  O234     1.0000 0.64620  0.50310  0.65650  Biso   1.000  O
  O235     1.0000 0.85380  0.00310  0.84350  Biso   1.000  O
  O236     1.0000 0.14620  0.00310  0.65650  Biso   1.000  O
  O237     1.0000 0.64620  0.49690  0.15650  Biso   1.000  O
  O238     1.0000 0.35380  0.49690  0.34350  Biso   1.000  O
  O239     1.0000 0.14620  0.99690  0.15650  Biso   1.000  O
  O240     1.0000 0.85380  0.99690  0.34350  Biso   1.000  O
  O241     1.0000 0.30340  0.36610  0.79850  Biso   1.000  O
  O242     1.0000 0.69660  0.36610  0.70150  Biso   1.000  O
  O243     1.0000 0.80340  0.86610  0.79850  Biso   1.000  O
  O244     1.0000 0.19660  0.86610  0.70150  Biso   1.000  O
  O245     1.0000 0.69660  0.63390  0.20150  Biso   1.000  O
  O246     1.0000 0.30340  0.63390  0.29850  Biso   1.000  O
  O247     1.0000 0.19660  0.13390  0.20150  Biso   1.000  O
  O248     1.0000 0.80340  0.13390  0.29850  Biso   1.000  O
  O249     1.0000 0.32750  0.19190  0.80920  Biso   1.000  O
  O250     1.0000 0.67250  0.19190  0.69080  Biso   1.000  O
  O251     1.0000 0.82750  0.69190  0.80920  Biso   1.000  O
  O252     1.0000 0.17250  0.69190  0.69080  Biso   1.000  O
  O253     1.0000 0.67250  0.80810  0.19080  Biso   1.000  O
  O254     1.0000 0.32750  0.80810  0.30920  Biso   1.000  O
  O255     1.0000 0.17250  0.30810  0.19080  Biso   1.000  O
  O256     1.0000 0.82750  0.30810  0.30920  Biso   1.000  O
  O257     1.0000 0.40570  0.36230  0.97180  Biso   1.000  O
  O258     1.0000 0.59430  0.36230  0.52820  Biso   1.000  O
  O259     1.0000 0.90570  0.86230  0.97180  Biso   1.000  O
  O260     1.0000 0.09430  0.86230  0.52820  Biso   1.000  O
  O261     1.0000 0.59430  0.63770  0.02820  Biso   1.000  O
  O262     1.0000 0.40570  0.63770  0.47180  Biso   1.000  O
  O263     1.0000 0.09430  0.13770  0.02820  Biso   1.000  O
  O264     1.0000 0.90570  0.13770  0.47180  Biso   1.000  O
  O265     1.0000 0.37200  0.12710  0.03250  Biso   1.000  O
  O266     1.0000 0.62800  0.12710  0.46750  Biso   1.000  O
  O267     1.0000 0.87200  0.62710  0.03250  Biso   1.000  O
  O268     1.0000 0.12800  0.62710  0.46750  Biso   1.000  O
  O269     1.0000 0.62800  0.87290  0.96750  Biso   1.000  O
  O270     1.0000 0.37200  0.87290  0.53250  Biso   1.000  O
  O271     1.0000 0.12800  0.37290  0.96750  Biso   1.000  O
  O272     1.0000 0.87200  0.37290  0.53250  Biso   1.000  O
  O273     1.0000 0.37980  0.96680  0.10320  Biso   1.000  O
  O274     1.0000 0.62020  0.96680  0.39680  Biso   1.000  O
  O275     1.0000 0.87980  0.46680  0.10320  Biso   1.000  O
  O276     1.0000 0.12020  0.46680  0.39680  Biso   1.000  O
  O277     1.0000 0.62020  0.03320  0.89680  Biso   1.000  O
  O278     1.0000 0.37980  0.03320  0.60320  Biso   1.000  O
  O279     1.0000 0.12020  0.53320  0.89680  Biso   1.000  O
  O280     1.0000 0.87980  0.53320  0.60320  Biso   1.000  O
  O281     1.0000 0.19550  0.31150  0.83220  Biso   1.000  O
  O282     1.0000 0.80450  0.31150  0.66780  Biso   1.000  O
  O283     1.0000 0.69550  0.81150  0.83220  Biso   1.000  O
  O284     1.0000 0.30450  0.81150  0.66780  Biso   1.000  O
  O285     1.0000 0.80450  0.68850  0.16780  Biso   1.000  O
  O286     1.0000 0.19550  0.68850  0.33220  Biso   1.000  O
  O287     1.0000 0.30450  0.18850  0.16780  Biso   1.000  O
  O288     1.0000 0.69550  0.18850  0.33220  Biso   1.000  O
  O289     1.0000 0.48620  0.15970  0.08480  Biso   1.000  O
  O290     1.0000 0.51380  0.15970  0.41520  Biso   1.000  O
  O291     1.0000 0.98620  0.65970  0.08480  Biso   1.000  O
  O292     1.0000 0.01380  0.65970  0.41520  Biso   1.000  O
  O293     1.0000 0.51380  0.84030  0.91520  Biso   1.000  O
  O294     1.0000 0.48620  0.84030  0.58480  Biso   1.000  O
  O295     1.0000 0.01380  0.34030  0.91520  Biso   1.000  O
  O296     1.0000 0.98620  0.34030  0.58480  Biso   1.000  O
  O297     1.0000 0.37350  0.51000  0.17960  Biso   1.000  O
  O298     1.0000 0.62650  0.51000  0.32040  Biso   1.000  O
  O299     1.0000 0.87350  0.01000  0.17960  Biso   1.000  O
  O300     1.0000 0.12650  0.01000  0.32040  Biso   1.000  O
  O301     1.0000 0.62650  0.49000  0.82040  Biso   1.000  O
  O302     1.0000 0.37350  0.49000  0.67960  Biso   1.000  O
  O303     1.0000 0.12650  0.99000  0.82040  Biso   1.000  O
  O304     1.0000 0.87350  0.99000  0.67960  Biso   1.000  O
  O305     1.0000 0.47620  0.26890  0.18010  Biso   1.000  O
  O306     1.0000 0.52380  0.26890  0.31990  Biso   1.000  O
  O307     1.0000 0.97620  0.76890  0.18010  Biso   1.000  O
  O308     1.0000 0.02380  0.76890  0.31990  Biso   1.000  O
  O309     1.0000 0.52380  0.73110  0.81990  Biso   1.000  O
  O310     1.0000 0.47620  0.73110  0.68010  Biso   1.000  O
  O311     1.0000 0.02380  0.23110  0.81990  Biso   1.000  O
  O312     1.0000 0.97620  0.23110  0.68010  Biso   1.000  O
  O313     1.0000 0.42960  0.56840  0.15230  Biso   1.000  O
  O314     1.0000 0.57040  0.56840  0.34770  Biso   1.000  O
  O315     1.0000 0.92960  0.06840  0.15230  Biso   1.000  O
  O316     1.0000 0.07040  0.06840  0.34770  Biso   1.000  O
  O317     1.0000 0.57040  0.43160  0.84770  Biso   1.000  O
  O318     1.0000 0.42960  0.43160  0.65230  Biso   1.000  O
  O319     1.0000 0.07040  0.93160  0.84770  Biso   1.000  O
  O320     1.0000 0.92960  0.93160  0.65230  Biso   1.000  O
  O321     1.0000 0.27130  0.51680  0.88330  Biso   1.000  O
  O322     1.0000 0.72870  0.51680  0.61670  Biso   1.000  O
  O323     1.0000 0.77130  0.01680  0.88330  Biso   1.000  O
  O324     1.0000 0.22870  0.01680  0.61670  Biso   1.000  O
  O325     1.0000 0.72870  0.48320  0.11670  Biso   1.000  O
  O326     1.0000 0.27130  0.48320  0.38330  Biso   1.000  O
  O327     1.0000 0.22870  0.98320  0.11670  Biso   1.000  O
  O328     1.0000 0.77130  0.98320  0.38330  Biso   1.000  O
  O329     1.0000 0.20330  0.33340  0.03580  Biso   1.000  O
  O330     1.0000 0.79670  0.33340  0.46420  Biso   1.000  O
  O331     1.0000 0.70330  0.83340  0.03580  Biso   1.000  O
  O332     1.0000 0.29670  0.83340  0.46420  Biso   1.000  O
  O333     1.0000 0.79670  0.66660  0.96420  Biso   1.000  O
  O334     1.0000 0.20330  0.66660  0.53580  Biso   1.000  O
  O335     1.0000 0.29670  0.16660  0.96420  Biso   1.000  O
  O336     1.0000 0.70330  0.16660  0.53580  Biso   1.000  O
  O337     1.0000 0.31440  0.49080  0.22260  Biso   1.000  O
  O338     1.0000 0.68560  0.49080  0.27740  Biso   1.000  O
  O339     1.0000 0.81440  0.99080  0.22260  Biso   1.000  O
  O340     1.0000 0.18560  0.99080  0.27740  Biso   1.000  O
  O341     1.0000 0.68560  0.50920  0.77740  Biso   1.000  O
  O342     1.0000 0.31440  0.50920  0.72260  Biso   1.000  O
  O343     1.0000 0.18560  0.00920  0.77740  Biso   1.000  O
  O344     1.0000 0.81440  0.00920  0.72260  Biso   1.000  O
  O345     1.0000 0.46830  0.41430  0.05720  Biso   1.000  O
  O346     1.0000 0.53170  0.41430  0.44280  Biso   1.000  O
  O347     1.0000 0.96830  0.91430  0.05720  Biso   1.000  O
  O348     1.0000 0.03170  0.91430  0.44280  Biso   1.000  O
  O349     1.0000 0.53170  0.58570  0.94280  Biso   1.000  O
  O350     1.0000 0.46830  0.58570  0.55720  Biso   1.000  O
  O351     1.0000 0.03170  0.08570  0.94280  Biso   1.000  O
  O352     1.0000 0.96830  0.08570  0.55720  Biso   1.000  O
  O353     1.0000 0.45510  0.27520  0.92470  Biso   1.000  O
  O354     1.0000 0.54490  0.27520  0.57530  Biso   1.000  O
  O355     1.0000 0.95510  0.77520  0.92470  Biso   1.000  O
  O356     1.0000 0.04490  0.77520  0.57530  Biso   1.000  O
  O357     1.0000 0.54490  0.72480  0.07530  Biso   1.000  O
  O358     1.0000 0.45510  0.72480  0.42470  Biso   1.000  O
  O359     1.0000 0.04490  0.22480  0.07530  Biso   1.000  O
  O360     1.0000 0.95510  0.22480  0.42470  Biso   1.000  O
  O361     1.0000 0.16090  0.46710  0.06380  Biso   1.000  O
  O362     1.0000 0.83910  0.46710  0.43620  Biso   1.000  O
  O363     1.0000 0.66090  0.96710  0.06380  Biso   1.000  O
  O364     1.0000 0.33910  0.96710  0.43620  Biso   1.000  O
  O365     1.0000 0.83910  0.53290  0.93620  Biso   1.000  O
  O366     1.0000 0.16090  0.53290  0.56380  Biso   1.000  O
  O367     1.0000 0.33910  0.03290  0.93620  Biso   1.000  O
  O368     1.0000 0.66090  0.03290  0.56380  Biso   1.000  O
  O369     1.0000 0.40610  0.14740  0.87600  Biso   1.000  O
  O370     1.0000 0.59390  0.14740  0.62400  Biso   1.000  O
  O371     1.0000 0.90610  0.64740  0.87600  Biso   1.000  O
  O372     1.0000 0.09390  0.64740  0.62400  Biso   1.000  O
  O373     1.0000 0.59390  0.85260  0.12400  Biso   1.000  O
  O374     1.0000 0.40610  0.85260  0.37600  Biso   1.000  O
  O375     1.0000 0.09390  0.35260  0.12400  Biso   1.000  O
  O376     1.0000 0.90610  0.35260  0.37600  Biso   1.000  O
  N1       1.0000 0.29530  0.36450  0.30170  Biso   1.000  N
  N2       1.0000 0.70470  0.36450  0.19830  Biso   1.000  N
  N3       1.0000 0.79530  0.86450  0.30170  Biso   1.000  N
  N4       1.0000 0.20470  0.86450  0.19830  Biso   1.000  N
  N5       1.0000 0.70470  0.63550  0.69830  Biso   1.000  N
  N6       1.0000 0.29530  0.63550  0.80170  Biso   1.000  N
  N7       1.0000 0.20470  0.13550  0.69830  Biso   1.000  N
  N8       1.0000 0.79530  0.13550  0.80170  Biso   1.000  N
  N9       1.0000 0.28280  0.22940  0.27660  Biso   1.000  N
  N10      1.0000 0.71720  0.22940  0.22340  Biso   1.000  N
  N11      1.0000 0.78280  0.72940  0.27660  Biso   1.000  N
  N12      1.0000 0.21720  0.72940  0.22340  Biso   1.000  N
  N13      1.0000 0.71720  0.77060  0.72340  Biso   1.000  N
  N14      1.0000 0.28280  0.77060  0.77660  Biso   1.000  N
  N15      1.0000 0.21720  0.27060  0.72340  Biso   1.000  N
  N16      1.0000 0.78280  0.27060  0.77660  Biso   1.000  N
  N17      1.0000 0.24240  0.51580  0.26040  Biso   1.000  N
  N18      1.0000 0.75760  0.51580  0.23960  Biso   1.000  N
  N19      1.0000 0.74240  0.01580  0.26040  Biso   1.000  N
  N20      1.0000 0.25760  0.01580  0.23960  Biso   1.000  N
  N21      1.0000 0.75760  0.48420  0.73960  Biso   1.000  N
  N22      1.0000 0.24240  0.48420  0.76040  Biso   1.000  N
  N23      1.0000 0.25760  0.98420  0.73960  Biso   1.000  N
  N24      1.0000 0.74240  0.98420  0.76040  Biso   1.000  N
  N25      1.0000 0.18550  0.50100  0.17700  Biso   1.000  N
  N26      1.0000 0.81450  0.50100  0.32300  Biso   1.000  N
  N27      1.0000 0.68550  0.00100  0.17700  Biso   1.000  N
  N28      1.0000 0.31450  0.00100  0.32300  Biso   1.000  N
  N29      1.0000 0.81450  0.49900  0.82300  Biso   1.000  N
  N30      1.0000 0.18550  0.49900  0.67700  Biso   1.000  N
  N31      1.0000 0.31450  0.99900  0.82300  Biso   1.000  N
  N32      1.0000 0.68550  0.99900  0.67700  Biso   1.000  N
  C1       1.0000 0.31770  0.31580  0.34420  Biso   1.000  C
  C2       1.0000 0.68230  0.31580  0.15580  Biso   1.000  C
  C3       1.0000 0.81770  0.81580  0.34420  Biso   1.000  C
  C4       1.0000 0.18230  0.81580  0.15580  Biso   1.000  C
  C5       1.0000 0.68230  0.68420  0.65580  Biso   1.000  C
  C6       1.0000 0.31770  0.68420  0.84420  Biso   1.000  C
  C7       1.0000 0.18230  0.18420  0.65580  Biso   1.000  C
  C8       1.0000 0.81770  0.18420  0.84420  Biso   1.000  C
  C9       1.0000 0.30740  0.22610  0.32850  Biso   1.000  C
  C10      1.0000 0.69260  0.22610  0.17150  Biso   1.000  C
  C11      1.0000 0.80740  0.72610  0.32850  Biso   1.000  C
  C12      1.0000 0.19260  0.72610  0.17150  Biso   1.000  C
  C13      1.0000 0.69260  0.77390  0.67150  Biso   1.000  C
  C14      1.0000 0.30740  0.77390  0.82850  Biso   1.000  C
  C15      1.0000 0.19260  0.27390  0.67150  Biso   1.000  C
  C16      1.0000 0.80740  0.27390  0.82850  Biso   1.000  C
  C17      1.0000 0.27080  0.31580  0.26080  Biso   1.000  C
  C18      1.0000 0.72920  0.31580  0.23920  Biso   1.000  C
  C19      1.0000 0.77080  0.81580  0.26080  Biso   1.000  C
  C20      1.0000 0.22920  0.81580  0.23920  Biso   1.000  C
  C21      1.0000 0.72920  0.68420  0.73920  Biso   1.000  C
  C22      1.0000 0.27080  0.68420  0.76080  Biso   1.000  C
  C23      1.0000 0.22920  0.18420  0.73920  Biso   1.000  C
  C24      1.0000 0.77080  0.18420  0.76080  Biso   1.000  C
  C25      1.0000 0.20900  0.50700  0.27050  Biso   1.000  C
  C26      1.0000 0.79100  0.50700  0.22950  Biso   1.000  C
  C27      1.0000 0.70900  0.00700  0.27050  Biso   1.000  C
  C28      1.0000 0.29100  0.00700  0.22950  Biso   1.000  C
  C29      1.0000 0.79100  0.49300  0.72950  Biso   1.000  C
  C30      1.0000 0.20900  0.49300  0.77050  Biso   1.000  C
  C31      1.0000 0.29100  0.99300  0.72950  Biso   1.000  C
  C32      1.0000 0.70900  0.99300  0.77050  Biso   1.000  C
  C33      1.0000 0.17590  0.50700  0.22250  Biso   1.000  C
  C34      1.0000 0.82410  0.50700  0.27750  Biso   1.000  C
  C35      1.0000 0.67590  0.00700  0.22250  Biso   1.000  C
  C36      1.0000 0.32410  0.00700  0.27750  Biso   1.000  C
  C37      1.0000 0.82410  0.49300  0.77750  Biso   1.000  C
  C38      1.0000 0.17590  0.49300  0.72250  Biso   1.000  C
  C39      1.0000 0.32410  0.99300  0.77750  Biso   1.000  C
  C40      1.0000 0.67590  0.99300  0.72250  Biso   1.000  C
  C41      1.0000 0.22450  0.50000  0.20560  Biso   1.000  C
  C42      1.0000 0.77550  0.50000  0.29440  Biso   1.000  C
  C43      1.0000 0.72450  0.00000  0.20560  Biso   1.000  C
  C44      1.0000 0.27550  0.00000  0.29440  Biso   1.000  C
  C45      1.0000 0.77550  0.50000  0.79440  Biso   1.000  C
  C46      1.0000 0.22450  0.50000  0.70560  Biso   1.000  C
  C47      1.0000 0.27550  0.00000  0.79440  Biso   1.000  C
  C48      1.0000 0.72450  0.00000  0.70560  Biso   1.000  C
