data_image0
_cell_length_a       20.8241
_cell_length_b       20.8241
_cell_length_c       10.001
_cell_angle_alpha    90
_cell_angle_beta     90
_cell_angle_gamma    90

_symmetry_space_group_name_H-M    "P 1"
_symmetry_int_tables_number       1

loop_
  _symmetry_equiv_pos_as_xyz
  'x, y, z'

loop_
  _atom_site_label
  _atom_site_occupancy
  _atom_site_fract_x
  _atom_site_fract_y
  _atom_site_fract_z
  _atom_site_thermal_displace_type
  _atom_site_B_iso_or_equiv
  _atom_site_type_symbol
  Cu1      1.0000 0.36873  0.37014  0.24140  Biso   1.000  Cu
  Cu2      1.0000 0.63127  0.37014  0.24140  Biso   1.000  Cu
  Cu3      1.0000 0.13127  0.12986  0.74140  Biso   1.000  Cu
  Cu4      1.0000 0.86873  0.12986  0.74140  Biso   1.000  Cu
  Cu5      1.0000 0.62986  0.13127  0.49140  Biso   1.000  Cu
  Cu6      1.0000 0.87014  0.63127  0.99140  Biso   1.000  Cu
  Cu7      1.0000 0.62986  0.86873  0.49140  Biso   1.000  Cu
  Cu8      1.0000 0.87014  0.36873  0.99140  Biso   1.000  Cu
  Cu9      1.0000 0.86873  0.87014  0.74140  Biso   1.000  Cu
  Cu10     1.0000 0.13127  0.87014  0.74140  Biso   1.000  Cu
  Cu11     1.0000 0.63127  0.62986  0.24140  Biso   1.000  Cu
  Cu12     1.0000 0.36873  0.62986  0.24140  Biso   1.000  Cu
  Cu13     1.0000 0.12986  0.63127  0.99140  Biso   1.000  Cu
  Cu14     1.0000 0.37014  0.13127  0.49140  Biso   1.000  Cu
  Cu15     1.0000 0.12986  0.36873  0.99140  Biso   1.000  Cu
  Cu16     1.0000 0.37014  0.86873  0.49140  Biso   1.000  Cu
  N1       1.0000 0.44319  0.37776  0.36150  Biso   1.000  N
  N2       1.0000 0.55681  0.37776  0.36150  Biso   1.000  N
  N3       1.0000 0.05681  0.12224  0.86150  Biso   1.000  N
  N4       1.0000 0.94319  0.12224  0.86150  Biso   1.000  N
  N5       1.0000 0.62224  0.05681  0.61150  Biso   1.000  N
  N6       1.0000 0.87776  0.55681  0.11150  Biso   1.000  N
  N7       1.0000 0.62224  0.94319  0.61150  Biso   1.000  N
  N8       1.0000 0.87776  0.44319  0.11150  Biso   1.000  N
  N9       1.0000 0.94319  0.87776  0.86150  Biso   1.000  N
  N10      1.0000 0.05681  0.87776  0.86150  Biso   1.000  N
  N11      1.0000 0.55681  0.62224  0.36150  Biso   1.000  N
  N12      1.0000 0.44319  0.62224  0.36150  Biso   1.000  N
  N13      1.0000 0.12224  0.55681  0.11150  Biso   1.000  N
  N14      1.0000 0.37776  0.05681  0.61150  Biso   1.000  N
  N15      1.0000 0.12224  0.44319  0.11150  Biso   1.000  N
  N16      1.0000 0.37776  0.94319  0.61150  Biso   1.000  N
  C1       1.0000 0.50000  0.37600  0.29260  Biso   1.000  C
  C2       1.0000 0.00000  0.12400  0.79260  Biso   1.000  C
  C3       1.0000 0.62400  0.00000  0.54260  Biso   1.000  C
  C4       1.0000 0.87600  0.50000  0.04260  Biso   1.000  C
  C5       1.0000 0.00000  0.87600  0.79260  Biso   1.000  C
  C6       1.0000 0.50000  0.62400  0.29260  Biso   1.000  C
  C7       1.0000 0.12400  0.50000  0.04260  Biso   1.000  C
  C8       1.0000 0.37600  0.00000  0.54260  Biso   1.000  C
  O1       1.0000 0.50000  0.37109  0.16860  Biso   1.000  O
  O2       1.0000 0.00000  0.12891  0.66860  Biso   1.000  O
  O3       1.0000 0.62891  0.00000  0.41860  Biso   1.000  O
  O4       1.0000 0.87109  0.50000  0.91860  Biso   1.000  O
  O5       1.0000 0.00000  0.87109  0.66860  Biso   1.000  O
  O6       1.0000 0.50000  0.62891  0.16860  Biso   1.000  O
  O7       1.0000 0.12891  0.50000  0.91860  Biso   1.000  O
  O8       1.0000 0.37109  0.00000  0.41860  Biso   1.000  O
  C9       1.0000 0.44365  0.38742  0.49310  Biso   1.000  C
  C10      1.0000 0.55635  0.38742  0.49310  Biso   1.000  C
  C11      1.0000 0.05635  0.11258  0.99310  Biso   1.000  C
  C12      1.0000 0.94365  0.11258  0.99310  Biso   1.000  C
  C13      1.0000 0.61258  0.05635  0.74310  Biso   1.000  C
  C14      1.0000 0.88742  0.55635  0.24310  Biso   1.000  C
  C15      1.0000 0.61258  0.94365  0.74310  Biso   1.000  C
  C16      1.0000 0.88742  0.44365  0.24310  Biso   1.000  C
  C17      1.0000 0.94365  0.88742  0.99310  Biso   1.000  C
  C18      1.0000 0.05635  0.88742  0.99310  Biso   1.000  C
  C19      1.0000 0.55635  0.61258  0.49310  Biso   1.000  C
  C20      1.0000 0.44365  0.61258  0.49310  Biso   1.000  C
  C21      1.0000 0.11258  0.55635  0.24310  Biso   1.000  C
  C22      1.0000 0.38742  0.05635  0.74310  Biso   1.000  C
  C23      1.0000 0.11258  0.44365  0.24310  Biso   1.000  C
  C24      1.0000 0.38742  0.94365  0.74310  Biso   1.000  C
  H1       1.0000 0.40500  0.38950  0.53940  Biso   1.000  H
  H2       1.0000 0.59500  0.38950  0.53940  Biso   1.000  H
  H3       1.0000 0.09500  0.11050  0.03940  Biso   1.000  H
  H4       1.0000 0.90500  0.11050  0.03940  Biso   1.000  H
  H5       1.0000 0.61050  0.09500  0.78940  Biso   1.000  H
  H6       1.0000 0.88950  0.59500  0.28940  Biso   1.000  H
  H7       1.0000 0.61050  0.90500  0.78940  Biso   1.000  H
  H8       1.0000 0.88950  0.40500  0.28940  Biso   1.000  H
  H9       1.0000 0.90500  0.88950  0.03940  Biso   1.000  H
  H10      1.0000 0.09500  0.88950  0.03940  Biso   1.000  H
  H11      1.0000 0.59500  0.61050  0.53940  Biso   1.000  H
  H12      1.0000 0.40500  0.61050  0.53940  Biso   1.000  H
  H13      1.0000 0.11050  0.59500  0.28940  Biso   1.000  H
  H14      1.0000 0.38950  0.09500  0.78940  Biso   1.000  H
  H15      1.0000 0.11050  0.40500  0.28940  Biso   1.000  H
  H16      1.0000 0.38950  0.90500  0.78940  Biso   1.000  H
  C25      1.0000 0.50000  0.39430  0.56070  Biso   1.000  C
  C26      1.0000 0.00000  0.10570  0.06070  Biso   1.000  C
  C27      1.0000 0.60570  0.00000  0.81070  Biso   1.000  C
  C28      1.0000 0.89430  0.50000  0.31070  Biso   1.000  C
  C29      1.0000 0.00000  0.89430  0.06070  Biso   1.000  C
  C30      1.0000 0.50000  0.60570  0.56070  Biso   1.000  C
  C31      1.0000 0.10570  0.50000  0.31070  Biso   1.000  C
  C32      1.0000 0.39430  0.00000  0.81070  Biso   1.000  C
  F1       1.0000 0.50000  0.40480  0.69340  Biso   1.000  F
  F2       1.0000 0.00000  0.09520  0.19340  Biso   1.000  F
  F3       1.0000 0.59520  0.00000  0.94340  Biso   1.000  F
  F4       1.0000 0.90480  0.50000  0.44340  Biso   1.000  F
  F5       1.0000 0.00000  0.90480  0.19340  Biso   1.000  F
  F6       1.0000 0.50000  0.59520  0.69340  Biso   1.000  F
  F7       1.0000 0.09520  0.50000  0.44340  Biso   1.000  F
  F8       1.0000 0.40480  0.00000  0.94340  Biso   1.000  F
  N17      1.0000 0.32380  0.44303  0.33050  Biso   1.000  N
  N18      1.0000 0.67620  0.44303  0.33050  Biso   1.000  N
  N19      1.0000 0.17620  0.05697  0.83050  Biso   1.000  N
  N20      1.0000 0.82380  0.05697  0.83050  Biso   1.000  N
  N21      1.0000 0.55697  0.17620  0.58050  Biso   1.000  N
  N22      1.0000 0.94303  0.67620  0.08050  Biso   1.000  N
  N23      1.0000 0.55697  0.82380  0.58050  Biso   1.000  N
  N24      1.0000 0.94303  0.32380  0.08050  Biso   1.000  N
  N25      1.0000 0.82380  0.94303  0.83050  Biso   1.000  N
  N26      1.0000 0.17620  0.94303  0.83050  Biso   1.000  N
  N27      1.0000 0.67620  0.55697  0.33050  Biso   1.000  N
  N28      1.0000 0.32380  0.55697  0.33050  Biso   1.000  N
  N29      1.0000 0.05697  0.67620  0.08050  Biso   1.000  N
  N30      1.0000 0.44303  0.17620  0.58050  Biso   1.000  N
  N31      1.0000 0.05697  0.32380  0.08050  Biso   1.000  N
  N32      1.0000 0.44303  0.82380  0.58050  Biso   1.000  N
  C33      1.0000 0.34770  0.50000  0.28350  Biso   1.000  C
  C34      1.0000 0.65230  0.50000  0.28350  Biso   1.000  C
  C35      1.0000 0.15230  0.00000  0.78350  Biso   1.000  C
  C36      1.0000 0.84770  0.00000  0.78350  Biso   1.000  C
  C37      1.0000 0.50000  0.15230  0.53350  Biso   1.000  C
  C38      1.0000 0.00000  0.65230  0.03350  Biso   1.000  C
  C39      1.0000 0.50000  0.84770  0.53350  Biso   1.000  C
  C40      1.0000 0.00000  0.34770  0.03350  Biso   1.000  C
  O9       1.0000 0.39110  0.50000  0.19910  Biso   1.000  O
  O10      1.0000 0.60890  0.50000  0.19910  Biso   1.000  O
  O11      1.0000 0.10890  0.00000  0.69910  Biso   1.000  O
  O12      1.0000 0.89110  0.00000  0.69910  Biso   1.000  O
  O13      1.0000 0.50000  0.10890  0.44910  Biso   1.000  O
  O14      1.0000 0.00000  0.60890  0.94910  Biso   1.000  O
  O15      1.0000 0.50000  0.89110  0.44910  Biso   1.000  O
  O16      1.0000 0.00000  0.39110  0.94910  Biso   1.000  O
  C41      1.0000 0.28002  0.44334  0.42530  Biso   1.000  C
  C42      1.0000 0.71998  0.44334  0.42530  Biso   1.000  C
  C43      1.0000 0.21998  0.05666  0.92530  Biso   1.000  C
  C44      1.0000 0.78002  0.05666  0.92530  Biso   1.000  C
  C45      1.0000 0.55666  0.21998  0.67530  Biso   1.000  C
  C46      1.0000 0.94334  0.71998  0.17530  Biso   1.000  C
  C47      1.0000 0.55666  0.78002  0.67530  Biso   1.000  C
  C48      1.0000 0.94334  0.28002  0.17530  Biso   1.000  C
  C49      1.0000 0.78002  0.94334  0.92530  Biso   1.000  C
  C50      1.0000 0.21998  0.94334  0.92530  Biso   1.000  C
  C51      1.0000 0.71998  0.55666  0.42530  Biso   1.000  C
  C52      1.0000 0.28002  0.55666  0.42530  Biso   1.000  C
  C53      1.0000 0.05666  0.71998  0.17530  Biso   1.000  C
  C54      1.0000 0.44334  0.21998  0.67530  Biso   1.000  C
  C55      1.0000 0.05666  0.28002  0.17530  Biso   1.000  C
  C56      1.0000 0.44334  0.78002  0.67530  Biso   1.000  C
  H17      1.0000 0.26410  0.40460  0.45750  Biso   1.000  H
  H18      1.0000 0.73590  0.40460  0.45750  Biso   1.000  H
  H19      1.0000 0.23590  0.09540  0.95750  Biso   1.000  H
  H20      1.0000 0.76410  0.09540  0.95750  Biso   1.000  H
  H21      1.0000 0.59540  0.23590  0.70750  Biso   1.000  H
  H22      1.0000 0.90460  0.73590  0.20750  Biso   1.000  H
  H23      1.0000 0.59540  0.76410  0.70750  Biso   1.000  H
  H24      1.0000 0.90460  0.26410  0.20750  Biso   1.000  H
  H25      1.0000 0.76410  0.90460  0.95750  Biso   1.000  H
  H26      1.0000 0.23590  0.90460  0.95750  Biso   1.000  H
  H27      1.0000 0.73590  0.59540  0.45750  Biso   1.000  H
  H28      1.0000 0.26410  0.59540  0.45750  Biso   1.000  H
  H29      1.0000 0.09540  0.73590  0.20750  Biso   1.000  H
  H30      1.0000 0.40460  0.23590  0.70750  Biso   1.000  H
  H31      1.0000 0.09540  0.26410  0.20750  Biso   1.000  H
  H32      1.0000 0.40460  0.76410  0.70750  Biso   1.000  H
  C57      1.0000 0.25750  0.50000  0.47750  Biso   1.000  C
  C58      1.0000 0.74250  0.50000  0.47750  Biso   1.000  C
  C59      1.0000 0.24250  0.00000  0.97750  Biso   1.000  C
  C60      1.0000 0.75750  0.00000  0.97750  Biso   1.000  C
  C61      1.0000 0.50000  0.24250  0.72750  Biso   1.000  C
  C62      1.0000 0.00000  0.74250  0.22750  Biso   1.000  C
  C63      1.0000 0.50000  0.75750  0.72750  Biso   1.000  C
  C64      1.0000 0.00000  0.25750  0.22750  Biso   1.000  C
  F9       1.0000 0.21398  0.50000  0.57650  Biso   1.000  F
  F10      1.0000 0.78602  0.50000  0.57650  Biso   1.000  F
  F11      1.0000 0.28602  0.00000  0.07650  Biso   1.000  F
  F12      1.0000 0.71398  0.00000  0.07650  Biso   1.000  F
  F13      1.0000 0.50000  0.28602  0.82650  Biso   1.000  F
  F14      1.0000 0.00000  0.78602  0.32650  Biso   1.000  F
  F15      1.0000 0.50000  0.71398  0.82650  Biso   1.000  F
  F16      1.0000 0.00000  0.21398  0.32650  Biso   1.000  F
  N33      1.0000 0.38382  0.27768  0.21010  Biso   1.000  N
  N34      1.0000 0.61618  0.27768  0.21010  Biso   1.000  N
  N35      1.0000 0.11618  0.22232  0.71010  Biso   1.000  N
  N36      1.0000 0.88382  0.22232  0.71010  Biso   1.000  N
  N37      1.0000 0.72232  0.11618  0.46010  Biso   1.000  N
  N38      1.0000 0.77768  0.61618  0.96010  Biso   1.000  N
  N39      1.0000 0.72232  0.88382  0.46010  Biso   1.000  N
  N40      1.0000 0.77768  0.38382  0.96010  Biso   1.000  N
  N41      1.0000 0.88382  0.77768  0.71010  Biso   1.000  N
  N42      1.0000 0.11618  0.77768  0.71010  Biso   1.000  N
  N43      1.0000 0.61618  0.72232  0.21010  Biso   1.000  N
  N44      1.0000 0.38382  0.72232  0.21010  Biso   1.000  N
  N45      1.0000 0.22232  0.61618  0.96010  Biso   1.000  N
  N46      1.0000 0.27768  0.11618  0.46010  Biso   1.000  N
  N47      1.0000 0.22232  0.38382  0.96010  Biso   1.000  N
  N48      1.0000 0.27768  0.88382  0.46010  Biso   1.000  N
  C65      1.0000 0.36949  0.24129  0.32180  Biso   1.000  C
  C66      1.0000 0.63051  0.24129  0.32180  Biso   1.000  C
  C67      1.0000 0.13051  0.25871  0.82180  Biso   1.000  C
  C68      1.0000 0.86949  0.25871  0.82180  Biso   1.000  C
  C69      1.0000 0.75871  0.13051  0.57180  Biso   1.000  C
  C70      1.0000 0.74129  0.63051  0.07180  Biso   1.000  C
  C71      1.0000 0.75871  0.86949  0.57180  Biso   1.000  C
  C72      1.0000 0.74129  0.36949  0.07180  Biso   1.000  C
  C73      1.0000 0.86949  0.74129  0.82180  Biso   1.000  C
  C74      1.0000 0.13051  0.74129  0.82180  Biso   1.000  C
  C75      1.0000 0.63051  0.75871  0.32180  Biso   1.000  C
  C76      1.0000 0.36949  0.75871  0.32180  Biso   1.000  C
  C77      1.0000 0.25871  0.63051  0.07180  Biso   1.000  C
  C78      1.0000 0.24129  0.13051  0.57180  Biso   1.000  C
  C79      1.0000 0.25871  0.36949  0.07180  Biso   1.000  C
  C80      1.0000 0.24129  0.86949  0.57180  Biso   1.000  C
  O17      1.0000 0.34714  0.26816  0.42170  Biso   1.000  O
  O18      1.0000 0.65286  0.26816  0.42170  Biso   1.000  O
  O19      1.0000 0.15286  0.23184  0.92170  Biso   1.000  O
  O20      1.0000 0.84714  0.23184  0.92170  Biso   1.000  O
  O21      1.0000 0.73184  0.15286  0.67170  Biso   1.000  O
  O22      1.0000 0.76816  0.65286  0.17170  Biso   1.000  O
  O23      1.0000 0.73184  0.84714  0.67170  Biso   1.000  O
  O24      1.0000 0.76816  0.34714  0.17170  Biso   1.000  O
  O25      1.0000 0.84714  0.76816  0.92170  Biso   1.000  O
  O26      1.0000 0.15286  0.76816  0.92170  Biso   1.000  O
  O27      1.0000 0.65286  0.73184  0.42170  Biso   1.000  O
  O28      1.0000 0.34714  0.73184  0.42170  Biso   1.000  O
  O29      1.0000 0.23184  0.65286  0.17170  Biso   1.000  O
  O30      1.0000 0.26816  0.15286  0.67170  Biso   1.000  O
  O31      1.0000 0.23184  0.34714  0.17170  Biso   1.000  O
  O32      1.0000 0.26816  0.84714  0.67170  Biso   1.000  O
  N49      1.0000 0.38223  0.17733  0.32060  Biso   1.000  N
  N50      1.0000 0.61777  0.17733  0.32060  Biso   1.000  N
  N51      1.0000 0.11777  0.32267  0.82060  Biso   1.000  N
  N52      1.0000 0.88223  0.32267  0.82060  Biso   1.000  N
  N53      1.0000 0.82267  0.11777  0.57060  Biso   1.000  N
  N54      1.0000 0.67733  0.61777  0.07060  Biso   1.000  N
  N55      1.0000 0.82267  0.88223  0.57060  Biso   1.000  N
  N56      1.0000 0.67733  0.38223  0.07060  Biso   1.000  N
  N57      1.0000 0.88223  0.67733  0.82060  Biso   1.000  N
  N58      1.0000 0.11777  0.67733  0.82060  Biso   1.000  N
  N59      1.0000 0.61777  0.82267  0.32060  Biso   1.000  N
  N60      1.0000 0.38223  0.82267  0.32060  Biso   1.000  N
  N61      1.0000 0.32267  0.61777  0.07060  Biso   1.000  N
  N62      1.0000 0.17733  0.11777  0.57060  Biso   1.000  N
  N63      1.0000 0.32267  0.38223  0.07060  Biso   1.000  N
  N64      1.0000 0.17733  0.88223  0.57060  Biso   1.000  N
  C81      1.0000 0.40416  0.14916  0.20830  Biso   1.000  C
  C82      1.0000 0.59584  0.14916  0.20830  Biso   1.000  C
  C83      1.0000 0.09584  0.35084  0.70830  Biso   1.000  C
  C84      1.0000 0.90416  0.35084  0.70830  Biso   1.000  C
  C85      1.0000 0.85084  0.09584  0.45830  Biso   1.000  C
  C86      1.0000 0.64916  0.59584  0.95830  Biso   1.000  C
  C87      1.0000 0.85084  0.90416  0.45830  Biso   1.000  C
  C88      1.0000 0.64916  0.40416  0.95830  Biso   1.000  C
  C89      1.0000 0.90416  0.64916  0.70830  Biso   1.000  C
  C90      1.0000 0.09584  0.64916  0.70830  Biso   1.000  C
  C91      1.0000 0.59584  0.85084  0.20830  Biso   1.000  C
  C92      1.0000 0.40416  0.85084  0.20830  Biso   1.000  C
  C93      1.0000 0.35084  0.59584  0.95830  Biso   1.000  C
  C94      1.0000 0.14916  0.09584  0.45830  Biso   1.000  C
  C95      1.0000 0.35084  0.40416  0.95830  Biso   1.000  C
  C96      1.0000 0.14916  0.90416  0.45830  Biso   1.000  C
  H33      1.0000 0.41300  0.10540  0.20760  Biso   1.000  H
  H34      1.0000 0.58700  0.10540  0.20760  Biso   1.000  H
  H35      1.0000 0.08700  0.39460  0.70760  Biso   1.000  H
  H36      1.0000 0.91300  0.39460  0.70760  Biso   1.000  H
  H37      1.0000 0.89460  0.08700  0.45760  Biso   1.000  H
  H38      1.0000 0.60540  0.58700  0.95760  Biso   1.000  H
  H39      1.0000 0.89460  0.91300  0.45760  Biso   1.000  H
  H40      1.0000 0.60540  0.41300  0.95760  Biso   1.000  H
  H41      1.0000 0.91300  0.60540  0.70760  Biso   1.000  H
  H42      1.0000 0.08700  0.60540  0.70760  Biso   1.000  H
  H43      1.0000 0.58700  0.89460  0.20760  Biso   1.000  H
  H44      1.0000 0.41300  0.89460  0.20760  Biso   1.000  H
  H45      1.0000 0.39460  0.58700  0.95760  Biso   1.000  H
  H46      1.0000 0.10540  0.08700  0.45760  Biso   1.000  H
  H47      1.0000 0.39460  0.41300  0.95760  Biso   1.000  H
  H48      1.0000 0.10540  0.91300  0.45760  Biso   1.000  H
  C97      1.0000 0.41330  0.18450  0.09680  Biso   1.000  C
  C98      1.0000 0.58670  0.18450  0.09680  Biso   1.000  C
  C99      1.0000 0.08670  0.31550  0.59680  Biso   1.000  C
  C100     1.0000 0.91330  0.31550  0.59680  Biso   1.000  C
  C101     1.0000 0.81550  0.08670  0.34680  Biso   1.000  C
  C102     1.0000 0.68450  0.58670  0.84680  Biso   1.000  C
  C103     1.0000 0.81550  0.91330  0.34680  Biso   1.000  C
  C104     1.0000 0.68450  0.41330  0.84680  Biso   1.000  C
  C105     1.0000 0.91330  0.68450  0.59680  Biso   1.000  C
  C106     1.0000 0.08670  0.68450  0.59680  Biso   1.000  C
  C107     1.0000 0.58670  0.81550  0.09680  Biso   1.000  C
  C108     1.0000 0.41330  0.81550  0.09680  Biso   1.000  C
  C109     1.0000 0.31550  0.58670  0.84680  Biso   1.000  C
  C110     1.0000 0.18450  0.08670  0.34680  Biso   1.000  C
  C111     1.0000 0.31550  0.41330  0.84680  Biso   1.000  C
  C112     1.0000 0.18450  0.91330  0.34680  Biso   1.000  C
  C113     1.0000 0.40480  0.24850  0.10000  Biso   1.000  C
  C114     1.0000 0.59520  0.24850  0.10000  Biso   1.000  C
  C115     1.0000 0.09520  0.25150  0.60000  Biso   1.000  C
  C116     1.0000 0.90480  0.25150  0.60000  Biso   1.000  C
  C117     1.0000 0.75150  0.09520  0.35000  Biso   1.000  C
  C118     1.0000 0.74850  0.59520  0.85000  Biso   1.000  C
  C119     1.0000 0.75150  0.90480  0.35000  Biso   1.000  C
  C120     1.0000 0.74850  0.40480  0.85000  Biso   1.000  C
  C121     1.0000 0.90480  0.74850  0.60000  Biso   1.000  C
  C122     1.0000 0.09520  0.74850  0.60000  Biso   1.000  C
  C123     1.0000 0.59520  0.75150  0.10000  Biso   1.000  C
  C124     1.0000 0.40480  0.75150  0.10000  Biso   1.000  C
  C125     1.0000 0.25150  0.59520  0.85000  Biso   1.000  C
  C126     1.0000 0.24850  0.09520  0.35000  Biso   1.000  C
  C127     1.0000 0.25150  0.40480  0.85000  Biso   1.000  C
  C128     1.0000 0.24850  0.90480  0.35000  Biso   1.000  C
  H49      1.0000 0.41380  0.27280  0.02420  Biso   1.000  H
  H50      1.0000 0.58620  0.27280  0.02420  Biso   1.000  H
  H51      1.0000 0.08620  0.22720  0.52420  Biso   1.000  H
  H52      1.0000 0.91380  0.22720  0.52420  Biso   1.000  H
  H53      1.0000 0.72720  0.08620  0.27420  Biso   1.000  H
  H54      1.0000 0.77280  0.58620  0.77420  Biso   1.000  H
  H55      1.0000 0.72720  0.91380  0.27420  Biso   1.000  H
  H56      1.0000 0.77280  0.41380  0.77420  Biso   1.000  H
  H57      1.0000 0.91380  0.77280  0.52420  Biso   1.000  H
  H58      1.0000 0.08620  0.77280  0.52420  Biso   1.000  H
  H59      1.0000 0.58620  0.72720  0.02420  Biso   1.000  H
  H60      1.0000 0.41380  0.72720  0.02420  Biso   1.000  H
  H61      1.0000 0.22720  0.58620  0.77420  Biso   1.000  H
  H62      1.0000 0.27280  0.08620  0.27420  Biso   1.000  H
  H63      1.0000 0.22720  0.41380  0.77420  Biso   1.000  H
  H64      1.0000 0.27280  0.91380  0.27420  Biso   1.000  H
  F17      1.0000 0.43294  0.15540  0.98340  Biso   1.000  F
  F18      1.0000 0.56706  0.15540  0.98340  Biso   1.000  F
  F19      1.0000 0.06706  0.34460  0.48340  Biso   1.000  F
  F20      1.0000 0.93294  0.34460  0.48340  Biso   1.000  F
  F21      1.0000 0.84460  0.06706  0.23340  Biso   1.000  F
  F22      1.0000 0.65540  0.56706  0.73340  Biso   1.000  F
  F23      1.0000 0.84460  0.93294  0.23340  Biso   1.000  F
  F24      1.0000 0.65540  0.43294  0.73340  Biso   1.000  F
  F25      1.0000 0.93294  0.65540  0.48340  Biso   1.000  F
  F26      1.0000 0.06706  0.65540  0.48340  Biso   1.000  F
  F27      1.0000 0.56706  0.84460  0.98340  Biso   1.000  F
  F28      1.0000 0.43294  0.84460  0.98340  Biso   1.000  F
  F29      1.0000 0.34460  0.56706  0.73340  Biso   1.000  F
  F30      1.0000 0.15540  0.06706  0.23340  Biso   1.000  F
  F31      1.0000 0.34460  0.43294  0.73340  Biso   1.000  F
  F32      1.0000 0.15540  0.93294  0.23340  Biso   1.000  F
  O33      1.0000 0.50000  0.50000  0.00000  Biso   1.000  O
  O34      1.0000 0.00000  0.00000  0.50000  Biso   1.000  O
  O35      1.0000 0.50000  0.00000  0.25000  Biso   1.000  O
  O36      1.0000 0.00000  0.50000  0.75000  Biso   1.000  O
  O37      1.0000 0.25960  0.30490  0.60500  Biso   1.000  O
  O38      1.0000 0.74040  0.30490  0.60500  Biso   1.000  O
  O39      1.0000 0.24040  0.19510  0.10500  Biso   1.000  O
  O40      1.0000 0.75960  0.19510  0.10500  Biso   1.000  O
  O41      1.0000 0.69510  0.24040  0.85500  Biso   1.000  O
  O42      1.0000 0.80490  0.74040  0.35500  Biso   1.000  O
  O43      1.0000 0.69510  0.75960  0.85500  Biso   1.000  O
  O44      1.0000 0.80490  0.25960  0.35500  Biso   1.000  O
  O45      1.0000 0.75960  0.80490  0.10500  Biso   1.000  O
  O46      1.0000 0.24040  0.80490  0.10500  Biso   1.000  O
  O47      1.0000 0.74040  0.69510  0.60500  Biso   1.000  O
  O48      1.0000 0.25960  0.69510  0.60500  Biso   1.000  O
  O49      1.0000 0.19510  0.74040  0.35500  Biso   1.000  O
  O50      1.0000 0.30490  0.24040  0.85500  Biso   1.000  O
  O51      1.0000 0.19510  0.25960  0.35500  Biso   1.000  O
  O52      1.0000 0.30490  0.75960  0.85500  Biso   1.000  O
