data_image0
_cell_length_a       37.829
_cell_length_b       6.9457
_cell_length_c       22.772
_cell_angle_alpha    90
_cell_angle_beta     125.607
_cell_angle_gamma    90

_symmetry_space_group_name_H-M    "P 1"
_symmetry_int_tables_number       1

loop_
  _symmetry_equiv_pos_as_xyz
  'x, y, z'

loop_
  _atom_site_label
  _atom_site_occupancy
  _atom_site_fract_x
  _atom_site_fract_y
  _atom_site_fract_z
  _atom_site_thermal_displace_type
  _atom_site_B_iso_or_equiv
  _atom_site_type_symbol
  Cu1      1.0000 0.75392  0.99618  0.99765  Biso   1.000  Cu
  Cu2      1.0000 0.25392  0.49618  0.99765  Biso   1.000  Cu
  Cu3      1.0000 0.24608  0.99618  0.50235  Biso   1.000  Cu
  Cu4      1.0000 0.74608  0.49618  0.50235  Biso   1.000  Cu
  Cu5      1.0000 0.24608  0.00382  0.00235  Biso   1.000  Cu
  Cu6      1.0000 0.74608  0.50382  0.00235  Biso   1.000  Cu
  Cu7      1.0000 0.75392  0.00382  0.49765  Biso   1.000  Cu
  Cu8      1.0000 0.25392  0.50382  0.49765  Biso   1.000  Cu
  Er1      1.0000 0.80710  0.03018  0.23411  Biso   1.000  Er
  Er2      1.0000 0.30710  0.53018  0.23411  Biso   1.000  Er
  Er3      1.0000 0.19290  0.03018  0.26589  Biso   1.000  Er
  Er4      1.0000 0.69290  0.53018  0.26589  Biso   1.000  Er
  Er5      1.0000 0.19290  0.96982  0.76589  Biso   1.000  Er
  Er6      1.0000 0.69290  0.46982  0.76589  Biso   1.000  Er
  Er7      1.0000 0.80710  0.96982  0.73411  Biso   1.000  Er
  Er8      1.0000 0.30710  0.46982  0.73411  Biso   1.000  Er
  Er9      1.0000 0.00353  0.76470  0.38941  Biso   1.000  Er
  Er10     1.0000 0.50353  0.26470  0.38941  Biso   1.000  Er
  Er11     1.0000 0.99647  0.76470  0.11059  Biso   1.000  Er
  Er12     1.0000 0.49647  0.26470  0.11059  Biso   1.000  Er
  Er13     1.0000 0.99647  0.23530  0.61059  Biso   1.000  Er
  Er14     1.0000 0.49647  0.73530  0.61059  Biso   1.000  Er
  Er15     1.0000 0.00353  0.23530  0.88941  Biso   1.000  Er
  Er16     1.0000 0.50353  0.73530  0.88941  Biso   1.000  Er
  C1       1.0000 0.66830  0.11340  0.92070  Biso   1.000  C
  C2       1.0000 0.16830  0.61340  0.92070  Biso   1.000  C
  C3       1.0000 0.33170  0.11340  0.57930  Biso   1.000  C
  C4       1.0000 0.83170  0.61340  0.57930  Biso   1.000  C
  C5       1.0000 0.33170  0.88660  0.07930  Biso   1.000  C
  C6       1.0000 0.83170  0.38660  0.07930  Biso   1.000  C
  C7       1.0000 0.66830  0.88660  0.42070  Biso   1.000  C
  C8       1.0000 0.16830  0.38660  0.42070  Biso   1.000  C
  C9       1.0000 0.68660  0.13760  0.99740  Biso   1.000  C
  C10      1.0000 0.18660  0.63760  0.99740  Biso   1.000  C
  C11      1.0000 0.31340  0.13760  0.50260  Biso   1.000  C
  C12      1.0000 0.81340  0.63760  0.50260  Biso   1.000  C
  C13      1.0000 0.31340  0.86240  0.00260  Biso   1.000  C
  C14      1.0000 0.81340  0.36240  0.00260  Biso   1.000  C
  C15      1.0000 0.68660  0.86240  0.49740  Biso   1.000  C
  C16      1.0000 0.18660  0.36240  0.49740  Biso   1.000  C
  C17      1.0000 0.67130  0.20180  0.03640  Biso   1.000  C
  C18      1.0000 0.17130  0.70180  0.03640  Biso   1.000  C
  C19      1.0000 0.32870  0.20180  0.46360  Biso   1.000  C
  C20      1.0000 0.82870  0.70180  0.46360  Biso   1.000  C
  C21      1.0000 0.32870  0.79820  0.96360  Biso   1.000  C
  C22      1.0000 0.82870  0.29820  0.96360  Biso   1.000  C
  C23      1.0000 0.67130  0.79820  0.53640  Biso   1.000  C
  C24      1.0000 0.17130  0.29820  0.53640  Biso   1.000  C
  H1       1.0000 0.64370  0.24640  0.01950  Biso   1.000  H
  H2       1.0000 0.14370  0.74640  0.01950  Biso   1.000  H
  H3       1.0000 0.35630  0.24640  0.48050  Biso   1.000  H
  H4       1.0000 0.85630  0.74640  0.48050  Biso   1.000  H
  H5       1.0000 0.35630  0.75360  0.98050  Biso   1.000  H
  H6       1.0000 0.85630  0.25360  0.98050  Biso   1.000  H
  H7       1.0000 0.64370  0.75360  0.51950  Biso   1.000  H
  H8       1.0000 0.14370  0.25360  0.51950  Biso   1.000  H
  C25      1.0000 0.70780  0.18320  0.10700  Biso   1.000  C
  C26      1.0000 0.20780  0.68320  0.10700  Biso   1.000  C
  C27      1.0000 0.29220  0.18320  0.39300  Biso   1.000  C
  C28      1.0000 0.79220  0.68320  0.39300  Biso   1.000  C
  C29      1.0000 0.29220  0.81680  0.89300  Biso   1.000  C
  C30      1.0000 0.79220  0.31680  0.89300  Biso   1.000  C
  C31      1.0000 0.70780  0.81680  0.60700  Biso   1.000  C
  C32      1.0000 0.20780  0.31680  0.60700  Biso   1.000  C
  C33      1.0000 0.71570  0.23280  0.17850  Biso   1.000  C
  C34      1.0000 0.21570  0.73280  0.17850  Biso   1.000  C
  C35      1.0000 0.28430  0.23280  0.32150  Biso   1.000  C
  C36      1.0000 0.78430  0.73280  0.32150  Biso   1.000  C
  C37      1.0000 0.28430  0.76720  0.82150  Biso   1.000  C
  C38      1.0000 0.78430  0.26720  0.82150  Biso   1.000  C
  C39      1.0000 0.71570  0.76720  0.67850  Biso   1.000  C
  C40      1.0000 0.21570  0.26720  0.67850  Biso   1.000  C
  N1       1.0000 0.72880  0.09170  0.04310  Biso   1.000  N
  N2       1.0000 0.22880  0.59170  0.04310  Biso   1.000  N
  N3       1.0000 0.27120  0.09170  0.45690  Biso   1.000  N
  N4       1.0000 0.77120  0.59170  0.45690  Biso   1.000  N
  N5       1.0000 0.27120  0.90830  0.95690  Biso   1.000  N
  N6       1.0000 0.77120  0.40830  0.95690  Biso   1.000  N
  N7       1.0000 0.72880  0.90830  0.54310  Biso   1.000  N
  N8       1.0000 0.22880  0.40830  0.54310  Biso   1.000  N
  N9       1.0000 0.74220  0.11730  0.11140  Biso   1.000  N
  N10      1.0000 0.24220  0.61730  0.11140  Biso   1.000  N
  N11      1.0000 0.25780  0.11730  0.38860  Biso   1.000  N
  N12      1.0000 0.75780  0.61730  0.38860  Biso   1.000  N
  N13      1.0000 0.25780  0.88270  0.88860  Biso   1.000  N
  N14      1.0000 0.75780  0.38270  0.88860  Biso   1.000  N
  N15      1.0000 0.74220  0.88270  0.61140  Biso   1.000  N
  N16      1.0000 0.24220  0.38270  0.61140  Biso   1.000  N
  O1       1.0000 0.69610  0.05350  0.90960  Biso   1.000  O
  O2       1.0000 0.19610  0.55350  0.90960  Biso   1.000  O
  O3       1.0000 0.30390  0.05350  0.59040  Biso   1.000  O
  O4       1.0000 0.80390  0.55350  0.59040  Biso   1.000  O
  O5       1.0000 0.30390  0.94650  0.09040  Biso   1.000  O
  O6       1.0000 0.80390  0.44650  0.09040  Biso   1.000  O
  O7       1.0000 0.69610  0.94650  0.40960  Biso   1.000  O
  O8       1.0000 0.19610  0.44650  0.40960  Biso   1.000  O
  O9       1.0000 0.63040  0.14900  0.87270  Biso   1.000  O
  O10      1.0000 0.13040  0.64900  0.87270  Biso   1.000  O
  O11      1.0000 0.36960  0.14900  0.62730  Biso   1.000  O
  O12      1.0000 0.86960  0.64900  0.62730  Biso   1.000  O
  O13      1.0000 0.36960  0.85100  0.12730  Biso   1.000  O
  O14      1.0000 0.86960  0.35100  0.12730  Biso   1.000  O
  O15      1.0000 0.63040  0.85100  0.37270  Biso   1.000  O
  O16      1.0000 0.13040  0.35100  0.37270  Biso   1.000  O
  O17      1.0000 0.75050  0.16320  0.23240  Biso   1.000  O
  O18      1.0000 0.25050  0.66320  0.23240  Biso   1.000  O
  O19      1.0000 0.24950  0.16320  0.26760  Biso   1.000  O
  O20      1.0000 0.74950  0.66320  0.26760  Biso   1.000  O
  O21      1.0000 0.24950  0.83680  0.76760  Biso   1.000  O
  O22      1.0000 0.74950  0.33680  0.76760  Biso   1.000  O
  O23      1.0000 0.75050  0.83680  0.73240  Biso   1.000  O
  O24      1.0000 0.25050  0.33680  0.73240  Biso   1.000  O
  O25      1.0000 0.68890  0.33550  0.17850  Biso   1.000  O
  O26      1.0000 0.18890  0.83550  0.17850  Biso   1.000  O
  O27      1.0000 0.31110  0.33550  0.32150  Biso   1.000  O
  O28      1.0000 0.81110  0.83550  0.32150  Biso   1.000  O
  O29      1.0000 0.31110  0.66450  0.82150  Biso   1.000  O
  O30      1.0000 0.81110  0.16450  0.82150  Biso   1.000  O
  O31      1.0000 0.68890  0.66450  0.67850  Biso   1.000  O
  O32      1.0000 0.18890  0.16450  0.67850  Biso   1.000  O
  C41      1.0000 0.82050  0.85480  0.99440  Biso   1.000  C
  C42      1.0000 0.32050  0.35480  0.99440  Biso   1.000  C
  C43      1.0000 0.17950  0.85480  0.50560  Biso   1.000  C
  C44      1.0000 0.67950  0.35480  0.50560  Biso   1.000  C
  C45      1.0000 0.17950  0.14520  0.00560  Biso   1.000  C
  C46      1.0000 0.67950  0.64520  0.00560  Biso   1.000  C
  C47      1.0000 0.82050  0.14520  0.49440  Biso   1.000  C
  C48      1.0000 0.32050  0.64520  0.49440  Biso   1.000  C
  C49      1.0000 0.83820  0.87090  0.07060  Biso   1.000  C
  C50      1.0000 0.33820  0.37090  0.07060  Biso   1.000  C
  C51      1.0000 0.16180  0.87090  0.42940  Biso   1.000  C
  C52      1.0000 0.66180  0.37090  0.42940  Biso   1.000  C
  C53      1.0000 0.16180  0.12910  0.92940  Biso   1.000  C
  C54      1.0000 0.66180  0.62910  0.92940  Biso   1.000  C
  C55      1.0000 0.83820  0.12910  0.57060  Biso   1.000  C
  C56      1.0000 0.33820  0.62910  0.57060  Biso   1.000  C
  C57      1.0000 0.87690  0.83050  0.13660  Biso   1.000  C
  C58      1.0000 0.37690  0.33050  0.13660  Biso   1.000  C
  C59      1.0000 0.12310  0.83050  0.36340  Biso   1.000  C
  C60      1.0000 0.62310  0.33050  0.36340  Biso   1.000  C
  C61      1.0000 0.12310  0.16950  0.86340  Biso   1.000  C
  C62      1.0000 0.62310  0.66950  0.86340  Biso   1.000  C
  C63      1.0000 0.87690  0.16950  0.63660  Biso   1.000  C
  C64      1.0000 0.37690  0.66950  0.63660  Biso   1.000  C
  H9       1.0000 0.90220  0.78020  0.14490  Biso   1.000  H
  H10      1.0000 0.40220  0.28020  0.14490  Biso   1.000  H
  H11      1.0000 0.09780  0.78020  0.35510  Biso   1.000  H
  H12      1.0000 0.59780  0.28020  0.35510  Biso   1.000  H
  H13      1.0000 0.09780  0.21980  0.85510  Biso   1.000  H
  H14      1.0000 0.59780  0.71980  0.85510  Biso   1.000  H
  H15      1.0000 0.90220  0.21980  0.64490  Biso   1.000  H
  H16      1.0000 0.40220  0.71980  0.64490  Biso   1.000  H
  C65      1.0000 0.86910  0.88020  0.18670  Biso   1.000  C
  C66      1.0000 0.36910  0.38020  0.18670  Biso   1.000  C
  C67      1.0000 0.13090  0.88020  0.31330  Biso   1.000  C
  C68      1.0000 0.63090  0.38020  0.31330  Biso   1.000  C
  C69      1.0000 0.13090  0.11980  0.81330  Biso   1.000  C
  C70      1.0000 0.63090  0.61980  0.81330  Biso   1.000  C
  C71      1.0000 0.86910  0.11980  0.68670  Biso   1.000  C
  C72      1.0000 0.36910  0.61980  0.68670  Biso   1.000  C
  C73      1.0000 0.89520  0.86580  0.26580  Biso   1.000  C
  C74      1.0000 0.39520  0.36580  0.26580  Biso   1.000  C
  C75      1.0000 0.10480  0.86580  0.23420  Biso   1.000  C
  C76      1.0000 0.60480  0.36580  0.23420  Biso   1.000  C
  C77      1.0000 0.10480  0.13420  0.73420  Biso   1.000  C
  C78      1.0000 0.60480  0.63420  0.73420  Biso   1.000  C
  C79      1.0000 0.89520  0.13420  0.76580  Biso   1.000  C
  C80      1.0000 0.39520  0.63420  0.76580  Biso   1.000  C
  N17      1.0000 0.81020  0.94290  0.08320  Biso   1.000  N
  N18      1.0000 0.31020  0.44290  0.08320  Biso   1.000  N
  N19      1.0000 0.18980  0.94290  0.41680  Biso   1.000  N
  N20      1.0000 0.68980  0.44290  0.41680  Biso   1.000  N
  N21      1.0000 0.18980  0.05710  0.91680  Biso   1.000  N
  N22      1.0000 0.68980  0.55710  0.91680  Biso   1.000  N
  N23      1.0000 0.81020  0.05710  0.58320  Biso   1.000  N
  N24      1.0000 0.31020  0.55710  0.58320  Biso   1.000  N
  N25      1.0000 0.82850  0.94980  0.15370  Biso   1.000  N
  N26      1.0000 0.32850  0.44980  0.15370  Biso   1.000  N
  N27      1.0000 0.17150  0.94980  0.34630  Biso   1.000  N
  N28      1.0000 0.67150  0.44980  0.34630  Biso   1.000  N
  N29      1.0000 0.17150  0.05020  0.84630  Biso   1.000  N
  N30      1.0000 0.67150  0.55020  0.84630  Biso   1.000  N
  N31      1.0000 0.82850  0.05020  0.65370  Biso   1.000  N
  N32      1.0000 0.32850  0.55020  0.65370  Biso   1.000  N
  O33      1.0000 0.77920  0.89120  0.95060  Biso   1.000  O
  O34      1.0000 0.27920  0.39120  0.95060  Biso   1.000  O
  O35      1.0000 0.22080  0.89120  0.54940  Biso   1.000  O
  O36      1.0000 0.72080  0.39120  0.54940  Biso   1.000  O
  O37      1.0000 0.22080  0.10880  0.04940  Biso   1.000  O
  O38      1.0000 0.72080  0.60880  0.04940  Biso   1.000  O
  O39      1.0000 0.77920  0.10880  0.45060  Biso   1.000  O
  O40      1.0000 0.27920  0.60880  0.45060  Biso   1.000  O
  O41      1.0000 0.84250  0.80920  0.97290  Biso   1.000  O
  O42      1.0000 0.34250  0.30920  0.97290  Biso   1.000  O
  O43      1.0000 0.15750  0.80920  0.52710  Biso   1.000  O
  O44      1.0000 0.65750  0.30920  0.52710  Biso   1.000  O
  O45      1.0000 0.15750  0.19080  0.02710  Biso   1.000  O
  O46      1.0000 0.65750  0.69080  0.02710  Biso   1.000  O
  O47      1.0000 0.84250  0.19080  0.47290  Biso   1.000  O
  O48      1.0000 0.34250  0.69080  0.47290  Biso   1.000  O
  O49      1.0000 0.87640  0.90960  0.29510  Biso   1.000  O
  O50      1.0000 0.37640  0.40960  0.29510  Biso   1.000  O
  O51      1.0000 0.12360  0.90960  0.20490  Biso   1.000  O
  O52      1.0000 0.62360  0.40960  0.20490  Biso   1.000  O
  O53      1.0000 0.12360  0.09040  0.70490  Biso   1.000  O
  O54      1.0000 0.62360  0.59040  0.70490  Biso   1.000  O
  O55      1.0000 0.87640  0.09040  0.79510  Biso   1.000  O
  O56      1.0000 0.37640  0.59040  0.79510  Biso   1.000  O
  O57      1.0000 0.93390  0.80760  0.29940  Biso   1.000  O
  O58      1.0000 0.43390  0.30760  0.29940  Biso   1.000  O
  O59      1.0000 0.06610  0.80760  0.20060  Biso   1.000  O
  O60      1.0000 0.56610  0.30760  0.20060  Biso   1.000  O
  O61      1.0000 0.06610  0.19240  0.70060  Biso   1.000  O
  O62      1.0000 0.56610  0.69240  0.70060  Biso   1.000  O
  O63      1.0000 0.93390  0.19240  0.79940  Biso   1.000  O
  O64      1.0000 0.43390  0.69240  0.79940  Biso   1.000  O
  C81      1.0000 0.00000  0.89200  0.25000  Biso   1.000  C
  C82      1.0000 0.50000  0.39200  0.25000  Biso   1.000  C
  C83      1.0000 0.00000  0.10800  0.75000  Biso   1.000  C
  C84      1.0000 0.50000  0.60800  0.75000  Biso   1.000  C
  C85      1.0000 0.00000  0.66800  0.25000  Biso   1.000  C
  C86      1.0000 0.50000  0.16800  0.25000  Biso   1.000  C
  C87      1.0000 0.00000  0.33200  0.75000  Biso   1.000  C
  C88      1.0000 0.50000  0.83200  0.75000  Biso   1.000  C
  C89      1.0000 0.99520  0.08910  0.47710  Biso   1.000  C
  C90      1.0000 0.49520  0.58910  0.47710  Biso   1.000  C
  C91      1.0000 0.00480  0.08910  0.02290  Biso   1.000  C
  C92      1.0000 0.50480  0.58910  0.02290  Biso   1.000  C
  C93      1.0000 0.00480  0.91090  0.52290  Biso   1.000  C
  C94      1.0000 0.50480  0.41090  0.52290  Biso   1.000  C
  C95      1.0000 0.99520  0.91090  0.97710  Biso   1.000  C
  C96      1.0000 0.49520  0.41090  0.97710  Biso   1.000  C
  O65      1.0000 0.77360  0.74170  0.18270  Biso   1.000  O
  O66      1.0000 0.27360  0.24170  0.18270  Biso   1.000  O
  O67      1.0000 0.22640  0.74170  0.31730  Biso   1.000  O
  O68      1.0000 0.72640  0.24170  0.31730  Biso   1.000  O
  O69      1.0000 0.22640  0.25830  0.81730  Biso   1.000  O
  O70      1.0000 0.72640  0.75830  0.81730  Biso   1.000  O
  O71      1.0000 0.77360  0.25830  0.68270  Biso   1.000  O
  O72      1.0000 0.27360  0.75830  0.68270  Biso   1.000  O
  H17      1.0000 0.76320  0.68560  0.20660  Biso   1.000  H
  H18      1.0000 0.26320  0.18560  0.20660  Biso   1.000  H
  H19      1.0000 0.23680  0.68560  0.29340  Biso   1.000  H
  H20      1.0000 0.73680  0.18560  0.29340  Biso   1.000  H
  H21      1.0000 0.23680  0.31440  0.79340  Biso   1.000  H
  H22      1.0000 0.73680  0.81440  0.79340  Biso   1.000  H
  H23      1.0000 0.76320  0.31440  0.70660  Biso   1.000  H
  H24      1.0000 0.26320  0.81440  0.70660  Biso   1.000  H
  H25      1.0000 0.74950  0.76460  0.13560  Biso   1.000  H
  H26      1.0000 0.24950  0.26460  0.13560  Biso   1.000  H
  H27      1.0000 0.25050  0.76460  0.36440  Biso   1.000  H
  H28      1.0000 0.75050  0.26460  0.36440  Biso   1.000  H
  H29      1.0000 0.25050  0.23540  0.86440  Biso   1.000  H
  H30      1.0000 0.75050  0.73540  0.86440  Biso   1.000  H
  H31      1.0000 0.74950  0.23540  0.63560  Biso   1.000  H
  H32      1.0000 0.24950  0.73540  0.63560  Biso   1.000  H
  O73      1.0000 0.84080  0.20420  0.34350  Biso   1.000  O
  O74      1.0000 0.34080  0.70420  0.34350  Biso   1.000  O
  O75      1.0000 0.15920  0.20420  0.15650  Biso   1.000  O
  O76      1.0000 0.65920  0.70420  0.15650  Biso   1.000  O
  O77      1.0000 0.15920  0.79580  0.65650  Biso   1.000  O
  O78      1.0000 0.65920  0.29580  0.65650  Biso   1.000  O
  O79      1.0000 0.84080  0.79580  0.84350  Biso   1.000  O
  O80      1.0000 0.34080  0.29580  0.84350  Biso   1.000  O
  H33      1.0000 0.83680  0.16010  0.37810  Biso   1.000  H
  H34      1.0000 0.33680  0.66010  0.37810  Biso   1.000  H
  H35      1.0000 0.16320  0.16010  0.12190  Biso   1.000  H
  H36      1.0000 0.66320  0.66010  0.12190  Biso   1.000  H
  H37      1.0000 0.16320  0.83990  0.62190  Biso   1.000  H
  H38      1.0000 0.66320  0.33990  0.62190  Biso   1.000  H
  H39      1.0000 0.83680  0.83990  0.87810  Biso   1.000  H
  H40      1.0000 0.33680  0.33990  0.87810  Biso   1.000  H
  H41      1.0000 0.86950  0.24800  0.36570  Biso   1.000  H
  H42      1.0000 0.36950  0.74800  0.36570  Biso   1.000  H
  H43      1.0000 0.13050  0.24800  0.13430  Biso   1.000  H
  H44      1.0000 0.63050  0.74800  0.13430  Biso   1.000  H
  H45      1.0000 0.13050  0.75200  0.63430  Biso   1.000  H
  H46      1.0000 0.63050  0.25200  0.63430  Biso   1.000  H
  H47      1.0000 0.86950  0.75200  0.86570  Biso   1.000  H
  H48      1.0000 0.36950  0.25200  0.86570  Biso   1.000  H
  O81      1.0000 0.82600  0.33700  0.22080  Biso   1.000  O
  O82      1.0000 0.32600  0.83700  0.22080  Biso   1.000  O
  O83      1.0000 0.17400  0.33700  0.27920  Biso   1.000  O
  O84      1.0000 0.67400  0.83700  0.27920  Biso   1.000  O
  O85      1.0000 0.17400  0.66300  0.77920  Biso   1.000  O
  O86      1.0000 0.67400  0.16300  0.77920  Biso   1.000  O
  O87      1.0000 0.82600  0.66300  0.72080  Biso   1.000  O
  O88      1.0000 0.32600  0.16300  0.72080  Biso   1.000  O
  H49      1.0000 0.80640  0.37760  0.17340  Biso   1.000  H
  H50      1.0000 0.30640  0.87760  0.17340  Biso   1.000  H
  H51      1.0000 0.19360  0.37760  0.32660  Biso   1.000  H
  H52      1.0000 0.69360  0.87760  0.32660  Biso   1.000  H
  H53      1.0000 0.19360  0.62240  0.82660  Biso   1.000  H
  H54      1.0000 0.69360  0.12240  0.82660  Biso   1.000  H
  H55      1.0000 0.80640  0.62240  0.67340  Biso   1.000  H
  H56      1.0000 0.30640  0.12240  0.67340  Biso   1.000  H
  H57      1.0000 0.85500  0.33040  0.23640  Biso   1.000  H
  H58      1.0000 0.35500  0.83040  0.23640  Biso   1.000  H
  H59      1.0000 0.14500  0.33040  0.26360  Biso   1.000  H
  H60      1.0000 0.64500  0.83040  0.26360  Biso   1.000  H
  H61      1.0000 0.14500  0.66960  0.76360  Biso   1.000  H
  H62      1.0000 0.64500  0.16960  0.76360  Biso   1.000  H
  H63      1.0000 0.85500  0.66960  0.73640  Biso   1.000  H
  H64      1.0000 0.35500  0.16960  0.73640  Biso   1.000  H
  O89      1.0000 0.00160  0.97130  0.30110  Biso   1.000  O
  O90      1.0000 0.50160  0.47130  0.30110  Biso   1.000  O
  O91      1.0000 0.99840  0.97130  0.19890  Biso   1.000  O
  O92      1.0000 0.49840  0.47130  0.19890  Biso   1.000  O
  O93      1.0000 0.99840  0.02870  0.69890  Biso   1.000  O
  O94      1.0000 0.49840  0.52870  0.69890  Biso   1.000  O
  O95      1.0000 0.00160  0.02870  0.80110  Biso   1.000  O
  O96      1.0000 0.50160  0.52870  0.80110  Biso   1.000  O
  O97      1.0000 0.00620  0.59220  0.30460  Biso   1.000  O
  O98      1.0000 0.50620  0.09220  0.30460  Biso   1.000  O
  O99      1.0000 0.99380  0.59220  0.19540  Biso   1.000  O
  O100     1.0000 0.49380  0.09220  0.19540  Biso   1.000  O
  O101     1.0000 0.99380  0.40780  0.69540  Biso   1.000  O
  O102     1.0000 0.49380  0.90780  0.69540  Biso   1.000  O
  O103     1.0000 0.00620  0.40780  0.80460  Biso   1.000  O
  O104     1.0000 0.50620  0.90780  0.80460  Biso   1.000  O
  O105     1.0000 0.99250  0.06800  0.42050  Biso   1.000  O
  O106     1.0000 0.49250  0.56800  0.42050  Biso   1.000  O
  O107     1.0000 0.00750  0.06800  0.07950  Biso   1.000  O
  O108     1.0000 0.50750  0.56800  0.07950  Biso   1.000  O
  O109     1.0000 0.00750  0.93200  0.57950  Biso   1.000  O
  O110     1.0000 0.50750  0.43200  0.57950  Biso   1.000  O
  O111     1.0000 0.99250  0.93200  0.92050  Biso   1.000  O
  O112     1.0000 0.49250  0.43200  0.92050  Biso   1.000  O
  O113     1.0000 0.99040  0.24280  0.50110  Biso   1.000  O
  O114     1.0000 0.49040  0.74280  0.50110  Biso   1.000  O
  O115     1.0000 0.00960  0.24280  0.99890  Biso   1.000  O
  O116     1.0000 0.50960  0.74280  0.99890  Biso   1.000  O
  O117     1.0000 0.00960  0.75720  0.49890  Biso   1.000  O
  O118     1.0000 0.50960  0.25720  0.49890  Biso   1.000  O
  O119     1.0000 0.99040  0.75720  0.00110  Biso   1.000  O
  O120     1.0000 0.49040  0.25720  0.00110  Biso   1.000  O
  O121     1.0000 0.96400  0.49380  0.38380  Biso   1.000  O
  O122     1.0000 0.46400  0.99380  0.38380  Biso   1.000  O
  O123     1.0000 0.03600  0.49380  0.11620  Biso   1.000  O
  O124     1.0000 0.53600  0.99380  0.11620  Biso   1.000  O
  O125     1.0000 0.03600  0.50620  0.61620  Biso   1.000  O
  O126     1.0000 0.53600  0.00620  0.61620  Biso   1.000  O
  O127     1.0000 0.96400  0.50620  0.88380  Biso   1.000  O
  O128     1.0000 0.46400  0.00620  0.88380  Biso   1.000  O
  H65      1.0000 0.98090  0.43090  0.42870  Biso   1.000  H
  H66      1.0000 0.48090  0.93090  0.42870  Biso   1.000  H
  H67      1.0000 0.01910  0.43090  0.07130  Biso   1.000  H
  H68      1.0000 0.51910  0.93090  0.07130  Biso   1.000  H
  H69      1.0000 0.01910  0.56910  0.57130  Biso   1.000  H
  H70      1.0000 0.51910  0.06910  0.57130  Biso   1.000  H
  H71      1.0000 0.98090  0.56910  0.92870  Biso   1.000  H
  H72      1.0000 0.48090  0.06910  0.92870  Biso   1.000  H
  H73      1.0000 0.95810  0.41130  0.34620  Biso   1.000  H
  H74      1.0000 0.45810  0.91130  0.34620  Biso   1.000  H
  H75      1.0000 0.04190  0.41130  0.15380  Biso   1.000  H
  H76      1.0000 0.54190  0.91130  0.15380  Biso   1.000  H
  H77      1.0000 0.04190  0.58870  0.65380  Biso   1.000  H
  H78      1.0000 0.54190  0.08870  0.65380  Biso   1.000  H
  H79      1.0000 0.95810  0.58870  0.84620  Biso   1.000  H
  H80      1.0000 0.45810  0.08870  0.84620  Biso   1.000  H
  O129     1.0000 0.05670  0.52820  0.45960  Biso   1.000  O
  O130     1.0000 0.55670  0.02820  0.45960  Biso   1.000  O
  O131     1.0000 0.94330  0.52820  0.04040  Biso   1.000  O
  O132     1.0000 0.44330  0.02820  0.04040  Biso   1.000  O
  O133     1.0000 0.94330  0.47180  0.54040  Biso   1.000  O
  O134     1.0000 0.44330  0.97180  0.54040  Biso   1.000  O
  O135     1.0000 0.05670  0.47180  0.95960  Biso   1.000  O
  O136     1.0000 0.55670  0.97180  0.95960  Biso   1.000  O
  H81      1.0000 0.07140  0.55860  0.50880  Biso   1.000  H
  H82      1.0000 0.57140  0.05860  0.50880  Biso   1.000  H
  H83      1.0000 0.92860  0.55860  0.99120  Biso   1.000  H
  H84      1.0000 0.42860  0.05860  0.99120  Biso   1.000  H
  H85      1.0000 0.92860  0.44140  0.49120  Biso   1.000  H
  H86      1.0000 0.42860  0.94140  0.49120  Biso   1.000  H
  H87      1.0000 0.07140  0.44140  0.00880  Biso   1.000  H
  H88      1.0000 0.57140  0.94140  0.00880  Biso   1.000  H
  H89      1.0000 0.07720  0.52660  0.44880  Biso   1.000  H
  H90      1.0000 0.57720  0.02660  0.44880  Biso   1.000  H
  H91      1.0000 0.92280  0.52660  0.05120  Biso   1.000  H
  H92      1.0000 0.42280  0.02660  0.05120  Biso   1.000  H
  H93      1.0000 0.92280  0.47340  0.55120  Biso   1.000  H
  H94      1.0000 0.42280  0.97340  0.55120  Biso   1.000  H
  H95      1.0000 0.07720  0.47340  0.94880  Biso   1.000  H
  H96      1.0000 0.57720  0.97340  0.94880  Biso   1.000  H
  O137     1.0000 0.07060  0.91170  0.44740  Biso   1.000  O
  O138     1.0000 0.57060  0.41170  0.44740  Biso   1.000  O
  O139     1.0000 0.92940  0.91170  0.05260  Biso   1.000  O
  O140     1.0000 0.42940  0.41170  0.05260  Biso   1.000  O
  O141     1.0000 0.92940  0.08830  0.55260  Biso   1.000  O
  O142     1.0000 0.42940  0.58830  0.55260  Biso   1.000  O
  O143     1.0000 0.07060  0.08830  0.94740  Biso   1.000  O
  O144     1.0000 0.57060  0.58830  0.94740  Biso   1.000  O
  H97      1.0000 0.08980  0.90230  0.49820  Biso   1.000  H
  H98      1.0000 0.58980  0.40230  0.49820  Biso   1.000  H
  H99      1.0000 0.91020  0.90230  0.00180  Biso   1.000  H
  H100     1.0000 0.41020  0.40230  0.00180  Biso   1.000  H
  H101     1.0000 0.91020  0.09770  0.50180  Biso   1.000  H
  H102     1.0000 0.41020  0.59770  0.50180  Biso   1.000  H
  H103     1.0000 0.08980  0.09770  0.99820  Biso   1.000  H
  H104     1.0000 0.58980  0.59770  0.99820  Biso   1.000  H
  H105     1.0000 0.08640  0.87430  0.42940  Biso   1.000  H
  H106     1.0000 0.58640  0.37430  0.42940  Biso   1.000  H
  H107     1.0000 0.91360  0.87430  0.07060  Biso   1.000  H
  H108     1.0000 0.41360  0.37430  0.07060  Biso   1.000  H
  H109     1.0000 0.91360  0.12570  0.57060  Biso   1.000  H
  H110     1.0000 0.41360  0.62570  0.57060  Biso   1.000  H
  H111     1.0000 0.08640  0.12570  0.92940  Biso   1.000  H
  H112     1.0000 0.58640  0.62570  0.92940  Biso   1.000  H
  O145     1.0000 0.93060  0.26940  0.27180  Biso   1.000  O
  O146     1.0000 0.43060  0.76940  0.27180  Biso   1.000  O
  O147     1.0000 0.06940  0.26940  0.22820  Biso   1.000  O
  O148     1.0000 0.56940  0.76940  0.22820  Biso   1.000  O
  O149     1.0000 0.06940  0.73060  0.72820  Biso   1.000  O
  O150     1.0000 0.56940  0.23060  0.72820  Biso   1.000  O
  O151     1.0000 0.93060  0.73060  0.77180  Biso   1.000  O
  O152     1.0000 0.43060  0.23060  0.77180  Biso   1.000  O
  H113     1.0000 0.91230  0.32550  0.22570  Biso   1.000  H
  H114     1.0000 0.41230  0.82550  0.22570  Biso   1.000  H
  H115     1.0000 0.08770  0.32550  0.27430  Biso   1.000  H
  H116     1.0000 0.58770  0.82550  0.27430  Biso   1.000  H
  H117     1.0000 0.08770  0.67450  0.77430  Biso   1.000  H
  H118     1.0000 0.58770  0.17450  0.77430  Biso   1.000  H
  H119     1.0000 0.91230  0.67450  0.72570  Biso   1.000  H
  H120     1.0000 0.41230  0.17450  0.72570  Biso   1.000  H
  H121     1.0000 0.95120  0.20340  0.26930  Biso   1.000  H
  H122     1.0000 0.45120  0.70340  0.26930  Biso   1.000  H
  H123     1.0000 0.04880  0.20340  0.23070  Biso   1.000  H
  H124     1.0000 0.54880  0.70340  0.23070  Biso   1.000  H
  H125     1.0000 0.04880  0.79660  0.73070  Biso   1.000  H
  H126     1.0000 0.54880  0.29660  0.73070  Biso   1.000  H
  H127     1.0000 0.95120  0.79660  0.76930  Biso   1.000  H
  H128     1.0000 0.45120  0.29660  0.76930  Biso   1.000  H
  O153     1.0000 0.89110  0.54640  0.38390  Biso   1.000  O
  O154     1.0000 0.39110  0.04640  0.38390  Biso   1.000  O
  O155     1.0000 0.10890  0.54640  0.11610  Biso   1.000  O
  O156     1.0000 0.60890  0.04640  0.11610  Biso   1.000  O
  O157     1.0000 0.10890  0.45360  0.61610  Biso   1.000  O
  O158     1.0000 0.60890  0.95360  0.61610  Biso   1.000  O
  O159     1.0000 0.89110  0.45360  0.88390  Biso   1.000  O
  O160     1.0000 0.39110  0.95360  0.88390  Biso   1.000  O
  H129     1.0000 0.90240  0.65150  0.37430  Biso   1.000  H
  H130     1.0000 0.40240  0.15150  0.37430  Biso   1.000  H
  H131     1.0000 0.09760  0.65150  0.12570  Biso   1.000  H
  H132     1.0000 0.59760  0.15150  0.12570  Biso   1.000  H
  H133     1.0000 0.09760  0.34850  0.62570  Biso   1.000  H
  H134     1.0000 0.59760  0.84850  0.62570  Biso   1.000  H
  H135     1.0000 0.90240  0.34850  0.87430  Biso   1.000  H
  H136     1.0000 0.40240  0.84850  0.87430  Biso   1.000  H
  H137     1.0000 0.86680  0.58470  0.38280  Biso   1.000  H
  H138     1.0000 0.36680  0.08470  0.38280  Biso   1.000  H
  H139     1.0000 0.13320  0.58470  0.11720  Biso   1.000  H
  H140     1.0000 0.63320  0.08470  0.11720  Biso   1.000  H
  H141     1.0000 0.13320  0.41530  0.61720  Biso   1.000  H
  H142     1.0000 0.63320  0.91530  0.61720  Biso   1.000  H
  H143     1.0000 0.86680  0.41530  0.88280  Biso   1.000  H
  H144     1.0000 0.36680  0.91530  0.88280  Biso   1.000  H
  O161     1.0000 0.06880  0.25370  0.39140  Biso   1.000  O
  O162     1.0000 0.56880  0.75370  0.39140  Biso   1.000  O
  O163     1.0000 0.93120  0.25370  0.10860  Biso   1.000  O
  O164     1.0000 0.43120  0.75370  0.10860  Biso   1.000  O
  O165     1.0000 0.93120  0.74630  0.60860  Biso   1.000  O
  O166     1.0000 0.43120  0.24630  0.60860  Biso   1.000  O
  O167     1.0000 0.06880  0.74630  0.89140  Biso   1.000  O
  O168     1.0000 0.56880  0.24630  0.89140  Biso   1.000  O
  H145     1.0000 0.08660  0.30210  0.37900  Biso   1.000  H
  H146     1.0000 0.58660  0.80210  0.37900  Biso   1.000  H
  H147     1.0000 0.91340  0.30210  0.12100  Biso   1.000  H
  H148     1.0000 0.41340  0.80210  0.12100  Biso   1.000  H
  H149     1.0000 0.91340  0.69790  0.62100  Biso   1.000  H
  H150     1.0000 0.41340  0.19790  0.62100  Biso   1.000  H
  H151     1.0000 0.08660  0.69790  0.87900  Biso   1.000  H
  H152     1.0000 0.58660  0.19790  0.87900  Biso   1.000  H
  H153     1.0000 0.04000  0.23200  0.35050  Biso   1.000  H
  H154     1.0000 0.54000  0.73200  0.35050  Biso   1.000  H
  H155     1.0000 0.96000  0.23200  0.14950  Biso   1.000  H
  H156     1.0000 0.46000  0.73200  0.14950  Biso   1.000  H
  H157     1.0000 0.96000  0.76800  0.64950  Biso   1.000  H
  H158     1.0000 0.46000  0.26800  0.64950  Biso   1.000  H
  H159     1.0000 0.04000  0.76800  0.85050  Biso   1.000  H
  H160     1.0000 0.54000  0.26800  0.85050  Biso   1.000  H
