data_image0
_cell_length_a       10.0605
_cell_length_b       10.6293
_cell_length_c       14.482
_cell_angle_alpha    102.322
_cell_angle_beta     100.43
_cell_angle_gamma    111.681

_symmetry_space_group_name_H-M    "P 1"
_symmetry_int_tables_number       1

loop_
  _symmetry_equiv_pos_as_xyz
  'x, y, z'

loop_
  _atom_site_label
  _atom_site_occupancy
  _atom_site_fract_x
  _atom_site_fract_y
  _atom_site_fract_z
  _atom_site_thermal_displace_type
  _atom_site_B_iso_or_equiv
  _atom_site_type_symbol
  Cu1      1.0000 0.48970  0.76351  0.45531  Biso   1.000  Cu
  Cu2      1.0000 0.51030  0.23649  0.54469  Biso   1.000  Cu
  Cu3      1.0000 0.64988  0.84109  0.89729  Biso   1.000  Cu
  Cu4      1.0000 0.35012  0.15891  0.10271  Biso   1.000  Cu
  O1       1.0000 0.63480  0.92080  0.56250  Biso   1.000  O
  O2       1.0000 0.36520  0.07920  0.43750  Biso   1.000  O
  O3       1.0000 0.33720  0.83080  0.42760  Biso   1.000  O
  O4       1.0000 0.66280  0.16920  0.57240  Biso   1.000  O
  O5       1.0000 0.80730  0.12650  0.71060  Biso   1.000  O
  O6       1.0000 0.19270  0.87350  0.28940  Biso   1.000  O
  O7       1.0000 0.53100  0.04600  0.68150  Biso   1.000  O
  O8       1.0000 0.46900  0.95400  0.31850  Biso   1.000  O
  O9       1.0000 0.97630  0.23390  0.90730  Biso   1.000  O
  O10      1.0000 0.02370  0.76610  0.09270  Biso   1.000  O
  O11      1.0000 0.79450  0.95670  0.84390  Biso   1.000  O
  O12      1.0000 0.20550  0.04330  0.15610  Biso   1.000  O
  O13      1.0000 0.75210  0.96990  0.05650  Biso   1.000  O
  O14      1.0000 0.24790  0.03010  0.94350  Biso   1.000  O
  O15      1.0000 0.53290  0.94290  0.84790  Biso   1.000  O
  O16      1.0000 0.46710  0.05710  0.15210  Biso   1.000  O
  O17      1.0000 0.39670  0.75750  0.66800  Biso   1.000  O
  O18      1.0000 0.60330  0.24250  0.33200  Biso   1.000  O
  O19      1.0000 0.25870  0.92120  0.74670  Biso   1.000  O
  O20      1.0000 0.74130  0.07880  0.25330  Biso   1.000  O
  O21      1.0000 0.05300  0.04970  0.78620  Biso   1.000  O
  O22      1.0000 0.94700  0.95030  0.21380  Biso   1.000  O
  O23      1.0000 0.36300  0.21230  0.84760  Biso   1.000  O
  O24      1.0000 0.63700  0.78770  0.15240  Biso   1.000  O
  N1       1.0000 0.34610  0.56110  0.41570  Biso   1.000  N
  N2       1.0000 0.65390  0.43890  0.58430  Biso   1.000  N
  N3       1.0000 0.51540  0.47120  0.36890  Biso   1.000  N
  N4       1.0000 0.48460  0.52880  0.63110  Biso   1.000  N
  H1       1.0000 0.52520  0.39340  0.35060  Biso   1.000  H
  H2       1.0000 0.47480  0.60660  0.64940  Biso   1.000  H
  N5       1.0000 0.64480  0.71970  0.40870  Biso   1.000  N
  N6       1.0000 0.35520  0.28030  0.59130  Biso   1.000  N
  N7       1.0000 0.72970  0.69240  0.87950  Biso   1.000  N
  N8       1.0000 0.27030  0.30760  0.12050  Biso   1.000  N
  N9       1.0000 0.49810  0.50220  0.86410  Biso   1.000  N
  N10      1.0000 0.50190  0.49780  0.13590  Biso   1.000  N
  H3       1.0000 0.44850  0.41140  0.84100  Biso   1.000  H
  H4       1.0000 0.55150  0.58860  0.15900  Biso   1.000  H
  N11      1.0000 0.47400  0.71450  0.92600  Biso   1.000  N
  N12      1.0000 0.52600  0.28550  0.07400  Biso   1.000  N
  H5       1.0000 0.44480  0.23580  0.08530  Biso   1.000  H
  H6       1.0000 0.55520  0.76420  0.91470  Biso   1.000  H
  H7       1.0000 0.06610  0.19250  0.36170  Biso   1.000  H
  H8       1.0000 0.93390  0.80750  0.63830  Biso   1.000  H
  H9       1.0000 0.00990  0.38650  0.41730  Biso   1.000  H
  H10      1.0000 0.99010  0.61350  0.58270  Biso   1.000  H
  H11      1.0000 0.18500  0.60990  0.44850  Biso   1.000  H
  H12      1.0000 0.81500  0.39010  0.55150  Biso   1.000  H
  H13      1.0000 0.75510  0.48010  0.32750  Biso   1.000  H
  H14      1.0000 0.24490  0.51990  0.67250  Biso   1.000  H
  H15      1.0000 0.96310  0.67660  0.33750  Biso   1.000  H
  H16      1.0000 0.03690  0.32340  0.66250  Biso   1.000  H
  H17      1.0000 0.97290  0.90310  0.39600  Biso   1.000  H
  H18      1.0000 0.02710  0.09690  0.60400  Biso   1.000  H
  H19      1.0000 0.77170  0.92230  0.43450  Biso   1.000  H
  H20      1.0000 0.22830  0.07770  0.56550  Biso   1.000  H
  H21      1.0000 0.62920  0.35340  0.80460  Biso   1.000  H
  H22      1.0000 0.37080  0.64660  0.19540  Biso   1.000  H
  H23      1.0000 0.87010  0.42450  0.78970  Biso   1.000  H
  H24      1.0000 0.12990  0.57550  0.21030  Biso   1.000  H
  H25      1.0000 0.02650  0.67390  0.84150  Biso   1.000  H
  H26      1.0000 0.97350  0.32610  0.15850  Biso   1.000  H
  H27      1.0000 0.93350  0.82810  0.89520  Biso   1.000  H
  H28      1.0000 0.06650  0.17190  0.10480  Biso   1.000  H
  H29      1.0000 0.24660  0.39010  0.89700  Biso   1.000  H
  H30      1.0000 0.75340  0.60990  0.10300  Biso   1.000  H
  H31      1.0000 0.11260  0.50530  0.96620  Biso   1.000  H
  H32      1.0000 0.88740  0.49470  0.03380  Biso   1.000  H
  H33      1.0000 0.21560  0.74880  0.01670  Biso   1.000  H
  H34      1.0000 0.78440  0.25120  0.98330  Biso   1.000  H
  H35      1.0000 0.43090  0.87710  0.98540  Biso   1.000  H
  H36      1.0000 0.56910  0.12290  0.01460  Biso   1.000  H
  C1       1.0000 0.37750  0.45020  0.38500  Biso   1.000  C
  C2       1.0000 0.62250  0.54980  0.61500  Biso   1.000  C
  C3       1.0000 0.27180  0.31090  0.36510  Biso   1.000  C
  C4       1.0000 0.72820  0.68910  0.63490  Biso   1.000  C
  C5       1.0000 0.13650  0.28520  0.37540  Biso   1.000  C
  C6       1.0000 0.86350  0.71480  0.62460  Biso   1.000  C
  C7       1.0000 0.10270  0.40120  0.40860  Biso   1.000  C
  C8       1.0000 0.89730  0.59880  0.59140  Biso   1.000  C
  C9       1.0000 0.20740  0.53390  0.42750  Biso   1.000  C
  C10      1.0000 0.79260  0.46610  0.57250  Biso   1.000  C
  C11      1.0000 0.63890  0.58970  0.37620  Biso   1.000  C
  C12      1.0000 0.36110  0.41030  0.62380  Biso   1.000  C
  C13      1.0000 0.75860  0.57080  0.34930  Biso   1.000  C
  C14      1.0000 0.24140  0.42920  0.65070  Biso   1.000  C
  C15      1.0000 0.88230  0.68750  0.35560  Biso   1.000  C
  C16      1.0000 0.11770  0.31250  0.64440  Biso   1.000  C
  C17      1.0000 0.88780  0.82170  0.38900  Biso   1.000  C
  C18      1.0000 0.11220  0.17830  0.61100  Biso   1.000  C
  C19      1.0000 0.76800  0.83180  0.41310  Biso   1.000  C
  C20      1.0000 0.23200  0.16820  0.58690  Biso   1.000  C
  C21      1.0000 0.64180  0.55170  0.85590  Biso   1.000  C
  C22      1.0000 0.35820  0.44830  0.14410  Biso   1.000  C
  C23      1.0000 0.69270  0.44940  0.82210  Biso   1.000  C
  C24      1.0000 0.30730  0.55060  0.17790  Biso   1.000  C
  C25      1.0000 0.83600  0.49140  0.81380  Biso   1.000  C
  C26      1.0000 0.16400  0.50860  0.18620  Biso   1.000  C
  C27      1.0000 0.92880  0.64010  0.84380  Biso   1.000  C
  C28      1.0000 0.07120  0.35990  0.15620  Biso   1.000  C
  C29      1.0000 0.87180  0.73120  0.87510  Biso   1.000  C
  C30      1.0000 0.12820  0.26880  0.12490  Biso   1.000  C
  C31      1.0000 0.42160  0.57130  0.90190  Biso   1.000  C
  C32      1.0000 0.57840  0.42870  0.09810  Biso   1.000  C
  C33      1.0000 0.28450  0.48880  0.91560  Biso   1.000  C
  C34      1.0000 0.71550  0.51120  0.08440  Biso   1.000  C
  C35      1.0000 0.20550  0.55730  0.95790  Biso   1.000  C
  C36      1.0000 0.79450  0.44270  0.04210  Biso   1.000  C
  C37      1.0000 0.26550  0.70180  0.98550  Biso   1.000  C
  C38      1.0000 0.73450  0.29820  0.01450  Biso   1.000  C
  C39      1.0000 0.39560  0.77860  0.96850  Biso   1.000  C
  C40      1.0000 0.60440  0.22140  0.03150  Biso   1.000  C
  V1       1.0000 0.65670  0.06360  0.62852  Biso   1.000  V
  V2       1.0000 0.34330  0.93640  0.37148  Biso   1.000  V
  V3       1.0000 0.90835  0.09144  0.81615  Biso   1.000  V
  V4       1.0000 0.09165  0.90856  0.18385  Biso   1.000  V
  V5       1.0000 0.42672  0.91279  0.73689  Biso   1.000  V
  V6       1.0000 0.57328  0.08721  0.26311  Biso   1.000  V
  V7       1.0000 0.23496  0.05737  0.83561  Biso   1.000  V
  V8       1.0000 0.76504  0.94263  0.16439  Biso   1.000  V
