data_image0
_cell_length_a       7.231
_cell_length_b       10.633
_cell_length_c       15.767
_cell_angle_alpha    90
_cell_angle_beta     103.94
_cell_angle_gamma    90

_symmetry_space_group_name_H-M    "P 1"
_symmetry_int_tables_number       1

loop_
  _symmetry_equiv_pos_as_xyz
  'x, y, z'

loop_
  _atom_site_label
  _atom_site_occupancy
  _atom_site_fract_x
  _atom_site_fract_y
  _atom_site_fract_z
  _atom_site_thermal_displace_type
  _atom_site_B_iso_or_equiv
  _atom_site_type_symbol
  Cu1      1.0000 0.00000  0.00000  0.00000  Biso   1.000  Cu
  Cu2      1.0000 0.00000  0.50000  0.50000  Biso   1.000  Cu
  O1       1.0000 0.22630  0.10290  0.04570  Biso   1.000  O
  O2       1.0000 0.77370  0.60290  0.45430  Biso   1.000  O
  O3       1.0000 0.77370  0.89710  0.95430  Biso   1.000  O
  O4       1.0000 0.22630  0.39710  0.54570  Biso   1.000  O
  O5       1.0000 0.84970  0.08630  0.07030  Biso   1.000  O
  O6       1.0000 0.15030  0.58630  0.42970  Biso   1.000  O
  O7       1.0000 0.15030  0.91370  0.92970  Biso   1.000  O
  O8       1.0000 0.84970  0.41370  0.57030  Biso   1.000  O
  O9       1.0000 0.87040  0.11490  0.86400  Biso   1.000  O
  O10      1.0000 0.12960  0.61490  0.63600  Biso   1.000  O
  O11      1.0000 0.12960  0.88510  0.13600  Biso   1.000  O
  O12      1.0000 0.87040  0.38510  0.36400  Biso   1.000  O
  H1       1.0000 0.97040  0.03780  0.87760  Biso   1.000  H
  H2       1.0000 0.02960  0.53780  0.62240  Biso   1.000  H
  H3       1.0000 0.02960  0.96220  0.12240  Biso   1.000  H
  H4       1.0000 0.97040  0.46220  0.37760  Biso   1.000  H
  H5       1.0000 0.88920  0.16580  0.80740  Biso   1.000  H
  H6       1.0000 0.11080  0.66580  0.69260  Biso   1.000  H
  H7       1.0000 0.11080  0.83420  0.19260  Biso   1.000  H
  H8       1.0000 0.88920  0.33420  0.30740  Biso   1.000  H
  N1       1.0000 0.43790  0.25310  0.10170  Biso   1.000  N
  N2       1.0000 0.56210  0.75310  0.39830  Biso   1.000  N
  N3       1.0000 0.56210  0.74690  0.89830  Biso   1.000  N
  N4       1.0000 0.43790  0.24690  0.60170  Biso   1.000  N
  N5       1.0000 0.61780  0.18690  0.97070  Biso   1.000  N
  N6       1.0000 0.38220  0.68690  0.52930  Biso   1.000  N
  N7       1.0000 0.38220  0.81310  0.02930  Biso   1.000  N
  N8       1.0000 0.61780  0.31310  0.47070  Biso   1.000  N
  H9       1.0000 0.67370  0.14760  0.92410  Biso   1.000  H
  H10      1.0000 0.32630  0.64760  0.57590  Biso   1.000  H
  H11      1.0000 0.32630  0.85240  0.07590  Biso   1.000  H
  H12      1.0000 0.67370  0.35240  0.42410  Biso   1.000  H
  H13      1.0000 0.47510  0.19000  0.94680  Biso   1.000  H
  H14      1.0000 0.52490  0.69000  0.55320  Biso   1.000  H
  H15      1.0000 0.52490  0.81000  0.05320  Biso   1.000  H
  H16      1.0000 0.47510  0.31000  0.44680  Biso   1.000  H
  C1       1.0000 0.25930  0.21340  0.06890  Biso   1.000  C
  C2       1.0000 0.74070  0.71340  0.43110  Biso   1.000  C
  C3       1.0000 0.74070  0.78660  0.93110  Biso   1.000  C
  C4       1.0000 0.25930  0.28660  0.56890  Biso   1.000  C
  C5       1.0000 0.12220  0.32030  0.06660  Biso   1.000  C
  C6       1.0000 0.87780  0.82030  0.43340  Biso   1.000  C
  C7       1.0000 0.87780  0.67970  0.93340  Biso   1.000  C
  C8       1.0000 0.12220  0.17970  0.56660  Biso   1.000  C
  H17      1.0000 0.04000  0.30970  0.10860  Biso   1.000  H
  H18      1.0000 0.96000  0.80970  0.39140  Biso   1.000  H
  H19      1.0000 0.96000  0.69030  0.89140  Biso   1.000  H
  H20      1.0000 0.04000  0.19030  0.60860  Biso   1.000  H
  H21      1.0000 0.00600  0.32260  0.01000  Biso   1.000  H
  H22      1.0000 0.99400  0.82260  0.49000  Biso   1.000  H
  H23      1.0000 0.99400  0.67740  0.99000  Biso   1.000  H
  H24      1.0000 0.00600  0.17740  0.51000  Biso   1.000  H
  C9       1.0000 0.25210  0.43550  0.09120  Biso   1.000  C
  C10      1.0000 0.74790  0.93550  0.40880  Biso   1.000  C
  C11      1.0000 0.74790  0.56450  0.90880  Biso   1.000  C
  C12      1.0000 0.25210  0.06450  0.59120  Biso   1.000  C
  H25      1.0000 0.20520  0.49190  0.13910  Biso   1.000  H
  H26      1.0000 0.79480  0.99190  0.36090  Biso   1.000  H
  H27      1.0000 0.79480  0.50810  0.86090  Biso   1.000  H
  H28      1.0000 0.20520  0.00810  0.63910  Biso   1.000  H
  H29      1.0000 0.25040  0.49170  0.03400  Biso   1.000  H
  H30      1.0000 0.74960  0.99170  0.46600  Biso   1.000  H
  H31      1.0000 0.74960  0.50830  0.96600  Biso   1.000  H
  H32      1.0000 0.25040  0.00830  0.53400  Biso   1.000  H
  C13      1.0000 0.44500  0.38610  0.12890  Biso   1.000  C
  C14      1.0000 0.55500  0.88610  0.37110  Biso   1.000  C
  C15      1.0000 0.55500  0.61390  0.87110  Biso   1.000  C
  C16      1.0000 0.44500  0.11390  0.62890  Biso   1.000  C
  H33      1.0000 0.48370  0.39380  0.19920  Biso   1.000  H
  H34      1.0000 0.51630  0.89380  0.30080  Biso   1.000  H
  H35      1.0000 0.51630  0.60620  0.80080  Biso   1.000  H
  H36      1.0000 0.48370  0.10620  0.69920  Biso   1.000  H
  H37      1.0000 0.55130  0.43650  0.10290  Biso   1.000  H
  H38      1.0000 0.44870  0.93650  0.39710  Biso   1.000  H
  H39      1.0000 0.44870  0.56350  0.89710  Biso   1.000  H
  H40      1.0000 0.55130  0.06350  0.60290  Biso   1.000  H
  C17      1.0000 0.59680  0.16910  0.12220  Biso   1.000  C
  C18      1.0000 0.40320  0.66910  0.37780  Biso   1.000  C
  C19      1.0000 0.40320  0.83090  0.87780  Biso   1.000  C
  C20      1.0000 0.59680  0.33090  0.62220  Biso   1.000  C
  H41      1.0000 0.53170  0.10450  0.12760  Biso   1.000  H
  H42      1.0000 0.46830  0.60450  0.37240  Biso   1.000  H
  H43      1.0000 0.46830  0.89550  0.87240  Biso   1.000  H
  H44      1.0000 0.53170  0.39550  0.62760  Biso   1.000  H
  H45      1.0000 0.68550  0.17430  0.17900  Biso   1.000  H
  H46      1.0000 0.31450  0.67430  0.32100  Biso   1.000  H
  H47      1.0000 0.31450  0.82570  0.82100  Biso   1.000  H
  H48      1.0000 0.68550  0.32570  0.67900  Biso   1.000  H
  C21      1.0000 0.69690  0.14470  0.05020  Biso   1.000  C
  C22      1.0000 0.30310  0.64470  0.44980  Biso   1.000  C
  C23      1.0000 0.30310  0.85530  0.94980  Biso   1.000  C
  C24      1.0000 0.69690  0.35530  0.55020  Biso   1.000  C
  Cl1      1.0000 0.78940  0.65900  0.19210  Biso   1.000  Cl
  Cl2      1.0000 0.21060  0.15900  0.30790  Biso   1.000  Cl
  Cl3      1.0000 0.21060  0.34100  0.80790  Biso   1.000  Cl
  Cl4      1.0000 0.78940  0.84100  0.69210  Biso   1.000  Cl
  O13      1.0000 0.71890  0.65660  0.10460  Biso   1.000  O
  O14      1.0000 0.28110  0.15660  0.39540  Biso   1.000  O
  O15      1.0000 0.28110  0.34340  0.89540  Biso   1.000  O
  O16      1.0000 0.71890  0.84340  0.60460  Biso   1.000  O
  O17      1.0000 0.68590  0.61380  0.24310  Biso   1.000  O
  O18      1.0000 0.31410  0.11380  0.25690  Biso   1.000  O
  O19      1.0000 0.31410  0.38620  0.75690  Biso   1.000  O
  O20      1.0000 0.68590  0.88620  0.74310  Biso   1.000  O
  O21      1.0000 0.93490  0.60610  0.20760  Biso   1.000  O
  O22      1.0000 0.06510  0.10610  0.29240  Biso   1.000  O
  O23      1.0000 0.06510  0.39390  0.79240  Biso   1.000  O
  O24      1.0000 0.93490  0.89390  0.70760  Biso   1.000  O
  O25      1.0000 0.85340  0.76870  0.21810  Biso   1.000  O
  O26      1.0000 0.14660  0.26870  0.28190  Biso   1.000  O
  O27      1.0000 0.14660  0.23130  0.78190  Biso   1.000  O
  O28      1.0000 0.85340  0.73130  0.71810  Biso   1.000  O
