data_image0
_cell_length_a       12.3898
_cell_length_b       8.0417
_cell_length_c       19.3665
_cell_angle_alpha    90
_cell_angle_beta     108.163
_cell_angle_gamma    90

_symmetry_space_group_name_H-M    "P 1"
_symmetry_int_tables_number       1

loop_
  _symmetry_equiv_pos_as_xyz
  'x, y, z'

loop_
  _atom_site_label
  _atom_site_occupancy
  _atom_site_fract_x
  _atom_site_fract_y
  _atom_site_fract_z
  _atom_site_thermal_displace_type
  _atom_site_B_iso_or_equiv
  _atom_site_type_symbol
  C1       1.0000 0.19310  0.75040  0.68560  Biso   1.000  C
  C2       1.0000 0.80690  0.25040  0.81440  Biso   1.000  C
  C3       1.0000 0.80690  0.24960  0.31440  Biso   1.000  C
  C4       1.0000 0.19310  0.74960  0.18560  Biso   1.000  C
  C5       1.0000 0.25860  0.60960  0.68940  Biso   1.000  C
  C6       1.0000 0.74140  0.10960  0.81060  Biso   1.000  C
  C7       1.0000 0.74140  0.39040  0.31060  Biso   1.000  C
  C8       1.0000 0.25860  0.89040  0.18940  Biso   1.000  C
  C9       1.0000 0.36290  0.60200  0.73940  Biso   1.000  C
  C10      1.0000 0.63710  0.10200  0.76060  Biso   1.000  C
  C11      1.0000 0.63710  0.39800  0.26060  Biso   1.000  C
  C12      1.0000 0.36290  0.89800  0.23940  Biso   1.000  C
  C13      1.0000 0.40140  0.73520  0.78510  Biso   1.000  C
  C14      1.0000 0.59860  0.23520  0.71490  Biso   1.000  C
  C15      1.0000 0.59860  0.26480  0.21490  Biso   1.000  C
  C16      1.0000 0.40140  0.76480  0.28510  Biso   1.000  C
  C17      1.0000 0.33290  0.87370  0.77980  Biso   1.000  C
  C18      1.0000 0.66710  0.37370  0.72020  Biso   1.000  C
  C19      1.0000 0.66710  0.12630  0.22020  Biso   1.000  C
  C20      1.0000 0.33290  0.62630  0.27980  Biso   1.000  C
  C21      1.0000 0.36490  0.02250  0.82677  Biso   1.000  C
  C22      1.0000 0.63510  0.52250  0.67323  Biso   1.000  C
  C23      1.0000 0.63510  0.97750  0.17323  Biso   1.000  C
  C24      1.0000 0.36490  0.47750  0.32677  Biso   1.000  C
  C25      1.0000 0.46640  0.04260  0.88220  Biso   1.000  C
  C26      1.0000 0.53360  0.54260  0.61780  Biso   1.000  C
  C27      1.0000 0.53360  0.95740  0.11780  Biso   1.000  C
  C28      1.0000 0.46640  0.45740  0.38220  Biso   1.000  C
  C29      1.0000 0.48550  0.18660  0.92140  Biso   1.000  C
  C30      1.0000 0.51450  0.68660  0.57860  Biso   1.000  C
  C31      1.0000 0.51450  0.81340  0.07860  Biso   1.000  C
  C32      1.0000 0.48550  0.31340  0.42140  Biso   1.000  C
  C33      1.0000 0.40660  0.31060  0.90510  Biso   1.000  C
  C34      1.0000 0.59340  0.81060  0.59490  Biso   1.000  C
  C35      1.0000 0.59340  0.68940  0.09490  Biso   1.000  C
  C36      1.0000 0.40660  0.18940  0.40510  Biso   1.000  C
  C37      1.0000 0.30710  0.28400  0.85060  Biso   1.000  C
  C38      1.0000 0.69290  0.78400  0.64940  Biso   1.000  C
  C39      1.0000 0.69290  0.71600  0.14940  Biso   1.000  C
  C40      1.0000 0.30710  0.21600  0.35060  Biso   1.000  C
  C41      1.0000 0.98570  0.33970  0.68572  Biso   1.000  C
  C42      1.0000 0.01430  0.83970  0.81428  Biso   1.000  C
  C43      1.0000 0.01430  0.66030  0.31428  Biso   1.000  C
  C44      1.0000 0.98570  0.16030  0.18572  Biso   1.000  C
  C45      1.0000 0.94760  0.21600  0.62301  Biso   1.000  C
  C46      1.0000 0.05240  0.71600  0.87699  Biso   1.000  C
  C47      1.0000 0.05240  0.78400  0.37699  Biso   1.000  C
  C48      1.0000 0.94760  0.28400  0.12301  Biso   1.000  C
  C49      1.0000 0.93940  0.29990  0.54973  Biso   1.000  C
  C50      1.0000 0.06060  0.79990  0.95027  Biso   1.000  C
  C51      1.0000 0.06060  0.70010  0.45027  Biso   1.000  C
  C52      1.0000 0.93940  0.20010  0.04973  Biso   1.000  C
  C53      1.0000 0.81240  0.31160  0.53200  Biso   1.000  C
  C54      1.0000 0.18760  0.81160  0.96800  Biso   1.000  C
  C55      1.0000 0.18760  0.68840  0.46800  Biso   1.000  C
  C56      1.0000 0.81240  0.18840  0.03200  Biso   1.000  C
  C57      1.0000 0.81790  0.19140  0.59350  Biso   1.000  C
  C58      1.0000 0.18210  0.69140  0.90650  Biso   1.000  C
  C59      1.0000 0.18210  0.80860  0.40650  Biso   1.000  C
  C60      1.0000 0.81790  0.30860  0.09350  Biso   1.000  C
  N1       1.0000 0.22950  0.87970  0.73012  Biso   1.000  N
  N2       1.0000 0.77050  0.37970  0.76988  Biso   1.000  N
  N3       1.0000 0.77050  0.12030  0.26988  Biso   1.000  N
  N4       1.0000 0.22950  0.62030  0.23012  Biso   1.000  N
  N5       1.0000 0.28590  0.14350  0.81216  Biso   1.000  N
  N6       1.0000 0.71410  0.64350  0.68784  Biso   1.000  N
  N7       1.0000 0.71410  0.85650  0.18784  Biso   1.000  N
  N8       1.0000 0.28590  0.35650  0.31216  Biso   1.000  N
  N9       1.0000 0.01940  0.06560  0.64125  Biso   1.000  N
  N10      1.0000 0.98060  0.56560  0.85875  Biso   1.000  N
  N11      1.0000 0.98060  0.93440  0.35875  Biso   1.000  N
  N12      1.0000 0.01940  0.43440  0.14125  Biso   1.000  N
  H1       1.0000 0.04860  0.04420  0.60510  Biso   1.000  H
  H2       1.0000 0.95140  0.54420  0.89490  Biso   1.000  H
  H3       1.0000 0.95140  0.95580  0.39490  Biso   1.000  H
  H4       1.0000 0.04860  0.45580  0.10510  Biso   1.000  H
  H5       1.0000 0.97610  0.97820  0.64490  Biso   1.000  H
  H6       1.0000 0.02390  0.47820  0.85510  Biso   1.000  H
  H7       1.0000 0.02390  0.02180  0.35510  Biso   1.000  H
  H8       1.0000 0.97610  0.52180  0.14490  Biso   1.000  H
  O1       1.0000 0.07360  0.30440  0.73789  Biso   1.000  O
  O2       1.0000 0.92640  0.80440  0.76211  Biso   1.000  O
  O3       1.0000 0.92640  0.69560  0.26211  Biso   1.000  O
  O4       1.0000 0.07360  0.19560  0.23789  Biso   1.000  O
  O5       1.0000 0.93010  0.46890  0.68284  Biso   1.000  O
  O6       1.0000 0.06990  0.96890  0.81716  Biso   1.000  O
  O7       1.0000 0.06990  0.53110  0.31716  Biso   1.000  O
  O8       1.0000 0.93010  0.03110  0.18284  Biso   1.000  O
  Cu1      1.0000 0.14374  0.09060  0.73271  Biso   1.000  Cu
  Cu2      1.0000 0.85626  0.59060  0.76729  Biso   1.000  Cu
  Cu3      1.0000 0.85626  0.90940  0.26729  Biso   1.000  Cu
  Cu4      1.0000 0.14374  0.40940  0.23271  Biso   1.000  Cu
  H9       1.0000 0.11300  0.75400  0.65000  Biso   1.000  H
  H10      1.0000 0.88700  0.25400  0.85000  Biso   1.000  H
  H11      1.0000 0.88700  0.24600  0.35000  Biso   1.000  H
  H12      1.0000 0.11300  0.74600  0.15000  Biso   1.000  H
  H13      1.0000 0.22500  0.52200  0.66100  Biso   1.000  H
  H14      1.0000 0.77500  0.02200  0.83900  Biso   1.000  H
  H15      1.0000 0.77500  0.47800  0.33900  Biso   1.000  H
  H16      1.0000 0.22500  0.97800  0.16100  Biso   1.000  H
  H17      1.0000 0.41600  0.51100  0.74700  Biso   1.000  H
  H18      1.0000 0.58400  0.01100  0.75300  Biso   1.000  H
  H19      1.0000 0.58400  0.48900  0.25300  Biso   1.000  H
  H20      1.0000 0.41600  0.98900  0.24700  Biso   1.000  H
  H21      1.0000 0.46500  0.73200  0.81200  Biso   1.000  H
  H22      1.0000 0.53500  0.23200  0.68800  Biso   1.000  H
  H23      1.0000 0.53500  0.26800  0.18800  Biso   1.000  H
  H24      1.0000 0.46500  0.76800  0.31200  Biso   1.000  H
  H25      1.0000 0.51000  0.96200  0.88900  Biso   1.000  H
  H26      1.0000 0.49000  0.46200  0.61100  Biso   1.000  H
  H27      1.0000 0.49000  0.03800  0.11100  Biso   1.000  H
  H28      1.0000 0.51000  0.53800  0.38900  Biso   1.000  H
  H29      1.0000 0.54800  0.19300  0.95000  Biso   1.000  H
  H30      1.0000 0.45200  0.69300  0.55000  Biso   1.000  H
  H31      1.0000 0.45200  0.80700  0.05000  Biso   1.000  H
  H32      1.0000 0.54800  0.30700  0.45000  Biso   1.000  H
  H33      1.0000 0.41800  0.40200  0.93300  Biso   1.000  H
  H34      1.0000 0.58200  0.90200  0.56700  Biso   1.000  H
  H35      1.0000 0.58200  0.59800  0.06700  Biso   1.000  H
  H36      1.0000 0.41800  0.09800  0.43300  Biso   1.000  H
  H37      1.0000 0.25400  0.36500  0.83800  Biso   1.000  H
  H38      1.0000 0.74600  0.86500  0.66200  Biso   1.000  H
  H39      1.0000 0.74600  0.63500  0.16200  Biso   1.000  H
  H40      1.0000 0.25400  0.13500  0.33800  Biso   1.000  H
  H41      1.0000 0.95800  0.23000  0.52200  Biso   1.000  H
  H42      1.0000 0.04200  0.73000  0.97800  Biso   1.000  H
  H43      1.0000 0.04200  0.77000  0.47800  Biso   1.000  H
  H44      1.0000 0.95800  0.27000  0.02200  Biso   1.000  H
  H45      1.0000 0.98600  0.39300  0.55600  Biso   1.000  H
  H46      1.0000 0.01400  0.89300  0.94400  Biso   1.000  H
  H47      1.0000 0.01400  0.60700  0.44400  Biso   1.000  H
  H48      1.0000 0.98600  0.10700  0.05600  Biso   1.000  H
  H49      1.0000 0.76400  0.27300  0.48300  Biso   1.000  H
  H50      1.0000 0.23600  0.77300  0.01700  Biso   1.000  H
  H51      1.0000 0.23600  0.72700  0.51700  Biso   1.000  H
  H52      1.0000 0.76400  0.22700  0.98300  Biso   1.000  H
  H53      1.0000 0.78700  0.41600  0.54200  Biso   1.000  H
  H54      1.0000 0.21300  0.91600  0.95800  Biso   1.000  H
  H55      1.0000 0.21300  0.58400  0.45800  Biso   1.000  H
  H56      1.0000 0.78700  0.08400  0.04200  Biso   1.000  H
  H57      1.0000 0.79700  0.06900  0.57700  Biso   1.000  H
  H58      1.0000 0.20300  0.56900  0.92300  Biso   1.000  H
  H59      1.0000 0.20300  0.93100  0.42300  Biso   1.000  H
  H60      1.0000 0.79700  0.43100  0.07700  Biso   1.000  H
  H61      1.0000 0.78300  0.21600  0.62400  Biso   1.000  H
  H62      1.0000 0.21700  0.71600  0.87600  Biso   1.000  H
  H63      1.0000 0.21700  0.78400  0.37600  Biso   1.000  H
  H64      1.0000 0.78300  0.28400  0.12400  Biso   1.000  H
  O9       1.0000 0.18580  0.05440  0.55382  Biso   1.000  O
  O10      1.0000 0.81420  0.55440  0.94618  Biso   1.000  O
  O11      1.0000 0.81420  0.94560  0.44618  Biso   1.000  O
  O12      1.0000 0.18580  0.44560  0.05382  Biso   1.000  O
  O13      1.0000 0.28730  0.28710  0.54220  Biso   1.000  O
  O14      1.0000 0.71270  0.78710  0.95780  Biso   1.000  O
  O15      1.0000 0.71270  0.71290  0.45780  Biso   1.000  O
  O16      1.0000 0.28730  0.21290  0.04220  Biso   1.000  O
  O17      1.0000 0.29680  0.20110  0.65625  Biso   1.000  O
  O18      1.0000 0.70320  0.70110  0.84375  Biso   1.000  O
  O19      1.0000 0.70320  0.79890  0.34375  Biso   1.000  O
  O20      1.0000 0.29680  0.29890  0.15625  Biso   1.000  O
  O21      1.0000 0.37810  0.05110  0.58650  Biso   1.000  O
  O22      1.0000 0.62190  0.55110  0.91350  Biso   1.000  O
  O23      1.0000 0.62190  0.94890  0.41350  Biso   1.000  O
  O24      1.0000 0.37810  0.44890  0.08650  Biso   1.000  O
  Cl1      1.0000 0.28699  0.14784  0.58535  Biso   1.000  Cl
  Cl2      1.0000 0.71301  0.64784  0.91465  Biso   1.000  Cl
  Cl3      1.0000 0.71301  0.85216  0.41465  Biso   1.000  Cl
  Cl4      1.0000 0.28699  0.35216  0.08535  Biso   1.000  Cl
  O25      1.0000 0.92130  0.74220  0.59152  Biso   1.000  O
  O26      1.0000 0.07870  0.24220  0.90848  Biso   1.000  O
  O27      1.0000 0.07870  0.25780  0.40848  Biso   1.000  O
  O28      1.0000 0.92130  0.75780  0.09152  Biso   1.000  O
  H65      1.0000 0.93400  0.65500  0.61600  Biso   1.000  H
  H66      1.0000 0.06600  0.15500  0.88400  Biso   1.000  H
  H67      1.0000 0.06600  0.34500  0.38400  Biso   1.000  H
  H68      1.0000 0.93400  0.84500  0.11600  Biso   1.000  H
  H69      1.0000 0.87400  0.73500  0.55700  Biso   1.000  H
  H70      1.0000 0.12600  0.23500  0.94300  Biso   1.000  H
  H71      1.0000 0.12600  0.26500  0.44300  Biso   1.000  H
  H72      1.0000 0.87400  0.76500  0.05700  Biso   1.000  H
