data_image0
_cell_length_a       9.9783
_cell_length_b       8.123
_cell_length_c       23.9669
_cell_angle_alpha    90
_cell_angle_beta     105.705
_cell_angle_gamma    90

_symmetry_space_group_name_H-M    "P 1"
_symmetry_int_tables_number       1

loop_
  _symmetry_equiv_pos_as_xyz
  'x, y, z'

loop_
  _atom_site_label
  _atom_site_occupancy
  _atom_site_fract_x
  _atom_site_fract_y
  _atom_site_fract_z
  _atom_site_thermal_displace_type
  _atom_site_B_iso_or_equiv
  _atom_site_type_symbol
  C1       1.0000 0.86070  0.12310  0.84754  Biso   1.000  C
  C2       1.0000 0.13930  0.62310  0.65246  Biso   1.000  C
  C3       1.0000 0.13930  0.87690  0.15246  Biso   1.000  C
  C4       1.0000 0.86070  0.37690  0.34754  Biso   1.000  C
  H1       1.0000 0.79470  0.11100  0.81200  Biso   1.000  H
  H2       1.0000 0.20530  0.61100  0.68800  Biso   1.000  H
  H3       1.0000 0.20530  0.88900  0.18800  Biso   1.000  H
  H4       1.0000 0.79470  0.38900  0.31200  Biso   1.000  H
  C5       1.0000 0.86130  0.26840  0.87757  Biso   1.000  C
  C6       1.0000 0.13870  0.76840  0.62243  Biso   1.000  C
  C7       1.0000 0.13870  0.73160  0.12243  Biso   1.000  C
  C8       1.0000 0.86130  0.23160  0.37757  Biso   1.000  C
  H5       1.0000 0.79830  0.35220  0.86250  Biso   1.000  H
  H6       1.0000 0.20170  0.85220  0.63750  Biso   1.000  H
  H7       1.0000 0.20170  0.64780  0.13750  Biso   1.000  H
  H8       1.0000 0.79830  0.14780  0.36250  Biso   1.000  H
  C9       1.0000 0.95590  0.28500  0.92922  Biso   1.000  C
  C10      1.0000 0.04410  0.78500  0.57078  Biso   1.000  C
  C11      1.0000 0.04410  0.71500  0.07078  Biso   1.000  C
  C12      1.0000 0.95590  0.21500  0.42922  Biso   1.000  C
  H9       1.0000 0.95900  0.38050  0.95090  Biso   1.000  H
  H10      1.0000 0.04100  0.88050  0.54910  Biso   1.000  H
  H11      1.0000 0.04100  0.61950  0.04910  Biso   1.000  H
  H12      1.0000 0.95900  0.11950  0.45090  Biso   1.000  H
  C13      1.0000 0.04740  0.15900  0.94945  Biso   1.000  C
  C14      1.0000 0.95260  0.65900  0.55055  Biso   1.000  C
  C15      1.0000 0.95260  0.84100  0.05055  Biso   1.000  C
  C16      1.0000 0.04740  0.34100  0.44945  Biso   1.000  C
  H13      1.0000 0.11350  0.16920  0.98500  Biso   1.000  H
  H14      1.0000 0.88650  0.66920  0.51500  Biso   1.000  H
  H15      1.0000 0.88650  0.83080  0.01500  Biso   1.000  H
  H16      1.0000 0.11350  0.33080  0.48500  Biso   1.000  H
  C17      1.0000 0.04200  0.01660  0.91711  Biso   1.000  C
  C18      1.0000 0.95800  0.51660  0.58289  Biso   1.000  C
  C19      1.0000 0.95800  0.98340  0.08289  Biso   1.000  C
  C20      1.0000 0.04200  0.48340  0.41711  Biso   1.000  C
  C21      1.0000 0.13560  0.87530  0.93347  Biso   1.000  C
  C22      1.0000 0.86440  0.37530  0.56653  Biso   1.000  C
  C23      1.0000 0.86440  0.12470  0.06653  Biso   1.000  C
  C24      1.0000 0.13560  0.62470  0.43347  Biso   1.000  C
  C25      1.0000 0.24240  0.86970  0.98236  Biso   1.000  C
  C26      1.0000 0.75760  0.36970  0.51764  Biso   1.000  C
  C27      1.0000 0.75760  0.13030  0.01764  Biso   1.000  C
  C28      1.0000 0.24240  0.63030  0.48236  Biso   1.000  C
  H17      1.0000 0.26220  0.95920  0.00740  Biso   1.000  H
  H18      1.0000 0.73780  0.45920  0.49260  Biso   1.000  H
  H19      1.0000 0.73780  0.04080  0.99260  Biso   1.000  H
  H20      1.0000 0.26220  0.54080  0.50740  Biso   1.000  H
  C29      1.0000 0.32060  0.72900  0.99395  Biso   1.000  C
  C30      1.0000 0.67940  0.22900  0.50605  Biso   1.000  C
  C31      1.0000 0.67940  0.27100  0.00605  Biso   1.000  C
  C32      1.0000 0.32060  0.77100  0.49395  Biso   1.000  C
  H21      1.0000 0.39390  0.72280  0.02750  Biso   1.000  H
  H22      1.0000 0.60610  0.22280  0.47250  Biso   1.000  H
  H23      1.0000 0.60610  0.27720  0.97250  Biso   1.000  H
  H24      1.0000 0.39390  0.77720  0.52750  Biso   1.000  H
  C33      1.0000 0.29280  0.59770  0.95714  Biso   1.000  C
  C34      1.0000 0.70720  0.09770  0.54286  Biso   1.000  C
  C35      1.0000 0.70720  0.40230  0.04286  Biso   1.000  C
  C36      1.0000 0.29280  0.90230  0.45714  Biso   1.000  C
  H25      1.0000 0.34520  0.50170  0.96540  Biso   1.000  H
  H26      1.0000 0.65480  0.00170  0.53460  Biso   1.000  H
  H27      1.0000 0.65480  0.49830  0.03460  Biso   1.000  H
  H28      1.0000 0.34520  0.99830  0.46540  Biso   1.000  H
  C37      1.0000 0.18690  0.61130  0.90836  Biso   1.000  C
  C38      1.0000 0.81310  0.11130  0.59164  Biso   1.000  C
  C39      1.0000 0.81310  0.38870  0.09164  Biso   1.000  C
  C40      1.0000 0.18690  0.88870  0.40836  Biso   1.000  C
  H29      1.0000 0.16710  0.52370  0.88240  Biso   1.000  H
  H30      1.0000 0.83290  0.02370  0.61760  Biso   1.000  H
  H31      1.0000 0.83290  0.47630  0.11760  Biso   1.000  H
  H32      1.0000 0.16710  0.97630  0.38240  Biso   1.000  H
  C41      1.0000 0.88330  0.52310  0.75270  Biso   1.000  C
  C42      1.0000 0.11670  0.02310  0.74730  Biso   1.000  C
  C43      1.0000 0.11670  0.47690  0.24730  Biso   1.000  C
  C44      1.0000 0.88330  0.97690  0.25270  Biso   1.000  C
  C45      1.0000 0.76780  0.64640  0.72922  Biso   1.000  C
  C46      1.0000 0.23220  0.14640  0.77078  Biso   1.000  C
  C47      1.0000 0.23220  0.35360  0.27078  Biso   1.000  C
  C48      1.0000 0.76780  0.85360  0.22922  Biso   1.000  C
  C49      1.0000 0.62480  0.57660  0.72680  Biso   1.000  C
  C50      1.0000 0.37520  0.07660  0.77320  Biso   1.000  C
  C51      1.0000 0.37520  0.42340  0.27320  Biso   1.000  C
  C52      1.0000 0.62480  0.92340  0.22680  Biso   1.000  C
  H33      1.0000 0.61710  0.46270  0.71410  Biso   1.000  H
  H34      1.0000 0.38290  0.96270  0.78590  Biso   1.000  H
  H35      1.0000 0.38290  0.53730  0.28590  Biso   1.000  H
  H36      1.0000 0.61710  0.03730  0.21410  Biso   1.000  H
  H37      1.0000 0.60560  0.58360  0.76430  Biso   1.000  H
  H38      1.0000 0.39440  0.08360  0.73570  Biso   1.000  H
  H39      1.0000 0.39440  0.41640  0.23570  Biso   1.000  H
  H40      1.0000 0.60560  0.91640  0.26430  Biso   1.000  H
  C53      1.0000 0.53000  0.68340  0.68380  Biso   1.000  C
  C54      1.0000 0.47000  0.18340  0.81620  Biso   1.000  C
  C55      1.0000 0.47000  0.31660  0.31620  Biso   1.000  C
  C56      1.0000 0.53000  0.81660  0.18380  Biso   1.000  C
  H41      1.0000 0.50650  0.78170  0.70220  Biso   1.000  H
  H42      1.0000 0.49350  0.28170  0.79780  Biso   1.000  H
  H43      1.0000 0.49350  0.21830  0.29780  Biso   1.000  H
  H44      1.0000 0.50650  0.71830  0.20220  Biso   1.000  H
  H45      1.0000 0.44490  0.62540  0.66490  Biso   1.000  H
  H46      1.0000 0.55510  0.12540  0.83510  Biso   1.000  H
  H47      1.0000 0.55510  0.37460  0.33510  Biso   1.000  H
  H48      1.0000 0.44490  0.87460  0.16490  Biso   1.000  H
  C57      1.0000 0.61210  0.72750  0.64030  Biso   1.000  C
  C58      1.0000 0.38790  0.22750  0.85970  Biso   1.000  C
  C59      1.0000 0.38790  0.27250  0.35970  Biso   1.000  C
  C60      1.0000 0.61210  0.77250  0.14030  Biso   1.000  C
  H49      1.0000 0.57810  0.66400  0.60510  Biso   1.000  H
  H50      1.0000 0.42190  0.16400  0.89490  Biso   1.000  H
  H51      1.0000 0.42190  0.33600  0.39490  Biso   1.000  H
  H52      1.0000 0.57810  0.83600  0.10510  Biso   1.000  H
  H53      1.0000 0.60090  0.84350  0.63060  Biso   1.000  H
  H54      1.0000 0.39910  0.34350  0.86940  Biso   1.000  H
  H55      1.0000 0.39910  0.15650  0.36940  Biso   1.000  H
  H56      1.0000 0.60090  0.65650  0.13060  Biso   1.000  H
  C61      1.0000 0.76190  0.68950  0.66744  Biso   1.000  C
  C62      1.0000 0.23810  0.18950  0.83256  Biso   1.000  C
  C63      1.0000 0.23810  0.31050  0.33256  Biso   1.000  C
  C64      1.0000 0.76190  0.81050  0.16744  Biso   1.000  C
  H57      1.0000 0.81990  0.78430  0.66590  Biso   1.000  H
  H58      1.0000 0.18010  0.28430  0.83410  Biso   1.000  H
  H59      1.0000 0.18010  0.21570  0.33410  Biso   1.000  H
  H60      1.0000 0.81990  0.71570  0.16590  Biso   1.000  H
  H61      1.0000 0.79230  0.59760  0.64810  Biso   1.000  H
  H62      1.0000 0.20770  0.09760  0.85190  Biso   1.000  H
  H63      1.0000 0.20770  0.40240  0.35190  Biso   1.000  H
  H64      1.0000 0.79230  0.90240  0.14810  Biso   1.000  H
  N1       1.0000 0.94870  0.99950  0.86635  Biso   1.000  N
  N2       1.0000 0.05130  0.49950  0.63365  Biso   1.000  N
  N3       1.0000 0.05130  0.00050  0.13365  Biso   1.000  N
  N4       1.0000 0.94870  0.50050  0.36635  Biso   1.000  N
  N5       1.0000 0.11040  0.74750  0.89675  Biso   1.000  N
  N6       1.0000 0.88960  0.24750  0.60325  Biso   1.000  N
  N7       1.0000 0.88960  0.25250  0.10325  Biso   1.000  N
  N8       1.0000 0.11040  0.75250  0.39675  Biso   1.000  N
  N9       1.0000 0.78710  0.79600  0.76636  Biso   1.000  N
  N10      1.0000 0.21290  0.29600  0.73364  Biso   1.000  N
  N11      1.0000 0.21290  0.20400  0.23364  Biso   1.000  N
  N12      1.0000 0.78710  0.70400  0.26636  Biso   1.000  N
  H65      1.0000 0.71540  0.80550  0.78230  Biso   1.000  H
  H66      1.0000 0.28460  0.30550  0.71770  Biso   1.000  H
  H67      1.0000 0.28460  0.19450  0.21770  Biso   1.000  H
  H68      1.0000 0.71540  0.69450  0.28230  Biso   1.000  H
  H69      1.0000 0.78790  0.88590  0.74450  Biso   1.000  H
  H70      1.0000 0.21210  0.38590  0.75550  Biso   1.000  H
  H71      1.0000 0.21210  0.11410  0.25550  Biso   1.000  H
  H72      1.0000 0.78790  0.61410  0.24450  Biso   1.000  H
  O1       1.0000 0.97510  0.56550  0.79707  Biso   1.000  O
  O2       1.0000 0.02490  0.06550  0.70293  Biso   1.000  O
  O3       1.0000 0.02490  0.43450  0.20293  Biso   1.000  O
  O4       1.0000 0.97510  0.93450  0.29707  Biso   1.000  O
  O5       1.0000 0.88450  0.39020  0.72802  Biso   1.000  O
  O6       1.0000 0.11550  0.89020  0.77198  Biso   1.000  O
  O7       1.0000 0.11550  0.60980  0.27198  Biso   1.000  O
  O8       1.0000 0.88450  0.10980  0.22802  Biso   1.000  O
  Cu1      1.0000 0.95957  0.78367  0.82701  Biso   1.000  Cu
  Cu2      1.0000 0.04043  0.28367  0.67299  Biso   1.000  Cu
  Cu3      1.0000 0.04043  0.21633  0.17299  Biso   1.000  Cu
  Cu4      1.0000 0.95957  0.71633  0.32701  Biso   1.000  Cu
  O9       1.0000 0.80180  0.67840  0.90942  Biso   1.000  O
  O10      1.0000 0.19820  0.17840  0.59058  Biso   1.000  O
  O11      1.0000 0.19820  0.32160  0.09058  Biso   1.000  O
  O12      1.0000 0.80180  0.82160  0.40942  Biso   1.000  O
  O13      1.0000 0.63490  0.76460  0.95580  Biso   1.000  O
  O14      1.0000 0.36510  0.26460  0.54420  Biso   1.000  O
  O15      1.0000 0.36510  0.23540  0.04420  Biso   1.000  O
  O16      1.0000 0.63490  0.73540  0.45580  Biso   1.000  O
  O17      1.0000 0.58860  0.55510  0.89240  Biso   1.000  O
  O18      1.0000 0.41140  0.05510  0.60760  Biso   1.000  O
  O19      1.0000 0.41140  0.44490  0.10760  Biso   1.000  O
  O20      1.0000 0.58860  0.94490  0.39240  Biso   1.000  O
  O21      1.0000 0.60390  0.80510  0.85690  Biso   1.000  O
  O22      1.0000 0.39610  0.30510  0.64310  Biso   1.000  O
  O23      1.0000 0.39610  0.19490  0.14310  Biso   1.000  O
  O24      1.0000 0.60390  0.69490  0.35690  Biso   1.000  O
  Cl1      1.0000 0.65789  0.70350  0.90433  Biso   1.000  Cl
  Cl2      1.0000 0.34211  0.20350  0.59567  Biso   1.000  Cl
  Cl3      1.0000 0.34211  0.29650  0.09567  Biso   1.000  Cl
  Cl4      1.0000 0.65789  0.79650  0.40433  Biso   1.000  Cl
  O25      1.0000 0.69150  0.12150  0.70994  Biso   1.000  O
  O26      1.0000 0.30850  0.62150  0.79006  Biso   1.000  O
  O27      1.0000 0.30850  0.87850  0.29006  Biso   1.000  O
  O28      1.0000 0.69150  0.37850  0.20994  Biso   1.000  O
  H73      1.0000 0.75340  0.21570  0.71110  Biso   1.000  H
  H74      1.0000 0.24660  0.71570  0.78890  Biso   1.000  H
  H75      1.0000 0.24660  0.78430  0.28890  Biso   1.000  H
  H76      1.0000 0.75340  0.28430  0.21110  Biso   1.000  H
  H77      1.0000 0.60880  0.14870  0.68690  Biso   1.000  H
  H78      1.0000 0.39120  0.64870  0.81310  Biso   1.000  H
  H79      1.0000 0.39120  0.85130  0.31310  Biso   1.000  H
  H80      1.0000 0.60880  0.35130  0.18690  Biso   1.000  H
