data_image0
_cell_length_a       23.8007
_cell_length_b       10.3423
_cell_length_c       8.2427
_cell_angle_alpha    90
_cell_angle_beta     90
_cell_angle_gamma    90

_symmetry_space_group_name_H-M    "P 1"
_symmetry_int_tables_number       1

loop_
  _symmetry_equiv_pos_as_xyz
  'x, y, z'

loop_
  _atom_site_label
  _atom_site_occupancy
  _atom_site_fract_x
  _atom_site_fract_y
  _atom_site_fract_z
  _atom_site_thermal_displace_type
  _atom_site_B_iso_or_equiv
  _atom_site_type_symbol
  C1       1.0000 0.08100  0.18270  0.63820  Biso   1.000  C
  C2       1.0000 0.91900  0.81730  0.13820  Biso   1.000  C
  C3       1.0000 0.41900  0.68270  0.13820  Biso   1.000  C
  C4       1.0000 0.58100  0.31730  0.63820  Biso   1.000  C
  H1       1.0000 0.04330  0.20670  0.64120  Biso   1.000  H
  H2       1.0000 0.95670  0.79330  0.14120  Biso   1.000  H
  H3       1.0000 0.45670  0.70670  0.14120  Biso   1.000  H
  H4       1.0000 0.54330  0.29330  0.64120  Biso   1.000  H
  C5       1.0000 0.11150  0.20500  0.49730  Biso   1.000  C
  C6       1.0000 0.88850  0.79500  0.99730  Biso   1.000  C
  C7       1.0000 0.38850  0.70500  0.99730  Biso   1.000  C
  C8       1.0000 0.61150  0.29500  0.49730  Biso   1.000  C
  H5       1.0000 0.09430  0.23990  0.40600  Biso   1.000  H
  H6       1.0000 0.90570  0.76010  0.90600  Biso   1.000  H
  H7       1.0000 0.40570  0.73990  0.90600  Biso   1.000  H
  H8       1.0000 0.59430  0.26010  0.40600  Biso   1.000  H
  C9       1.0000 0.16750  0.17460  0.49550  Biso   1.000  C
  C10      1.0000 0.83250  0.82540  0.99550  Biso   1.000  C
  C11      1.0000 0.33250  0.67460  0.99550  Biso   1.000  C
  C12      1.0000 0.66750  0.32540  0.49550  Biso   1.000  C
  H9       1.0000 0.18930  0.19190  0.40450  Biso   1.000  H
  H10      1.0000 0.81070  0.80810  0.90450  Biso   1.000  H
  H11      1.0000 0.31070  0.69190  0.90450  Biso   1.000  H
  H12      1.0000 0.68930  0.30810  0.40450  Biso   1.000  H
  C13      1.0000 0.19100  0.11750  0.63190  Biso   1.000  C
  C14      1.0000 0.80900  0.88250  0.13190  Biso   1.000  C
  C15      1.0000 0.30900  0.61750  0.13190  Biso   1.000  C
  C16      1.0000 0.69100  0.38250  0.63190  Biso   1.000  C
  H13      1.0000 0.22880  0.09410  0.63170  Biso   1.000  H
  H14      1.0000 0.77120  0.90590  0.13170  Biso   1.000  H
  H15      1.0000 0.27120  0.59410  0.13170  Biso   1.000  H
  H16      1.0000 0.72880  0.40590  0.63170  Biso   1.000  H
  C17      1.0000 0.15850  0.09560  0.76810  Biso   1.000  C
  C18      1.0000 0.84150  0.90440  0.26810  Biso   1.000  C
  C19      1.0000 0.34150  0.59560  0.26810  Biso   1.000  C
  C20      1.0000 0.65850  0.40440  0.76810  Biso   1.000  C
  C21      1.0000 0.17810  0.03440  0.91870  Biso   1.000  C
  C22      1.0000 0.82190  0.96560  0.41870  Biso   1.000  C
  C23      1.0000 0.32190  0.53440  0.41870  Biso   1.000  C
  C24      1.0000 0.67810  0.46560  0.91870  Biso   1.000  C
  C25      1.0000 0.23460  0.99920  0.94750  Biso   1.000  C
  C26      1.0000 0.76540  0.00080  0.44750  Biso   1.000  C
  C27      1.0000 0.26540  0.49920  0.44750  Biso   1.000  C
  C28      1.0000 0.73460  0.50080  0.94750  Biso   1.000  C
  H17      1.0000 0.26220  0.01340  0.86950  Biso   1.000  H
  H18      1.0000 0.73780  0.98660  0.36950  Biso   1.000  H
  H19      1.0000 0.23780  0.51340  0.36950  Biso   1.000  H
  H20      1.0000 0.76220  0.48660  0.86950  Biso   1.000  H
  C29      1.0000 0.24760  0.94350  0.09320  Biso   1.000  C
  C30      1.0000 0.75240  0.05650  0.59320  Biso   1.000  C
  C31      1.0000 0.25240  0.44350  0.59320  Biso   1.000  C
  C32      1.0000 0.74760  0.55650  0.09320  Biso   1.000  C
  H21      1.0000 0.28450  0.91880  0.11390  Biso   1.000  H
  H22      1.0000 0.71550  0.08120  0.61390  Biso   1.000  H
  H23      1.0000 0.21550  0.41880  0.61390  Biso   1.000  H
  H24      1.0000 0.78450  0.58120  0.11390  Biso   1.000  H
  C33      1.0000 0.20720  0.92350  0.20950  Biso   1.000  C
  C34      1.0000 0.79280  0.07650  0.70950  Biso   1.000  C
  C35      1.0000 0.29280  0.42350  0.70950  Biso   1.000  C
  C36      1.0000 0.70720  0.57650  0.20950  Biso   1.000  C
  H25      1.0000 0.21600  0.88720  0.30960  Biso   1.000  H
  H26      1.0000 0.78400  0.11280  0.80960  Biso   1.000  H
  H27      1.0000 0.28400  0.38720  0.80960  Biso   1.000  H
  H28      1.0000 0.71600  0.61280  0.30960  Biso   1.000  H
  C37      1.0000 0.15300  0.95930  0.17160  Biso   1.000  C
  C38      1.0000 0.84700  0.04070  0.67160  Biso   1.000  C
  C39      1.0000 0.34700  0.45930  0.67160  Biso   1.000  C
  C40      1.0000 0.65300  0.54070  0.17160  Biso   1.000  C
  H29      1.0000 0.12490  0.94440  0.24770  Biso   1.000  H
  H30      1.0000 0.87510  0.05560  0.74770  Biso   1.000  H
  H31      1.0000 0.37510  0.44440  0.74770  Biso   1.000  H
  H32      1.0000 0.62490  0.55560  0.24770  Biso   1.000  H
  C41      1.0000 0.98980  0.11660  0.23180  Biso   1.000  C
  C42      1.0000 0.01020  0.88340  0.73180  Biso   1.000  C
  C43      1.0000 0.51020  0.61660  0.73180  Biso   1.000  C
  C44      1.0000 0.48980  0.38340  0.23180  Biso   1.000  C
  C45      1.0000 0.96580  0.21000  0.10580  Biso   1.000  C
  C46      1.0000 0.03420  0.79000  0.60580  Biso   1.000  C
  C47      1.0000 0.53420  0.71000  0.60580  Biso   1.000  C
  C48      1.0000 0.46580  0.29000  0.10580  Biso   1.000  C
  C49      1.0000 0.90110  0.19910  0.10090  Biso   1.000  C
  C50      1.0000 0.09890  0.80090  0.60090  Biso   1.000  C
  C51      1.0000 0.59890  0.69910  0.60090  Biso   1.000  C
  C52      1.0000 0.40110  0.30090  0.10090  Biso   1.000  C
  H33      1.0000 0.89090  0.11390  0.06130  Biso   1.000  H
  H34      1.0000 0.10910  0.88610  0.56130  Biso   1.000  H
  H35      1.0000 0.60910  0.61390  0.56130  Biso   1.000  H
  H36      1.0000 0.39090  0.38610  0.06130  Biso   1.000  H
  H37      1.0000 0.88660  0.20730  0.21040  Biso   1.000  H
  H38      1.0000 0.11340  0.79270  0.71040  Biso   1.000  H
  H39      1.0000 0.61340  0.70730  0.71040  Biso   1.000  H
  H40      1.0000 0.38660  0.29270  0.21040  Biso   1.000  H
  C53      1.0000 0.87350  0.29960  0.99510  Biso   1.000  C
  C54      1.0000 0.12650  0.70040  0.49510  Biso   1.000  C
  C55      1.0000 0.62650  0.79960  0.49510  Biso   1.000  C
  C56      1.0000 0.37350  0.20040  0.99510  Biso   1.000  C
  H41      1.0000 0.83300  0.29140  0.00350  Biso   1.000  H
  H42      1.0000 0.16700  0.70860  0.50350  Biso   1.000  H
  H43      1.0000 0.66700  0.79140  0.50350  Biso   1.000  H
  H44      1.0000 0.33300  0.20860  0.00350  Biso   1.000  H
  H45      1.0000 0.88390  0.28480  0.88290  Biso   1.000  H
  H46      1.0000 0.11610  0.71520  0.38290  Biso   1.000  H
  H47      1.0000 0.61610  0.78480  0.38290  Biso   1.000  H
  H48      1.0000 0.38390  0.21520  0.88290  Biso   1.000  H
  C57      1.0000 0.89080  0.43550  0.04410  Biso   1.000  C
  C58      1.0000 0.10920  0.56450  0.54410  Biso   1.000  C
  C59      1.0000 0.60920  0.93550  0.54410  Biso   1.000  C
  C60      1.0000 0.39080  0.06450  0.04410  Biso   1.000  C
  H49      1.0000 0.87610  0.45490  0.15120  Biso   1.000  H
  H50      1.0000 0.12390  0.54510  0.65120  Biso   1.000  H
  H51      1.0000 0.62390  0.95490  0.65120  Biso   1.000  H
  H52      1.0000 0.37610  0.04510  0.15120  Biso   1.000  H
  H53      1.0000 0.87510  0.49750  0.96830  Biso   1.000  H
  H54      1.0000 0.12490  0.50250  0.46830  Biso   1.000  H
  H55      1.0000 0.62490  0.99750  0.46830  Biso   1.000  H
  H56      1.0000 0.37510  0.00250  0.96830  Biso   1.000  H
  C61      1.0000 0.95490  0.44710  0.04550  Biso   1.000  C
  C62      1.0000 0.04510  0.55290  0.54550  Biso   1.000  C
  C63      1.0000 0.54510  0.94710  0.54550  Biso   1.000  C
  C64      1.0000 0.45490  0.05290  0.04550  Biso   1.000  C
  H57      1.0000 0.96890  0.43780  0.93570  Biso   1.000  H
  H58      1.0000 0.03110  0.56220  0.43570  Biso   1.000  H
  H59      1.0000 0.53110  0.93780  0.43570  Biso   1.000  H
  H60      1.0000 0.46890  0.06220  0.93570  Biso   1.000  H
  H61      1.0000 0.96530  0.53250  0.08390  Biso   1.000  H
  H62      1.0000 0.03470  0.46750  0.58390  Biso   1.000  H
  H63      1.0000 0.53470  0.03250  0.58390  Biso   1.000  H
  H64      1.0000 0.46530  0.96750  0.08390  Biso   1.000  H
  C65      1.0000 0.98170  0.34820  0.15050  Biso   1.000  C
  C66      1.0000 0.01830  0.65180  0.65050  Biso   1.000  C
  C67      1.0000 0.51830  0.84820  0.65050  Biso   1.000  C
  C68      1.0000 0.48170  0.15180  0.15050  Biso   1.000  C
  H65      1.0000 0.97090  0.36410  0.26220  Biso   1.000  H
  H66      1.0000 0.02910  0.63590  0.76220  Biso   1.000  H
  H67      1.0000 0.52910  0.86410  0.76220  Biso   1.000  H
  H68      1.0000 0.47090  0.13590  0.26220  Biso   1.000  H
  H69      1.0000 0.02220  0.35740  0.14320  Biso   1.000  H
  H70      1.0000 0.97780  0.64260  0.64320  Biso   1.000  H
  H71      1.0000 0.47780  0.85740  0.64320  Biso   1.000  H
  H72      1.0000 0.52220  0.14260  0.14320  Biso   1.000  H
  N1       1.0000 0.10360  0.12830  0.76890  Biso   1.000  N
  N2       1.0000 0.89640  0.87170  0.26890  Biso   1.000  N
  N3       1.0000 0.39640  0.62830  0.26890  Biso   1.000  N
  N4       1.0000 0.60360  0.37170  0.76890  Biso   1.000  N
  N5       1.0000 0.13870  0.01460  0.03030  Biso   1.000  N
  N6       1.0000 0.86130  0.98540  0.53030  Biso   1.000  N
  N7       1.0000 0.36130  0.51460  0.53030  Biso   1.000  N
  N8       1.0000 0.63870  0.48540  0.03030  Biso   1.000  N
  N9       1.0000 0.99090  0.17460  0.94550  Biso   1.000  N
  N10      1.0000 0.00910  0.82540  0.44550  Biso   1.000  N
  N11      1.0000 0.50910  0.67460  0.44550  Biso   1.000  N
  N12      1.0000 0.49090  0.32540  0.94550  Biso   1.000  N
  H73      1.0000 0.99580  0.24660  0.88570  Biso   1.000  H
  H74      1.0000 0.00420  0.75340  0.38570  Biso   1.000  H
  H75      1.0000 0.50420  0.74660  0.38570  Biso   1.000  H
  H76      1.0000 0.49580  0.25340  0.88570  Biso   1.000  H
  H77      1.0000 0.96720  0.12210  0.89160  Biso   1.000  H
  H78      1.0000 0.03280  0.87790  0.39160  Biso   1.000  H
  H79      1.0000 0.53280  0.62210  0.39160  Biso   1.000  H
  H80      1.0000 0.46720  0.37790  0.89160  Biso   1.000  H
  O1       1.0000 0.03334  0.05160  0.19150  Biso   1.000  O
  O2       1.0000 0.96666  0.94840  0.69150  Biso   1.000  O
  O3       1.0000 0.46666  0.55160  0.69150  Biso   1.000  O
  O4       1.0000 0.53334  0.44840  0.19150  Biso   1.000  O
  O5       1.0000 0.96820  0.11060  0.36780  Biso   1.000  O
  O6       1.0000 0.03180  0.88940  0.86780  Biso   1.000  O
  O7       1.0000 0.53180  0.61060  0.86780  Biso   1.000  O
  O8       1.0000 0.46820  0.38940  0.36780  Biso   1.000  O
  Cu1      1.0000 0.06402  0.08658  0.97373  Biso   1.000  Cu
  Cu2      1.0000 0.93598  0.91342  0.47373  Biso   1.000  Cu
  Cu3      1.0000 0.43598  0.58658  0.47373  Biso   1.000  Cu
  Cu4      1.0000 0.56402  0.41342  0.97373  Biso   1.000  Cu
  O9       1.0000 0.12000  0.42100  0.92600  Biso   1.000  O
  O10      1.0000 0.88000  0.57900  0.42600  Biso   1.000  O
  O11      1.0000 0.38000  0.92100  0.42600  Biso   1.000  O
  O12      1.0000 0.62000  0.07900  0.92600  Biso   1.000  O
  O13      1.0000 0.12720  0.30380  0.12360  Biso   1.000  O
  O14      1.0000 0.87280  0.69620  0.62360  Biso   1.000  O
  O15      1.0000 0.37280  0.80380  0.62360  Biso   1.000  O
  O16      1.0000 0.62720  0.19620  0.12360  Biso   1.000  O
  O17      1.0000 0.16050  0.51960  0.12600  Biso   1.000  O
  O18      1.0000 0.83950  0.48040  0.62600  Biso   1.000  O
  O19      1.0000 0.33950  0.01960  0.62600  Biso   1.000  O
  O20      1.0000 0.66050  0.98040  0.12600  Biso   1.000  O
  O21      1.0000 0.20060  0.36700  0.00200  Biso   1.000  O
  O22      1.0000 0.79940  0.63300  0.50200  Biso   1.000  O
  O23      1.0000 0.29940  0.86700  0.50200  Biso   1.000  O
  O24      1.0000 0.70060  0.13300  0.00200  Biso   1.000  O
  Cl1      1.0000 0.15563  0.40630  0.04630  Biso   1.000  Cl
  Cl2      1.0000 0.84437  0.59370  0.54630  Biso   1.000  Cl
  Cl3      1.0000 0.34437  0.90630  0.54630  Biso   1.000  Cl
  Cl4      1.0000 0.65563  0.09370  0.04630  Biso   1.000  Cl
  O25      1.0000 0.94500  0.28560  0.62170  Biso   1.000  O
  O26      1.0000 0.05500  0.71440  0.12170  Biso   1.000  O
  O27      1.0000 0.55500  0.78560  0.12170  Biso   1.000  O
  O28      1.0000 0.44500  0.21440  0.62170  Biso   1.000  O
  H81      1.0000 0.95400  0.21750  0.52260  Biso   1.000  H
  H82      1.0000 0.04600  0.78250  0.02260  Biso   1.000  H
  H83      1.0000 0.54600  0.71750  0.02260  Biso   1.000  H
  H84      1.0000 0.45400  0.28250  0.52260  Biso   1.000  H
  H85      1.0000 0.91180  0.35580  0.58960  Biso   1.000  H
  H86      1.0000 0.08820  0.64420  0.08960  Biso   1.000  H
  H87      1.0000 0.58820  0.85580  0.08960  Biso   1.000  H
  H88      1.0000 0.41180  0.14420  0.58960  Biso   1.000  H
