data_image0
_cell_length_a       7.5109
_cell_length_b       9.829
_cell_length_c       10.358
_cell_angle_alpha    96.856
_cell_angle_beta     102.469
_cell_angle_gamma    91.196

_symmetry_space_group_name_H-M    "P 1"
_symmetry_int_tables_number       1

loop_
  _symmetry_equiv_pos_as_xyz
  'x, y, z'

loop_
  _atom_site_label
  _atom_site_occupancy
  _atom_site_fract_x
  _atom_site_fract_y
  _atom_site_fract_z
  _atom_site_thermal_displace_type
  _atom_site_B_iso_or_equiv
  _atom_site_type_symbol
  Cu1      1.0000 0.50000  0.50000  0.50000  Biso   1.000  Cu
  O1       1.0000 0.27400  0.40890  0.50050  Biso   1.000  O
  O2       1.0000 0.72600  0.59110  0.49950  Biso   1.000  O
  O3       1.0000 0.39060  0.28770  0.66460  Biso   1.000  O
  O4       1.0000 0.60940  0.71230  0.33540  Biso   1.000  O
  O5       1.0000 0.97890  0.94180  0.77870  Biso   1.000  O
  O6       1.0000 0.02110  0.05820  0.22130  Biso   1.000  O
  O7       1.0000 0.69080  0.90940  0.66640  Biso   1.000  O
  O8       1.0000 0.30920  0.09060  0.33360  Biso   1.000  O
  N1       1.0000 0.59060  0.32430  0.40650  Biso   1.000  N
  N2       1.0000 0.40940  0.67570  0.59350  Biso   1.000  N
  H1       1.0000 0.48170  0.29240  0.40220  Biso   1.000  H
  H2       1.0000 0.51830  0.70760  0.59780  Biso   1.000  H
  H3       1.0000 0.60750  0.39290  0.36540  Biso   1.000  H
  H4       1.0000 0.39250  0.60710  0.63460  Biso   1.000  H
  C1       1.0000 0.26220  0.32100  0.58100  Biso   1.000  C
  C2       1.0000 0.73780  0.67900  0.41900  Biso   1.000  C
  C3       1.0000 0.07100  0.25980  0.56610  Biso   1.000  C
  C4       1.0000 0.92900  0.74020  0.43390  Biso   1.000  C
  C5       1.0000 0.92150  0.31550  0.48970  Biso   1.000  C
  C6       1.0000 0.07850  0.68450  0.51030  Biso   1.000  C
  H5       1.0000 0.93910  0.38800  0.44310  Biso   1.000  H
  H6       1.0000 0.06090  0.61200  0.55690  Biso   1.000  H
  C7       1.0000 0.74520  0.26290  0.48270  Biso   1.000  C
  C8       1.0000 0.25480  0.73710  0.51730  Biso   1.000  C
  C9       1.0000 0.71930  0.15240  0.54890  Biso   1.000  C
  C10      1.0000 0.28070  0.84760  0.45110  Biso   1.000  C
  H7       1.0000 0.60190  0.11660  0.54370  Biso   1.000  H
  H8       1.0000 0.39810  0.88340  0.45630  Biso   1.000  H
  C11      1.0000 0.86940  0.09480  0.62340  Biso   1.000  C
  C12      1.0000 0.13060  0.90520  0.37660  Biso   1.000  C
  C13      1.0000 0.83640  0.97260  0.69110  Biso   1.000  C
  C14      1.0000 0.16360  0.02740  0.30890  Biso   1.000  C
  C15      1.0000 0.04510  0.14910  0.63330  Biso   1.000  C
  C16      1.0000 0.95490  0.85090  0.36670  Biso   1.000  C
  H9       1.0000 0.14480  0.11160  0.68450  Biso   1.000  H
  H10      1.0000 0.85520  0.88840  0.31550  Biso   1.000  H
  O9       1.0000 0.29240  0.59810  0.83050  Biso   1.000  O
  O10      1.0000 0.70760  0.40190  0.16950  Biso   1.000  O
  N3       1.0000 0.39810  0.71370  0.03380  Biso   1.000  N
  N4       1.0000 0.60190  0.28630  0.96620  Biso   1.000  N
  H11      1.0000 0.41300  0.71680  0.11880  Biso   1.000  H
  H12      1.0000 0.58700  0.28320  0.88120  Biso   1.000  H
  N5       1.0000 0.09470  0.27180  0.10890  Biso   1.000  N
  N6       1.0000 0.90530  0.72820  0.89110  Biso   1.000  N
  C17      1.0000 0.31480  0.60540  0.95160  Biso   1.000  C
  C18      1.0000 0.68520  0.39460  0.04840  Biso   1.000  C
  C19      1.0000 0.46200  0.83160  0.97670  Biso   1.000  C
  C20      1.0000 0.53800  0.16840  0.02330  Biso   1.000  C
  C21      1.0000 0.53070  0.94320  0.07510  Biso   1.000  C
  C22      1.0000 0.46930  0.05680  0.92490  Biso   1.000  C
  C23      1.0000 0.37520  0.93390  0.97460  Biso   1.000  C
  C24      1.0000 0.62480  0.06610  0.02540  Biso   1.000  C
  C25      1.0000 0.24160  0.49520  0.14680  Biso   1.000  C
  C26      1.0000 0.75840  0.50480  0.85320  Biso   1.000  C
  H13      1.0000 0.29090  0.57150  0.20700  Biso   1.000  H
  H14      1.0000 0.70910  0.42850  0.79300  Biso   1.000  H
  C27      1.0000 0.24310  0.49110  0.01420  Biso   1.000  C
  C28      1.0000 0.75690  0.50890  0.98580  Biso   1.000  C
  C29      1.0000 0.16740  0.37420  0.93040  Biso   1.000  C
  C30      1.0000 0.83260  0.62580  0.06960  Biso   1.000  C
  H15      1.0000 0.16510  0.36750  0.83970  Biso   1.000  H
  H16      1.0000 0.83490  0.63250  0.16030  Biso   1.000  H
  C31      1.0000 0.09610  0.26860  0.98130  Biso   1.000  C
  C32      1.0000 0.90390  0.73140  0.01870  Biso   1.000  C
  H17      1.0000 0.04620  0.19100  0.92330  Biso   1.000  H
  H18      1.0000 0.95380  0.80900  0.07670  Biso   1.000  H
  C33      1.0000 0.16590  0.38490  0.18950  Biso   1.000  C
  C34      1.0000 0.83410  0.61510  0.81050  Biso   1.000  C
  H19      1.0000 0.16440  0.38930  0.27950  Biso   1.000  H
  H20      1.0000 0.83560  0.61070  0.72050  Biso   1.000  H
