data_image0
_cell_length_a       10.322
_cell_length_b       12.25
_cell_length_c       10.436
_cell_angle_alpha    90
_cell_angle_beta     111.04
_cell_angle_gamma    90

_symmetry_space_group_name_H-M    "P 1"
_symmetry_int_tables_number       1

loop_
  _symmetry_equiv_pos_as_xyz
  'x, y, z'

loop_
  _atom_site_label
  _atom_site_occupancy
  _atom_site_fract_x
  _atom_site_fract_y
  _atom_site_fract_z
  _atom_site_thermal_displace_type
  _atom_site_B_iso_or_equiv
  _atom_site_type_symbol
  Cu1      1.0000 0.22649  0.55697  0.95364  Biso   1.000  Cu
  Cu2      1.0000 0.27351  0.05697  0.54636  Biso   1.000  Cu
  Cu3      1.0000 0.77351  0.44303  0.04636  Biso   1.000  Cu
  Cu4      1.0000 0.72649  0.94303  0.45364  Biso   1.000  Cu
  Cu5      1.0000 0.42480  0.60987  0.27043  Biso   1.000  Cu
  Cu6      1.0000 0.07520  0.10987  0.22957  Biso   1.000  Cu
  Cu7      1.0000 0.57520  0.39013  0.72957  Biso   1.000  Cu
  Cu8      1.0000 0.92480  0.89013  0.77043  Biso   1.000  Cu
  O1       1.0000 0.15590  0.55930  0.11230  Biso   1.000  O
  O2       1.0000 0.34410  0.05930  0.38770  Biso   1.000  O
  O3       1.0000 0.84410  0.44070  0.88770  Biso   1.000  O
  O4       1.0000 0.65590  0.94070  0.61230  Biso   1.000  O
  O5       1.0000 0.50890  0.46290  0.33920  Biso   1.000  O
  O6       1.0000 0.99110  0.96290  0.16080  Biso   1.000  O
  O7       1.0000 0.49110  0.53710  0.66080  Biso   1.000  O
  O8       1.0000 0.00890  0.03710  0.83920  Biso   1.000  O
  N1       1.0000 0.04640  0.49660  0.85660  Biso   1.000  N
  N2       1.0000 0.45360  0.99660  0.64340  Biso   1.000  N
  N3       1.0000 0.95360  0.50340  0.14340  Biso   1.000  N
  N4       1.0000 0.54640  0.00340  0.35660  Biso   1.000  N
  N5       1.0000 0.25620  0.51950  0.77760  Biso   1.000  N
  N6       1.0000 0.24380  0.01950  0.72240  Biso   1.000  N
  N7       1.0000 0.74380  0.48050  0.22240  Biso   1.000  N
  N8       1.0000 0.75620  0.98050  0.27760  Biso   1.000  N
  H1       1.0000 0.31420  0.56790  0.76140  Biso   1.000  H
  H2       1.0000 0.18580  0.06790  0.73860  Biso   1.000  H
  H3       1.0000 0.68580  0.43210  0.23860  Biso   1.000  H
  H4       1.0000 0.81420  0.93210  0.26140  Biso   1.000  H
  H5       1.0000 0.29330  0.45230  0.78320  Biso   1.000  H
  H6       1.0000 0.20670  0.95230  0.71680  Biso   1.000  H
  H7       1.0000 0.70670  0.54770  0.21680  Biso   1.000  H
  H8       1.0000 0.79330  0.04770  0.28320  Biso   1.000  H
  N9       1.0000 0.40780  0.61910  0.44680  Biso   1.000  N
  N10      1.0000 0.09220  0.11910  0.05320  Biso   1.000  N
  N11      1.0000 0.59220  0.38090  0.55320  Biso   1.000  N
  N12      1.0000 0.90780  0.88090  0.94680  Biso   1.000  N
  N13      1.0000 0.33800  0.75980  0.24640  Biso   1.000  N
  N14      1.0000 0.16200  0.25980  0.25360  Biso   1.000  N
  N15      1.0000 0.66200  0.24020  0.75360  Biso   1.000  N
  N16      1.0000 0.83800  0.74020  0.74640  Biso   1.000  N
  N17      1.0000 0.41540  0.58600  0.07990  Biso   1.000  N
  N18      1.0000 0.08460  0.08600  0.42010  Biso   1.000  N
  N19      1.0000 0.58460  0.41400  0.92010  Biso   1.000  N
  N20      1.0000 0.91540  0.91400  0.57990  Biso   1.000  N
  N21      1.0000 0.49050  0.64330  0.03650  Biso   1.000  N
  N22      1.0000 0.00950  0.14330  0.46350  Biso   1.000  N
  N23      1.0000 0.50950  0.35670  0.96350  Biso   1.000  N
  N24      1.0000 0.99050  0.85670  0.53650  Biso   1.000  N
  N25      1.0000 0.55820  0.69320  0.99400  Biso   1.000  N
  N26      1.0000 0.94180  0.19320  0.50600  Biso   1.000  N
  N27      1.0000 0.44180  0.30680  0.00600  Biso   1.000  N
  N28      1.0000 0.05820  0.80680  0.49400  Biso   1.000  N
  Br1      1.0000 0.19327  0.77961  0.87819  Biso   1.000  Br
  Br2      1.0000 0.30673  0.27961  0.62181  Biso   1.000  Br
  Br3      1.0000 0.80673  0.22039  0.12181  Biso   1.000  Br
  Br4      1.0000 0.69327  0.72039  0.37819  Biso   1.000  Br
  C1       1.0000 0.03430  0.51860  0.07400  Biso   1.000  C
  C2       1.0000 0.46570  0.01860  0.42600  Biso   1.000  C
  C3       1.0000 0.96570  0.48140  0.92600  Biso   1.000  C
  C4       1.0000 0.53430  0.98140  0.57400  Biso   1.000  C
  C5       1.0000 0.01420  0.46320  0.71360  Biso   1.000  C
  C6       1.0000 0.48580  0.96320  0.78640  Biso   1.000  C
  C7       1.0000 0.98580  0.53680  0.28640  Biso   1.000  C
  C8       1.0000 0.51420  0.03680  0.21360  Biso   1.000  C
  C9       1.0000 0.11870  0.52340  0.66660  Biso   1.000  C
  C10      1.0000 0.38130  0.02340  0.83340  Biso   1.000  C
  C11      1.0000 0.88130  0.47660  0.33340  Biso   1.000  C
  C12      1.0000 0.61870  0.97660  0.16660  Biso   1.000  C
  H9       1.0000 0.12330  0.48930  0.58440  Biso   1.000  H
  H10      1.0000 0.37670  0.98930  0.91560  Biso   1.000  H
  H11      1.0000 0.87670  0.51070  0.41560  Biso   1.000  H
  H12      1.0000 0.62330  0.01070  0.08440  Biso   1.000  H
  H13      1.0000 0.08990  0.59870  0.64520  Biso   1.000  H
  H14      1.0000 0.41010  0.09870  0.85480  Biso   1.000  H
  H15      1.0000 0.91010  0.40130  0.35480  Biso   1.000  H
  H16      1.0000 0.58990  0.90130  0.14520  Biso   1.000  H
  C13      1.0000 0.52830  0.45500  0.46650  Biso   1.000  C
  C14      1.0000 0.97170  0.95500  0.03350  Biso   1.000  C
  C15      1.0000 0.47170  0.54500  0.53350  Biso   1.000  C
  C16      1.0000 0.02830  0.04500  0.96650  Biso   1.000  C
  C17      1.0000 0.35370  0.72050  0.48110  Biso   1.000  C
  C18      1.0000 0.14630  0.22050  0.01890  Biso   1.000  C
  C19      1.0000 0.64630  0.27950  0.51890  Biso   1.000  C
  C20      1.0000 0.85370  0.77950  0.98110  Biso   1.000  C
  H17      1.0000 0.42910  0.76930  0.53070  Biso   1.000  H
  H18      1.0000 0.07090  0.26930  0.96930  Biso   1.000  H
  H19      1.0000 0.57090  0.23070  0.46930  Biso   1.000  H
  H20      1.0000 0.92910  0.73070  0.03070  Biso   1.000  H
  H21      1.0000 0.29860  0.70600  0.53740  Biso   1.000  H
  H22      1.0000 0.20140  0.20600  0.96260  Biso   1.000  H
  H23      1.0000 0.70140  0.29400  0.46260  Biso   1.000  H
  H24      1.0000 0.79860  0.79400  0.03740  Biso   1.000  H
  C21      1.0000 0.26310  0.77130  0.34240  Biso   1.000  C
  C22      1.0000 0.23690  0.27130  0.15760  Biso   1.000  C
  C23      1.0000 0.73690  0.22870  0.65760  Biso   1.000  C
  C24      1.0000 0.76310  0.72870  0.84240  Biso   1.000  C
  H25      1.0000 0.17440  0.73410  0.30640  Biso   1.000  H
  H26      1.0000 0.32560  0.23410  0.19360  Biso   1.000  H
  H27      1.0000 0.82560  0.26590  0.69360  Biso   1.000  H
  H28      1.0000 0.67440  0.76590  0.80640  Biso   1.000  H
  H29      1.0000 0.24620  0.84780  0.35460  Biso   1.000  H
  H30      1.0000 0.25380  0.34780  0.14540  Biso   1.000  H
  H31      1.0000 0.75380  0.15220  0.64540  Biso   1.000  H
  H32      1.0000 0.74620  0.65220  0.85460  Biso   1.000  H
  H33      1.0000 0.27780  0.77710  0.16650  Biso   1.000  H
  H34      1.0000 0.22220  0.27710  0.33350  Biso   1.000  H
  H35      1.0000 0.72220  0.22290  0.83350  Biso   1.000  H
  H36      1.0000 0.77780  0.72290  0.66650  Biso   1.000  H
  H37      1.0000 0.03540  0.38330  0.70910  Biso   1.000  H
  H38      1.0000 0.46460  0.88330  0.79090  Biso   1.000  H
  H39      1.0000 0.96460  0.61670  0.29090  Biso   1.000  H
  H40      1.0000 0.53540  0.11670  0.20910  Biso   1.000  H
  H41      1.0000 0.91900  0.45220  0.65960  Biso   1.000  H
  H42      1.0000 0.58100  0.95220  0.84040  Biso   1.000  H
  H43      1.0000 0.08100  0.54780  0.34040  Biso   1.000  H
  H44      1.0000 0.41900  0.04780  0.15960  Biso   1.000  H
  H45      1.0000 0.39480  0.81490  0.25960  Biso   1.000  H
  H46      1.0000 0.10520  0.31490  0.24040  Biso   1.000  H
  H47      1.0000 0.60520  0.18510  0.74040  Biso   1.000  H
  H48      1.0000 0.89480  0.68510  0.75960  Biso   1.000  H
