data_image0
_cell_length_a       8.501
_cell_length_b       8.59
_cell_length_c       10.854
_cell_angle_alpha    84.54
_cell_angle_beta     82.1
_cell_angle_gamma    84.73

_symmetry_space_group_name_H-M    "P 1"
_symmetry_int_tables_number       1

loop_
  _symmetry_equiv_pos_as_xyz
  'x, y, z'

loop_
  _atom_site_label
  _atom_site_occupancy
  _atom_site_fract_x
  _atom_site_fract_y
  _atom_site_fract_z
  _atom_site_thermal_displace_type
  _atom_site_B_iso_or_equiv
  _atom_site_type_symbol
  Cu1      1.0000 0.04690  0.03110  0.87770  Biso   1.000  Cu
  Cu2      1.0000 0.95310  0.96890  0.12230  Biso   1.000  Cu
  S1       1.0000 0.44460  0.57040  0.69450  Biso   1.000  S
  S2       1.0000 0.55540  0.42960  0.30550  Biso   1.000  S
  O1       1.0000 0.94780  0.83420  0.86670  Biso   1.000  O
  O2       1.0000 0.05220  0.16580  0.13330  Biso   1.000  O
  O3       1.0000 0.12770  0.21860  0.93060  Biso   1.000  O
  O4       1.0000 0.87230  0.78140  0.06940  Biso   1.000  O
  O5       1.0000 0.24610  0.90970  0.91410  Biso   1.000  O
  O6       1.0000 0.75390  0.09030  0.08590  Biso   1.000  O
  O7       1.0000 0.83410  0.14470  0.88300  Biso   1.000  O
  O8       1.0000 0.16590  0.85530  0.11700  Biso   1.000  O
  N1       1.0000 0.18780  0.97610  0.59040  Biso   1.000  N
  N2       1.0000 0.81220  0.02390  0.40960  Biso   1.000  N
  N3       1.0000 0.11920  0.07950  0.67330  Biso   1.000  N
  N4       1.0000 0.88080  0.92050  0.32670  Biso   1.000  N
  C1       1.0000 0.88690  0.75060  0.96020  Biso   1.000  C
  C2       1.0000 0.11310  0.24940  0.03980  Biso   1.000  C
  C3       1.0000 0.82460  0.59920  0.93120  Biso   1.000  C
  C4       1.0000 0.17540  0.40080  0.06880  Biso   1.000  C
  C5       1.0000 0.10280  0.21550  0.60520  Biso   1.000  C
  C6       1.0000 0.89720  0.78450  0.39480  Biso   1.000  C
  C7       1.0000 0.16040  0.19930  0.48050  Biso   1.000  C
  C8       1.0000 0.83960  0.80070  0.51950  Biso   1.000  C
  C9       1.0000 0.21440  0.04320  0.47520  Biso   1.000  C
  C10      1.0000 0.78560  0.95680  0.52480  Biso   1.000  C
  C11      1.0000 0.02880  0.36090  0.66290  Biso   1.000  C
  C12      1.0000 0.97120  0.63910  0.33710  Biso   1.000  C
  C13      1.0000 0.28830  0.95640  0.36460  Biso   1.000  C
  C14      1.0000 0.71170  0.04360  0.63540  Biso   1.000  C
  C15      1.0000 0.22330  0.80870  0.63180  Biso   1.000  C
  C16      1.0000 0.77670  0.19130  0.36820  Biso   1.000  C
  C17      1.0000 0.39680  0.77620  0.65030  Biso   1.000  C
  C18      1.0000 0.60320  0.22380  0.34970  Biso   1.000  C
  C19      1.0000 0.26730  0.85120  0.02080  Biso   1.000  C
  C20      1.0000 0.73270  0.14880  0.97920  Biso   1.000  C
  C21      1.0000 0.42820  0.76990  0.03800  Biso   1.000  C
  C22      1.0000 0.57180  0.23010  0.96200  Biso   1.000  C
  C23      1.0000 0.43590  0.48150  0.54880  Biso   1.000  C
  C24      1.0000 0.56410  0.51850  0.45120  Biso   1.000  C
  H1       1.0000 0.90400  0.53400  0.89900  Biso   1.000  H
  H2       1.0000 0.09600  0.46600  0.10100  Biso   1.000  H
  H3       1.0000 0.76800  0.55700  0.99700  Biso   1.000  H
  H4       1.0000 0.23200  0.44300  0.00300  Biso   1.000  H
  H5       1.0000 0.76600  0.62200  0.86200  Biso   1.000  H
  H6       1.0000 0.23400  0.37800  0.13800  Biso   1.000  H
  H7       1.0000 0.46900  0.74200  0.96300  Biso   1.000  H
  H8       1.0000 0.53100  0.25800  0.03700  Biso   1.000  H
  H9       1.0000 0.42600  0.69500  0.09600  Biso   1.000  H
  H10      1.0000 0.57400  0.30500  0.90400  Biso   1.000  H
  H11      1.0000 0.41800  0.86600  0.04700  Biso   1.000  H
  H12      1.0000 0.58200  0.13400  0.95300  Biso   1.000  H
  H13      1.0000 0.17500  0.28200  0.42700  Biso   1.000  H
  H14      1.0000 0.82500  0.71800  0.57300  Biso   1.000  H
  H15      1.0000 0.98800  0.43500  0.61600  Biso   1.000  H
  H16      1.0000 0.01200  0.56500  0.38400  Biso   1.000  H
  H17      1.0000 0.11100  0.41200  0.68800  Biso   1.000  H
  H18      1.0000 0.88900  0.58800  0.31200  Biso   1.000  H
  H19      1.0000 0.96500  0.35100  0.72800  Biso   1.000  H
  H20      1.0000 0.03500  0.64900  0.27200  Biso   1.000  H
  H21      1.0000 0.27600  0.02500  0.30200  Biso   1.000  H
  H22      1.0000 0.72400  0.97500  0.69800  Biso   1.000  H
  H23      1.0000 0.39600  0.92900  0.36200  Biso   1.000  H
  H24      1.0000 0.60400  0.07100  0.63800  Biso   1.000  H
  H25      1.0000 0.25000  0.87700  0.35000  Biso   1.000  H
  H26      1.0000 0.75000  0.12300  0.65000  Biso   1.000  H
  H27      1.0000 0.20000  0.75300  0.55300  Biso   1.000  H
  H28      1.0000 0.80000  0.24700  0.44700  Biso   1.000  H
  H29      1.0000 0.14800  0.78300  0.70300  Biso   1.000  H
  H30      1.0000 0.85200  0.21700  0.29700  Biso   1.000  H
  H31      1.0000 0.46400  0.81600  0.57700  Biso   1.000  H
  H32      1.0000 0.53600  0.18400  0.42300  Biso   1.000  H
  H33      1.0000 0.42400  0.83000  0.71700  Biso   1.000  H
  H34      1.0000 0.57600  0.17000  0.28300  Biso   1.000  H
  H35      1.0000 0.43800  0.38400  0.58700  Biso   1.000  H
  H36      1.0000 0.56200  0.61600  0.41300  Biso   1.000  H
  H37      1.0000 0.29700  0.52000  0.51100  Biso   1.000  H
  H38      1.0000 0.70300  0.48000  0.48900  Biso   1.000  H
