data_image0
_cell_length_a       8.8311
_cell_length_b       11.0546
_cell_length_c       12.8617
_cell_angle_alpha    90
_cell_angle_beta     104.586
_cell_angle_gamma    90

_symmetry_space_group_name_H-M    "P 1"
_symmetry_int_tables_number       1

loop_
  _symmetry_equiv_pos_as_xyz
  'x, y, z'

loop_
  _atom_site_label
  _atom_site_occupancy
  _atom_site_fract_x
  _atom_site_fract_y
  _atom_site_fract_z
  _atom_site_thermal_displace_type
  _atom_site_B_iso_or_equiv
  _atom_site_type_symbol
  Cu1      1.0000 0.00000  0.00000  0.00000  Biso   1.000  Cu
  Cu2      1.0000 0.50000  0.50000  0.50000  Biso   1.000  Cu
  O1       1.0000 0.61480  0.46030  0.92451  Biso   1.000  O
  O2       1.0000 0.88520  0.96030  0.57549  Biso   1.000  O
  O3       1.0000 0.38520  0.53970  0.07549  Biso   1.000  O
  O4       1.0000 0.11480  0.03970  0.42451  Biso   1.000  O
  H1       1.0000 0.64270  0.42740  0.98340  Biso   1.000  H
  H2       1.0000 0.85730  0.92740  0.51660  Biso   1.000  H
  H3       1.0000 0.35730  0.57260  0.01660  Biso   1.000  H
  H4       1.0000 0.14270  0.07260  0.48340  Biso   1.000  H
  O5       1.0000 0.88100  0.86500  0.91704  Biso   1.000  O
  O6       1.0000 0.61900  0.36500  0.58296  Biso   1.000  O
  O7       1.0000 0.11900  0.13500  0.08296  Biso   1.000  O
  O8       1.0000 0.38100  0.63500  0.41704  Biso   1.000  O
  N1       1.0000 0.56430  0.60700  0.62958  Biso   1.000  N
  N2       1.0000 0.93570  0.10700  0.87042  Biso   1.000  N
  N3       1.0000 0.43570  0.39300  0.37042  Biso   1.000  N
  N4       1.0000 0.06430  0.89300  0.12958  Biso   1.000  N
  C1       1.0000 0.73740  0.83910  0.90290  Biso   1.000  C
  C2       1.0000 0.76260  0.33910  0.59710  Biso   1.000  C
  C3       1.0000 0.26260  0.16090  0.09710  Biso   1.000  C
  C4       1.0000 0.23740  0.66090  0.40290  Biso   1.000  C
  C5       1.0000 0.64320  0.62990  0.82130  Biso   1.000  C
  C6       1.0000 0.85680  0.12990  0.67870  Biso   1.000  C
  C7       1.0000 0.35680  0.37010  0.17870  Biso   1.000  C
  C8       1.0000 0.14320  0.87010  0.32130  Biso   1.000  C
  O9       1.0000 0.76400  0.61140  0.00780  Biso   1.000  O
  O10      1.0000 0.73600  0.11140  0.49220  Biso   1.000  O
  O11      1.0000 0.23600  0.38860  0.99220  Biso   1.000  O
  O12      1.0000 0.26400  0.88860  0.50780  Biso   1.000  O
  O13      1.0000 0.21790  0.92770  0.92840  Biso   1.000  O
  O14      1.0000 0.28210  0.42770  0.57160  Biso   1.000  O
  O15      1.0000 0.78210  0.07230  0.07160  Biso   1.000  O
  O16      1.0000 0.71790  0.57230  0.42840  Biso   1.000  O
  H5       1.0000 0.29260  0.97320  0.96890  Biso   1.000  H
  H6       1.0000 0.20740  0.47320  0.53110  Biso   1.000  H
  H7       1.0000 0.70740  0.02680  0.03110  Biso   1.000  H
  H8       1.0000 0.79260  0.52680  0.46890  Biso   1.000  H
  H9       1.0000 0.26710  0.86680  0.94020  Biso   1.000  H
  H10      1.0000 0.23290  0.36680  0.55980  Biso   1.000  H
  H11      1.0000 0.73290  0.13320  0.05980  Biso   1.000  H
  H12      1.0000 0.76710  0.63320  0.44020  Biso   1.000  H
  O17      1.0000 0.64250  0.88140  0.94740  Biso   1.000  O
  O18      1.0000 0.85750  0.38140  0.55260  Biso   1.000  O
  O19      1.0000 0.35750  0.11860  0.05260  Biso   1.000  O
  O20      1.0000 0.14250  0.61860  0.44740  Biso   1.000  O
  C9       1.0000 0.67970  0.56800  0.92910  Biso   1.000  C
  C10      1.0000 0.82030  0.06800  0.57090  Biso   1.000  C
  C11      1.0000 0.32030  0.43200  0.07090  Biso   1.000  C
  C12      1.0000 0.17970  0.93200  0.42910  Biso   1.000  C
  C13      1.0000 0.58430  0.56160  0.72910  Biso   1.000  C
  C14      1.0000 0.91570  0.06160  0.77090  Biso   1.000  C
  C15      1.0000 0.41570  0.43840  0.27090  Biso   1.000  C
  C16      1.0000 0.08430  0.93840  0.22910  Biso   1.000  C
  H13      1.0000 0.55760  0.48130  0.73660  Biso   1.000  H
  H14      1.0000 0.94240  0.98130  0.76340  Biso   1.000  H
  H15      1.0000 0.44240  0.51870  0.26340  Biso   1.000  H
  H16      1.0000 0.05760  0.01870  0.23660  Biso   1.000  H
  C17      1.0000 0.67790  0.75110  0.81060  Biso   1.000  C
  C18      1.0000 0.82210  0.25110  0.68940  Biso   1.000  C
  C19      1.0000 0.32210  0.24890  0.18940  Biso   1.000  C
  C20      1.0000 0.17790  0.74890  0.31060  Biso   1.000  C
  C21      1.0000 0.65430  0.79680  0.70740  Biso   1.000  C
  C22      1.0000 0.84570  0.29680  0.79260  Biso   1.000  C
  C23      1.0000 0.34570  0.20320  0.29260  Biso   1.000  C
  C24      1.0000 0.15430  0.70320  0.20740  Biso   1.000  C
  H17      1.0000 0.67590  0.87770  0.69740  Biso   1.000  H
  H18      1.0000 0.82410  0.37770  0.80260  Biso   1.000  H
  H19      1.0000 0.32410  0.12230  0.30260  Biso   1.000  H
  H20      1.0000 0.17590  0.62230  0.19740  Biso   1.000  H
  C25      1.0000 0.59930  0.72350  0.61980  Biso   1.000  C
  C26      1.0000 0.90070  0.22350  0.88020  Biso   1.000  C
  C27      1.0000 0.40070  0.27650  0.38020  Biso   1.000  C
  C28      1.0000 0.09930  0.77650  0.11980  Biso   1.000  C
  H21      1.0000 0.58600  0.75590  0.55140  Biso   1.000  H
  H22      1.0000 0.91400  0.25590  0.94860  Biso   1.000  H
  H23      1.0000 0.41400  0.24410  0.44860  Biso   1.000  H
  H24      1.0000 0.08600  0.74410  0.05140  Biso   1.000  H
  S1       1.0000 0.23201  0.62029  0.79654  Biso   1.000  S
  S2       1.0000 0.26799  0.12029  0.70346  Biso   1.000  S
  S3       1.0000 0.76799  0.37971  0.20346  Biso   1.000  S
  S4       1.0000 0.73201  0.87971  0.29654  Biso   1.000  S
  C29      1.0000 0.20950  0.74280  0.70630  Biso   1.000  C
  C30      1.0000 0.29050  0.24280  0.79370  Biso   1.000  C
  C31      1.0000 0.79050  0.25720  0.29370  Biso   1.000  C
  C32      1.0000 0.70950  0.75720  0.20630  Biso   1.000  C
  H25      1.0000 0.31070  0.77070  0.70190  Biso   1.000  H
  H26      1.0000 0.18930  0.27070  0.79810  Biso   1.000  H
  H27      1.0000 0.68930  0.22930  0.29810  Biso   1.000  H
  H28      1.0000 0.81070  0.72930  0.20190  Biso   1.000  H
  H29      1.0000 0.15510  0.80740  0.73130  Biso   1.000  H
  H30      1.0000 0.34490  0.30740  0.76870  Biso   1.000  H
  H31      1.0000 0.84490  0.19260  0.26870  Biso   1.000  H
  H32      1.0000 0.65510  0.69260  0.23130  Biso   1.000  H
  H33      1.0000 0.15060  0.71720  0.63650  Biso   1.000  H
  H34      1.0000 0.34940  0.21720  0.86350  Biso   1.000  H
  H35      1.0000 0.84940  0.28280  0.36350  Biso   1.000  H
  H36      1.0000 0.65060  0.78280  0.13650  Biso   1.000  H
  O21      1.0000 0.28860  0.67370  0.90650  Biso   1.000  O
  O22      1.0000 0.21140  0.17370  0.59350  Biso   1.000  O
  O23      1.0000 0.71140  0.32630  0.09350  Biso   1.000  O
  O24      1.0000 0.78860  0.82630  0.40650  Biso   1.000  O
  C33      1.0000 0.03780  0.58870  0.78460  Biso   1.000  C
  C34      1.0000 0.46220  0.08870  0.71540  Biso   1.000  C
  C35      1.0000 0.96220  0.41130  0.21540  Biso   1.000  C
  C36      1.0000 0.53780  0.91130  0.28460  Biso   1.000  C
  H37      1.0000 0.02910  0.52230  0.83080  Biso   1.000  H
  H38      1.0000 0.47090  0.02230  0.66920  Biso   1.000  H
  H39      1.0000 0.97090  0.47770  0.16920  Biso   1.000  H
  H40      1.0000 0.52910  0.97770  0.33080  Biso   1.000  H
  H41      1.0000 0.98840  0.56770  0.71150  Biso   1.000  H
  H42      1.0000 0.51160  0.06770  0.78850  Biso   1.000  H
  H43      1.0000 0.01160  0.43230  0.28850  Biso   1.000  H
  H44      1.0000 0.48840  0.93230  0.21150  Biso   1.000  H
  H45      1.0000 0.98730  0.65860  0.80490  Biso   1.000  H
  H46      1.0000 0.51270  0.15860  0.69510  Biso   1.000  H
  H47      1.0000 0.01270  0.34140  0.19510  Biso   1.000  H
  H48      1.0000 0.48730  0.84140  0.30490  Biso   1.000  H
