data_image0
_cell_length_a       6.007
_cell_length_b       22.329
_cell_length_c       5.8015
_cell_angle_alpha    90
_cell_angle_beta     105.784
_cell_angle_gamma    90

_symmetry_space_group_name_H-M    "P 1"
_symmetry_int_tables_number       1

loop_
  _symmetry_equiv_pos_as_xyz
  'x, y, z'

loop_
  _atom_site_label
  _atom_site_occupancy
  _atom_site_fract_x
  _atom_site_fract_y
  _atom_site_fract_z
  _atom_site_thermal_displace_type
  _atom_site_B_iso_or_equiv
  _atom_site_type_symbol
  Cu1      1.0000 0.41466  0.25000  0.14609  Biso   1.000  Cu
  Cu2      1.0000 0.58534  0.75000  0.85391  Biso   1.000  Cu
  O1       1.0000 0.41210  0.33709  0.13600  Biso   1.000  O
  O2       1.0000 0.58790  0.83709  0.86400  Biso   1.000  O
  O3       1.0000 0.58790  0.66291  0.86400  Biso   1.000  O
  O4       1.0000 0.41210  0.16291  0.13600  Biso   1.000  O
  O5       1.0000 0.09540  0.33490  0.26380  Biso   1.000  O
  O6       1.0000 0.90460  0.83490  0.73620  Biso   1.000  O
  O7       1.0000 0.90460  0.66510  0.73620  Biso   1.000  O
  O8       1.0000 0.09540  0.16510  0.26380  Biso   1.000  O
  O9       1.0000 0.29310  0.48660  0.63310  Biso   1.000  O
  O10      1.0000 0.70690  0.98660  0.36690  Biso   1.000  O
  O11      1.0000 0.70690  0.51340  0.36690  Biso   1.000  O
  O12      1.0000 0.29310  0.01340  0.63310  Biso   1.000  O
  O13      1.0000 0.75650  0.25000  0.06800  Biso   1.000  O
  O14      1.0000 0.24350  0.75000  0.93200  Biso   1.000  O
  O15      1.0000 0.53740  0.25000  0.50170  Biso   1.000  O
  O16      1.0000 0.46260  0.75000  0.49830  Biso   1.000  O
  O17      1.0000 0.22030  0.25000  0.80740  Biso   1.000  O
  O18      1.0000 0.77970  0.75000  0.19260  Biso   1.000  O
  O19      1.0000 0.33760  0.91040  0.12570  Biso   1.000  O
  O20      1.0000 0.66240  0.41040  0.87430  Biso   1.000  O
  O21      1.0000 0.66240  0.08960  0.87430  Biso   1.000  O
  O22      1.0000 0.33760  0.58960  0.12570  Biso   1.000  O
  O23      1.0000 0.10660  0.66700  0.35650  Biso   1.000  O
  O24      1.0000 0.89340  0.16700  0.64350  Biso   1.000  O
  O25      1.0000 0.89340  0.33300  0.64350  Biso   1.000  O
  O26      1.0000 0.10660  0.83300  0.35650  Biso   1.000  O
  O27      1.0000 0.00940  0.64370  0.31890  Biso   1.000  O
  O28      1.0000 0.99060  0.14370  0.68110  Biso   1.000  O
  O29      1.0000 0.99060  0.35630  0.68110  Biso   1.000  O
  O30      1.0000 0.00940  0.85630  0.31890  Biso   1.000  O
  N1       1.0000 0.06680  0.45853  0.26640  Biso   1.000  N
  N2       1.0000 0.93320  0.95853  0.73360  Biso   1.000  N
  N3       1.0000 0.93320  0.54147  0.73360  Biso   1.000  N
  N4       1.0000 0.06680  0.04147  0.26640  Biso   1.000  N
  C1       1.0000 0.24690  0.36223  0.19970  Biso   1.000  C
  C2       1.0000 0.75310  0.86223  0.80030  Biso   1.000  C
  C3       1.0000 0.75310  0.63777  0.80030  Biso   1.000  C
  C4       1.0000 0.24690  0.13777  0.19970  Biso   1.000  C
  C5       1.0000 0.24770  0.42979  0.18600  Biso   1.000  C
  C6       1.0000 0.75230  0.92979  0.81400  Biso   1.000  C
  C7       1.0000 0.75230  0.57021  0.81400  Biso   1.000  C
  C8       1.0000 0.24770  0.07021  0.18600  Biso   1.000  C
  C9       1.0000 0.10690  0.48468  0.47890  Biso   1.000  C
  C10      1.0000 0.89310  0.98468  0.52110  Biso   1.000  C
  C11      1.0000 0.89310  0.51532  0.52110  Biso   1.000  C
  C12      1.0000 0.10690  0.01532  0.47890  Biso   1.000  C
  H1       1.0000 0.93400  0.46020  0.19100  Biso   1.000  H
  H2       1.0000 0.06600  0.96020  0.80900  Biso   1.000  H
  H3       1.0000 0.06600  0.53980  0.80900  Biso   1.000  H
  H4       1.0000 0.93400  0.03980  0.19100  Biso   1.000  H
  H5       1.0000 0.84900  0.21350  0.11300  Biso   1.000  H
  H6       1.0000 0.15100  0.71350  0.88700  Biso   1.000  H
  H7       1.0000 0.15100  0.78650  0.88700  Biso   1.000  H
  H8       1.0000 0.84900  0.28650  0.11300  Biso   1.000  H
  H9       1.0000 0.63300  0.28000  0.55400  Biso   1.000  H
  H10      1.0000 0.36700  0.78000  0.44600  Biso   1.000  H
  H11      1.0000 0.36700  0.72000  0.44600  Biso   1.000  H
  H12      1.0000 0.63300  0.22000  0.55400  Biso   1.000  H
  H13      1.0000 0.14600  0.22060  0.77100  Biso   1.000  H
  H14      1.0000 0.85400  0.72060  0.22900  Biso   1.000  H
  H15      1.0000 0.85400  0.77940  0.22900  Biso   1.000  H
  H16      1.0000 0.14600  0.27940  0.77100  Biso   1.000  H
  H17      1.0000 0.38300  0.44600  0.27800  Biso   1.000  H
  H18      1.0000 0.61700  0.94600  0.72200  Biso   1.000  H
  H19      1.0000 0.61700  0.55400  0.72200  Biso   1.000  H
  H20      1.0000 0.38300  0.05400  0.27800  Biso   1.000  H
  H21      1.0000 0.21600  0.44100  0.02230  Biso   1.000  H
  H22      1.0000 0.78400  0.94100  0.97770  Biso   1.000  H
  H23      1.0000 0.78400  0.55900  0.97770  Biso   1.000  H
  H24      1.0000 0.21600  0.05900  0.02230  Biso   1.000  H
  H25      1.0000 0.40200  0.89400  0.04400  Biso   1.000  H
  H26      1.0000 0.59800  0.39400  0.95600  Biso   1.000  H
  H27      1.0000 0.59800  0.10600  0.95600  Biso   1.000  H
  H28      1.0000 0.40200  0.60600  0.04400  Biso   1.000  H
  H29      1.0000 0.42100  0.92800  0.20200  Biso   1.000  H
  H30      1.0000 0.57900  0.42800  0.79800  Biso   1.000  H
  H31      1.0000 0.57900  0.07200  0.79800  Biso   1.000  H
  H32      1.0000 0.42100  0.57200  0.20200  Biso   1.000  H
