data_image0
_cell_length_a       10.6775
_cell_length_b       16.3729
_cell_length_c       9.9689
_cell_angle_alpha    90
_cell_angle_beta     106.506
_cell_angle_gamma    90

_symmetry_space_group_name_H-M    "P 1"
_symmetry_int_tables_number       1

loop_
  _symmetry_equiv_pos_as_xyz
  'x, y, z'

loop_
  _atom_site_label
  _atom_site_occupancy
  _atom_site_fract_x
  _atom_site_fract_y
  _atom_site_fract_z
  _atom_site_thermal_displace_type
  _atom_site_B_iso_or_equiv
  _atom_site_type_symbol
  Cu1      1.0000 0.74280  0.17170  0.07520  Biso   1.000  Cu
  Cu2      1.0000 0.25720  0.67170  0.42480  Biso   1.000  Cu
  Cu3      1.0000 0.25720  0.82830  0.92480  Biso   1.000  Cu
  Cu4      1.0000 0.74280  0.32830  0.57520  Biso   1.000  Cu
  O1       1.0000 0.88350  0.07380  0.03360  Biso   1.000  O
  O2       1.0000 0.11650  0.57380  0.46640  Biso   1.000  O
  O3       1.0000 0.11650  0.92620  0.96640  Biso   1.000  O
  O4       1.0000 0.88350  0.42620  0.53360  Biso   1.000  O
  O5       1.0000 0.64330  0.07630  0.12180  Biso   1.000  O
  O6       1.0000 0.35670  0.57630  0.37820  Biso   1.000  O
  O7       1.0000 0.35670  0.92370  0.87820  Biso   1.000  O
  O8       1.0000 0.64330  0.42370  0.62180  Biso   1.000  O
  O9       1.0000 0.48900  0.10900  0.28100  Biso   1.000  O
  O10      1.0000 0.51100  0.60900  0.21900  Biso   1.000  O
  O11      1.0000 0.51100  0.89100  0.71900  Biso   1.000  O
  O12      1.0000 0.48900  0.39100  0.78100  Biso   1.000  O
  N1       1.0000 0.84780  0.18450  0.27870  Biso   1.000  N
  N2       1.0000 0.15220  0.68450  0.22130  Biso   1.000  N
  N3       1.0000 0.15220  0.81550  0.72130  Biso   1.000  N
  N4       1.0000 0.84780  0.31550  0.77870  Biso   1.000  N
  N5       1.0000 0.61520  0.26220  0.15830  Biso   1.000  N
  N6       1.0000 0.38480  0.76220  0.34170  Biso   1.000  N
  N7       1.0000 0.38480  0.73780  0.84170  Biso   1.000  N
  N8       1.0000 0.61520  0.23780  0.65830  Biso   1.000  N
  N9       1.0000 0.84680  0.24510  0.49570  Biso   1.000  N
  N10      1.0000 0.15320  0.74510  0.00430  Biso   1.000  N
  N11      1.0000 0.15320  0.75490  0.50430  Biso   1.000  N
  N12      1.0000 0.84680  0.25490  0.99570  Biso   1.000  N
  N13      1.0000 0.62760  0.32480  0.37530  Biso   1.000  N
  N14      1.0000 0.37240  0.82480  0.12470  Biso   1.000  N
  N15      1.0000 0.37240  0.67520  0.62470  Biso   1.000  N
  N16      1.0000 0.62760  0.17520  0.87530  Biso   1.000  N
  C1       1.0000 0.95830  0.14660  0.34170  Biso   1.000  C
  C2       1.0000 0.04170  0.64660  0.15830  Biso   1.000  C
  C3       1.0000 0.04170  0.85340  0.65830  Biso   1.000  C
  C4       1.0000 0.95830  0.35340  0.84170  Biso   1.000  C
  C5       1.0000 0.01730  0.15580  0.48280  Biso   1.000  C
  C6       1.0000 0.98270  0.65580  0.01720  Biso   1.000  C
  C7       1.0000 0.98270  0.84420  0.51720  Biso   1.000  C
  C8       1.0000 0.01730  0.34420  0.98280  Biso   1.000  C
  C9       1.0000 0.95980  0.20600  0.55800  Biso   1.000  C
  C10      1.0000 0.04020  0.70600  0.94200  Biso   1.000  C
  C11      1.0000 0.04020  0.79400  0.44200  Biso   1.000  C
  C12      1.0000 0.95980  0.29400  0.05800  Biso   1.000  C
  C13      1.0000 0.79620  0.23240  0.35860  Biso   1.000  C
  C14      1.0000 0.20380  0.73240  0.14140  Biso   1.000  C
  C15      1.0000 0.20380  0.76760  0.64140  Biso   1.000  C
  C16      1.0000 0.79620  0.26760  0.85860  Biso   1.000  C
  C17      1.0000 0.67200  0.27550  0.29030  Biso   1.000  C
  C18      1.0000 0.32800  0.77550  0.20970  Biso   1.000  C
  C19      1.0000 0.32800  0.72450  0.70970  Biso   1.000  C
  C20      1.0000 0.67200  0.22450  0.79030  Biso   1.000  C
  C21      1.0000 0.50300  0.30160  0.10340  Biso   1.000  C
  C22      1.0000 0.49700  0.80160  0.39660  Biso   1.000  C
  C23      1.0000 0.49700  0.69840  0.89660  Biso   1.000  C
  C24      1.0000 0.50300  0.19840  0.60340  Biso   1.000  C
  C25      1.0000 0.45070  0.35300  0.18300  Biso   1.000  C
  C26      1.0000 0.54930  0.85300  0.31700  Biso   1.000  C
  C27      1.0000 0.54930  0.64700  0.81700  Biso   1.000  C
  C28      1.0000 0.45070  0.14700  0.68300  Biso   1.000  C
  C29      1.0000 0.51490  0.36290  0.31880  Biso   1.000  C
  C30      1.0000 0.48510  0.86290  0.18120  Biso   1.000  C
  C31      1.0000 0.48510  0.63710  0.68120  Biso   1.000  C
  C32      1.0000 0.51490  0.13710  0.81880  Biso   1.000  C
  Cl1      1.0000 0.20110  0.13480  0.91940  Biso   1.000  Cl
  Cl2      1.0000 0.79890  0.63480  0.58060  Biso   1.000  Cl
  Cl3      1.0000 0.79890  0.86520  0.08060  Biso   1.000  Cl
  Cl4      1.0000 0.20110  0.36520  0.41940  Biso   1.000  Cl
  O13      1.0000 0.20950  0.07800  0.80310  Biso   1.000  O
  O14      1.0000 0.79050  0.57800  0.69690  Biso   1.000  O
  O15      1.0000 0.79050  0.92200  0.19690  Biso   1.000  O
  O16      1.0000 0.20950  0.42200  0.30310  Biso   1.000  O
  O17      1.0000 0.23820  0.08380  0.03920  Biso   1.000  O
  O18      1.0000 0.76180  0.58380  0.46080  Biso   1.000  O
  O19      1.0000 0.76180  0.91620  0.96080  Biso   1.000  O
  O20      1.0000 0.23820  0.41620  0.53920  Biso   1.000  O
  O21      1.0000 0.06390  0.15310  0.89240  Biso   1.000  O
  O22      1.0000 0.93610  0.65310  0.60760  Biso   1.000  O
  O23      1.0000 0.93610  0.84690  0.10760  Biso   1.000  O
  O24      1.0000 0.06390  0.34690  0.39240  Biso   1.000  O
  O25      1.0000 0.26270  0.20460  0.92920  Biso   1.000  O
  O26      1.0000 0.73730  0.70460  0.57080  Biso   1.000  O
  O27      1.0000 0.73730  0.79540  0.07080  Biso   1.000  O
  O28      1.0000 0.26270  0.29540  0.42920  Biso   1.000  O
  Cl5      1.0000 0.20110  0.15930  0.97710  Biso   1.000  Cl
  Cl6      1.0000 0.79890  0.65930  0.52290  Biso   1.000  Cl
  Cl7      1.0000 0.79890  0.84070  0.02290  Biso   1.000  Cl
  Cl8      1.0000 0.20110  0.34070  0.47710  Biso   1.000  Cl
  O29      1.0000 0.21320  0.19440  0.10880  Biso   1.000  O
  O30      1.0000 0.78680  0.69440  0.39120  Biso   1.000  O
  O31      1.0000 0.78680  0.80560  0.89120  Biso   1.000  O
  O32      1.0000 0.21320  0.30560  0.60880  Biso   1.000  O
  O33      1.0000 0.29180  0.09250  0.98960  Biso   1.000  O
  O34      1.0000 0.70820  0.59250  0.51040  Biso   1.000  O
  O35      1.0000 0.70820  0.90750  0.01040  Biso   1.000  O
  O36      1.0000 0.29180  0.40750  0.48960  Biso   1.000  O
  O37      1.0000 0.08100  0.11890  0.91610  Biso   1.000  O
  O38      1.0000 0.91900  0.61890  0.58390  Biso   1.000  O
  O39      1.0000 0.91900  0.88110  0.08390  Biso   1.000  O
  O40      1.0000 0.08100  0.38110  0.41610  Biso   1.000  O
  O41      1.0000 0.23140  0.21010  0.84700  Biso   1.000  O
  O42      1.0000 0.76860  0.71010  0.65300  Biso   1.000  O
  O43      1.0000 0.76860  0.78990  0.15300  Biso   1.000  O
  O44      1.0000 0.23140  0.28990  0.34700  Biso   1.000  O
  Cl9      1.0000 0.73170  0.01570  0.59480  Biso   1.000  Cl
  Cl10     1.0000 0.26830  0.51570  0.90520  Biso   1.000  Cl
  Cl11     1.0000 0.26830  0.98430  0.40520  Biso   1.000  Cl
  Cl12     1.0000 0.73170  0.48430  0.09480  Biso   1.000  Cl
  O45      1.0000 0.75350  0.93680  0.62720  Biso   1.000  O
  O46      1.0000 0.24650  0.43680  0.87280  Biso   1.000  O
  O47      1.0000 0.24650  0.06320  0.37280  Biso   1.000  O
  O48      1.0000 0.75350  0.56320  0.12720  Biso   1.000  O
  O49      1.0000 0.60220  0.01610  0.55650  Biso   1.000  O
  O50      1.0000 0.39780  0.51610  0.94350  Biso   1.000  O
  O51      1.0000 0.39780  0.98390  0.44350  Biso   1.000  O
  O52      1.0000 0.60220  0.48390  0.05650  Biso   1.000  O
  O53      1.0000 0.79970  0.08620  0.69270  Biso   1.000  O
  O54      1.0000 0.20030  0.58620  0.80730  Biso   1.000  O
  O55      1.0000 0.20030  0.91380  0.30730  Biso   1.000  O
  O56      1.0000 0.79970  0.41380  0.19270  Biso   1.000  O
  O57      1.0000 0.76940  0.01650  0.46520  Biso   1.000  O
  O58      1.0000 0.23060  0.51650  0.03480  Biso   1.000  O
  O59      1.0000 0.23060  0.98350  0.53480  Biso   1.000  O
  O60      1.0000 0.76940  0.48350  0.96520  Biso   1.000  O
  Cl13     1.0000 0.77820  0.02300  0.60930  Biso   1.000  Cl
  Cl14     1.0000 0.22180  0.52300  0.89070  Biso   1.000  Cl
  Cl15     1.0000 0.22180  0.97700  0.39070  Biso   1.000  Cl
  Cl16     1.0000 0.77820  0.47700  0.10930  Biso   1.000  Cl
  O61      1.0000 0.90310  0.01770  0.60270  Biso   1.000  O
  O62      1.0000 0.09690  0.51770  0.89730  Biso   1.000  O
  O63      1.0000 0.09690  0.98230  0.39730  Biso   1.000  O
  O64      1.0000 0.90310  0.48230  0.10270  Biso   1.000  O
  O65      1.0000 0.73140  0.04580  0.71330  Biso   1.000  O
  O66      1.0000 0.26860  0.54580  0.78670  Biso   1.000  O
  O67      1.0000 0.26860  0.95420  0.28670  Biso   1.000  O
  O68      1.0000 0.73140  0.45420  0.21330  Biso   1.000  O
  O69      1.0000 0.70830  0.07350  0.49000  Biso   1.000  O
  O70      1.0000 0.29170  0.57350  0.01000  Biso   1.000  O
  O71      1.0000 0.29170  0.92650  0.51000  Biso   1.000  O
  O72      1.0000 0.70830  0.42650  0.99000  Biso   1.000  O
  H1       1.0000 0.92490  0.09360  0.97990  Biso   1.000  H
  H2       1.0000 0.07510  0.59360  0.52010  Biso   1.000  H
  H3       1.0000 0.07510  0.90640  0.02010  Biso   1.000  H
  H4       1.0000 0.92490  0.40640  0.47990  Biso   1.000  H
  H5       1.0000 0.83650  0.04430  0.96840  Biso   1.000  H
  H6       1.0000 0.16350  0.54430  0.53160  Biso   1.000  H
  H7       1.0000 0.16350  0.95570  0.03160  Biso   1.000  H
  H8       1.0000 0.83650  0.45570  0.46840  Biso   1.000  H
  H9       1.0000 0.56540  0.08330  0.12520  Biso   1.000  H
  H10      1.0000 0.43460  0.58330  0.37480  Biso   1.000  H
  H11      1.0000 0.43460  0.91670  0.87480  Biso   1.000  H
  H12      1.0000 0.56540  0.41670  0.62520  Biso   1.000  H
  H13      1.0000 0.66890  0.03430  0.17220  Biso   1.000  H
  H14      1.0000 0.33110  0.53430  0.32780  Biso   1.000  H
  H15      1.0000 0.33110  0.96570  0.82780  Biso   1.000  H
  H16      1.0000 0.66890  0.46570  0.67220  Biso   1.000  H
  H17      1.0000 0.45120  0.14380  0.31950  Biso   1.000  H
  H18      1.0000 0.54880  0.64380  0.18050  Biso   1.000  H
  H19      1.0000 0.54880  0.85620  0.68050  Biso   1.000  H
  H20      1.0000 0.45120  0.35620  0.81950  Biso   1.000  H
  H21      1.0000 0.56510  0.12590  0.32420  Biso   1.000  H
  H22      1.0000 0.43490  0.62590  0.17580  Biso   1.000  H
  H23      1.0000 0.43490  0.87410  0.67580  Biso   1.000  H
  H24      1.0000 0.56510  0.37410  0.82420  Biso   1.000  H
  H25      1.0000 0.99860  0.11290  0.28690  Biso   1.000  H
  H26      1.0000 0.00140  0.61290  0.21310  Biso   1.000  H
  H27      1.0000 0.00140  0.88710  0.71310  Biso   1.000  H
  H28      1.0000 0.99860  0.38710  0.78690  Biso   1.000  H
  H29      1.0000 0.09620  0.12680  0.52800  Biso   1.000  H
  H30      1.0000 0.90380  0.62680  0.97200  Biso   1.000  H
  H31      1.0000 0.90380  0.87320  0.47200  Biso   1.000  H
  H32      1.0000 0.09620  0.37320  0.02800  Biso   1.000  H
  H33      1.0000 0.99940  0.21270  0.65670  Biso   1.000  H
  H34      1.0000 0.00060  0.71270  0.84330  Biso   1.000  H
  H35      1.0000 0.00060  0.78730  0.34330  Biso   1.000  H
  H36      1.0000 0.99940  0.28730  0.15670  Biso   1.000  H
  H37      1.0000 0.45740  0.29350  0.00640  Biso   1.000  H
  H38      1.0000 0.54260  0.79350  0.49360  Biso   1.000  H
  H39      1.0000 0.54260  0.70650  0.99360  Biso   1.000  H
  H40      1.0000 0.45740  0.20650  0.50640  Biso   1.000  H
  H41      1.0000 0.36880  0.37990  0.14290  Biso   1.000  H
  H42      1.0000 0.63120  0.87990  0.35710  Biso   1.000  H
  H43      1.0000 0.63120  0.62010  0.85710  Biso   1.000  H
  H44      1.0000 0.36880  0.12010  0.64290  Biso   1.000  H
  H45      1.0000 0.48070  0.39930  0.37530  Biso   1.000  H
  H46      1.0000 0.51930  0.89930  0.12470  Biso   1.000  H
  H47      1.0000 0.51930  0.60070  0.62470  Biso   1.000  H
  H48      1.0000 0.48070  0.10070  0.87530  Biso   1.000  H
