data_image0
_cell_length_a       9.894
_cell_length_b       16.171
_cell_length_c       10.702
_cell_angle_alpha    90
_cell_angle_beta     106.76
_cell_angle_gamma    90

_symmetry_space_group_name_H-M    "P 1"
_symmetry_int_tables_number       1

loop_
  _symmetry_equiv_pos_as_xyz
  'x, y, z'

loop_
  _atom_site_label
  _atom_site_occupancy
  _atom_site_fract_x
  _atom_site_fract_y
  _atom_site_fract_z
  _atom_site_thermal_displace_type
  _atom_site_B_iso_or_equiv
  _atom_site_type_symbol
  Cu1      1.0000 0.06970  0.16910  0.24170  Biso   1.000  Cu
  Cu2      1.0000 0.43030  0.66910  0.75830  Biso   1.000  Cu
  Cu3      1.0000 0.93030  0.83090  0.75830  Biso   1.000  Cu
  Cu4      1.0000 0.56970  0.33090  0.24170  Biso   1.000  Cu
  Cl1      1.0000 0.42120  0.35770  0.70130  Biso   1.000  Cl
  Cl2      1.0000 0.07880  0.85770  0.29870  Biso   1.000  Cl
  Cl3      1.0000 0.57880  0.64230  0.29870  Biso   1.000  Cl
  Cl4      1.0000 0.92120  0.14230  0.70130  Biso   1.000  Cl
  Cl5      1.0000 0.39480  0.98260  0.74530  Biso   1.000  Cl
  Cl6      1.0000 0.10520  0.48260  0.25470  Biso   1.000  Cl
  Cl7      1.0000 0.60520  0.01740  0.25470  Biso   1.000  Cl
  Cl8      1.0000 0.89480  0.51740  0.74530  Biso   1.000  Cl
  N1       1.0000 0.99210  0.25460  0.34490  Biso   1.000  N
  N2       1.0000 0.50790  0.75460  0.65510  Biso   1.000  N
  N3       1.0000 0.00790  0.74540  0.65510  Biso   1.000  N
  N4       1.0000 0.49210  0.24540  0.34490  Biso   1.000  N
  N5       1.0000 0.86860  0.17590  0.12700  Biso   1.000  N
  N6       1.0000 0.63140  0.67590  0.87300  Biso   1.000  N
  N7       1.0000 0.13140  0.82410  0.87300  Biso   1.000  N
  N8       1.0000 0.36860  0.32410  0.12700  Biso   1.000  N
  N9       1.0000 0.65420  0.23980  0.11300  Biso   1.000  N
  N10      1.0000 0.84580  0.73980  0.88700  Biso   1.000  N
  N11      1.0000 0.34580  0.76020  0.88700  Biso   1.000  N
  N12      1.0000 0.15420  0.26020  0.11300  Biso   1.000  N
  N13      1.0000 0.77480  0.31690  0.34410  Biso   1.000  N
  N14      1.0000 0.72520  0.81690  0.65590  Biso   1.000  N
  N15      1.0000 0.22520  0.68310  0.65590  Biso   1.000  N
  N16      1.0000 0.27480  0.18310  0.34410  Biso   1.000  N
  C1       1.0000 0.81320  0.13640  0.01390  Biso   1.000  C
  C2       1.0000 0.68680  0.63640  0.98610  Biso   1.000  C
  C3       1.0000 0.18680  0.86360  0.98610  Biso   1.000  C
  C4       1.0000 0.31320  0.36360  0.01390  Biso   1.000  C
  C5       1.0000 0.67530  0.14960  0.94680  Biso   1.000  C
  C6       1.0000 0.82470  0.64960  0.05320  Biso   1.000  C
  C7       1.0000 0.32470  0.85040  0.05320  Biso   1.000  C
  C8       1.0000 0.17530  0.35040  0.94680  Biso   1.000  C
  C9       1.0000 0.59690  0.20140  0.99810  Biso   1.000  C
  C10      1.0000 0.90310  0.70140  0.00190  Biso   1.000  C
  C11      1.0000 0.40310  0.79860  0.00190  Biso   1.000  C
  C12      1.0000 0.09690  0.29860  0.99810  Biso   1.000  C
  C13      1.0000 0.78570  0.22370  0.17080  Biso   1.000  C
  C14      1.0000 0.71430  0.72370  0.82920  Biso   1.000  C
  C15      1.0000 0.21430  0.77630  0.82920  Biso   1.000  C
  C16      1.0000 0.28570  0.27630  0.17080  Biso   1.000  C
  C17      1.0000 0.85200  0.26770  0.29410  Biso   1.000  C
  C18      1.0000 0.64800  0.76770  0.70590  Biso   1.000  C
  C19      1.0000 0.14800  0.73230  0.70590  Biso   1.000  C
  C20      1.0000 0.35200  0.23230  0.29410  Biso   1.000  C
  C21      1.0000 0.05600  0.29390  0.45460  Biso   1.000  C
  C22      1.0000 0.44400  0.79390  0.54540  Biso   1.000  C
  C23      1.0000 0.94400  0.70610  0.54540  Biso   1.000  C
  C24      1.0000 0.55600  0.20610  0.45460  Biso   1.000  C
  C25      1.0000 0.98260  0.34800  0.51110  Biso   1.000  C
  C26      1.0000 0.51740  0.84800  0.48890  Biso   1.000  C
  C27      1.0000 0.01740  0.65200  0.48890  Biso   1.000  C
  C28      1.0000 0.48260  0.15200  0.51110  Biso   1.000  C
  C29      1.0000 0.84220  0.35550  0.45530  Biso   1.000  C
  C30      1.0000 0.65780  0.85550  0.54470  Biso   1.000  C
  C31      1.0000 0.15780  0.64450  0.54470  Biso   1.000  C
  C32      1.0000 0.34220  0.14450  0.45530  Biso   1.000  C
  O1       1.0000 0.28310  0.10700  0.99800  Biso   1.000  O
  O2       1.0000 0.21690  0.60700  0.00200  Biso   1.000  O
  O3       1.0000 0.71690  0.89300  0.00200  Biso   1.000  O
  O4       1.0000 0.78310  0.39300  0.99800  Biso   1.000  O
  O5       1.0000 0.02770  0.07050  0.38420  Biso   1.000  O
  O6       1.0000 0.47230  0.57050  0.61580  Biso   1.000  O
  O7       1.0000 0.97230  0.92950  0.61580  Biso   1.000  O
  O8       1.0000 0.52770  0.42950  0.38420  Biso   1.000  O
  O9       1.0000 0.11680  0.07380  0.14260  Biso   1.000  O
  O10      1.0000 0.38320  0.57380  0.85740  Biso   1.000  O
  O11      1.0000 0.88320  0.92620  0.85740  Biso   1.000  O
  O12      1.0000 0.61680  0.42620  0.14260  Biso   1.000  O
  O13      1.0000 0.40580  0.35470  0.57130  Biso   1.000  O
  O14      1.0000 0.09420  0.85470  0.42870  Biso   1.000  O
  O15      1.0000 0.59420  0.64530  0.42870  Biso   1.000  O
  O16      1.0000 0.90580  0.14530  0.57130  Biso   1.000  O
  O17      1.0000 0.31190  0.42060  0.71510  Biso   1.000  O
  O18      1.0000 0.18810  0.92060  0.28490  Biso   1.000  O
  O19      1.0000 0.68810  0.57940  0.28490  Biso   1.000  O
  O20      1.0000 0.81190  0.07940  0.71510  Biso   1.000  O
  O21      1.0000 0.48720  0.40620  0.80250  Biso   1.000  O
  O22      1.0000 0.01280  0.90620  0.19750  Biso   1.000  O
  O23      1.0000 0.51280  0.59380  0.19750  Biso   1.000  O
  O24      1.0000 0.98720  0.09380  0.80250  Biso   1.000  O
  O25      1.0000 0.39180  0.28440  0.74120  Biso   1.000  O
  O26      1.0000 0.10820  0.78440  0.25880  Biso   1.000  O
  O27      1.0000 0.60820  0.71560  0.25880  Biso   1.000  O
  O28      1.0000 0.89180  0.21560  0.74120  Biso   1.000  O
  O29      1.0000 0.31130  0.28650  0.71330  Biso   1.000  O
  O30      1.0000 0.18870  0.78650  0.28670  Biso   1.000  O
  O31      1.0000 0.68870  0.71350  0.28670  Biso   1.000  O
  O32      1.0000 0.81130  0.21350  0.71330  Biso   1.000  O
  O33      1.0000 0.54250  0.41910  0.73620  Biso   1.000  O
  O34      1.0000 0.95750  0.91910  0.26380  Biso   1.000  O
  O35      1.0000 0.45750  0.58090  0.26380  Biso   1.000  O
  O36      1.0000 0.04250  0.08090  0.73620  Biso   1.000  O
  O37      1.0000 0.51760  0.34010  0.81740  Biso   1.000  O
  O38      1.0000 0.98240  0.84010  0.18260  Biso   1.000  O
  O39      1.0000 0.48240  0.65990  0.18260  Biso   1.000  O
  O40      1.0000 0.01760  0.15990  0.81740  Biso   1.000  O
  O41      1.0000 0.36640  0.06580  0.73850  Biso   1.000  O
  O42      1.0000 0.13360  0.56580  0.26150  Biso   1.000  O
  O43      1.0000 0.63360  0.93420  0.26150  Biso   1.000  O
  O44      1.0000 0.86640  0.43420  0.73850  Biso   1.000  O
  O45      1.0000 0.50920  0.92500  0.78790  Biso   1.000  O
  O46      1.0000 0.99080  0.42500  0.21210  Biso   1.000  O
  O47      1.0000 0.49080  0.07500  0.21210  Biso   1.000  O
  O48      1.0000 0.00920  0.57500  0.78790  Biso   1.000  O
  O49      1.0000 0.30980  0.91480  0.69390  Biso   1.000  O
  O50      1.0000 0.19020  0.41480  0.30610  Biso   1.000  O
  O51      1.0000 0.69020  0.08520  0.30610  Biso   1.000  O
  O52      1.0000 0.80980  0.58520  0.69390  Biso   1.000  O
  O53      1.0000 0.42290  0.99730  0.62690  Biso   1.000  O
  O54      1.0000 0.07710  0.49730  0.37310  Biso   1.000  O
  O55      1.0000 0.57710  0.00270  0.37310  Biso   1.000  O
  O56      1.0000 0.92290  0.50270  0.62690  Biso   1.000  O
  O57      1.0000 0.53080  0.97980  0.72420  Biso   1.000  O
  O58      1.0000 0.96920  0.47980  0.27580  Biso   1.000  O
  O59      1.0000 0.46920  0.02020  0.27580  Biso   1.000  O
  O60      1.0000 0.03080  0.52020  0.72420  Biso   1.000  O
  O61      1.0000 0.31900  0.96470  0.60390  Biso   1.000  O
  O62      1.0000 0.18100  0.46470  0.39610  Biso   1.000  O
  O63      1.0000 0.68100  0.03530  0.39610  Biso   1.000  O
  O64      1.0000 0.81900  0.53530  0.60390  Biso   1.000  O
  O65      1.0000 0.44010  0.97450  0.88890  Biso   1.000  O
  O66      1.0000 0.05990  0.47450  0.11110  Biso   1.000  O
  O67      1.0000 0.55990  0.02550  0.11110  Biso   1.000  O
  O68      1.0000 0.94010  0.52550  0.88890  Biso   1.000  O
  O69      1.0000 0.31360  0.95330  0.83320  Biso   1.000  O
  O70      1.0000 0.18640  0.45330  0.16680  Biso   1.000  O
  O71      1.0000 0.68640  0.04670  0.16680  Biso   1.000  O
  O72      1.0000 0.81360  0.54670  0.83320  Biso   1.000  O
  H1       1.0000 0.27400  0.16100  0.95800  Biso   1.000  H
  H2       1.0000 0.22600  0.66100  0.04200  Biso   1.000  H
  H3       1.0000 0.72600  0.83900  0.04200  Biso   1.000  H
  H4       1.0000 0.77400  0.33900  0.95800  Biso   1.000  H
  H5       1.0000 0.35300  0.08200  0.96200  Biso   1.000  H
  H6       1.0000 0.14700  0.58200  0.03800  Biso   1.000  H
  H7       1.0000 0.64700  0.91800  0.03800  Biso   1.000  H
  H8       1.0000 0.85300  0.41800  0.96200  Biso   1.000  H
  H9       1.0000 0.96600  0.03100  0.33200  Biso   1.000  H
  H10      1.0000 0.53400  0.53100  0.66800  Biso   1.000  H
  H11      1.0000 0.03400  0.96900  0.66800  Biso   1.000  H
  H12      1.0000 0.46600  0.46900  0.33200  Biso   1.000  H
  H13      1.0000 0.96500  0.10600  0.41100  Biso   1.000  H
  H14      1.0000 0.53500  0.60600  0.58900  Biso   1.000  H
  H15      1.0000 0.03500  0.89400  0.58900  Biso   1.000  H
  H16      1.0000 0.46500  0.39400  0.41100  Biso   1.000  H
  H17      1.0000 0.12500  0.03000  0.20100  Biso   1.000  H
  H18      1.0000 0.37500  0.53000  0.79900  Biso   1.000  H
  H19      1.0000 0.87500  0.97000  0.79900  Biso   1.000  H
  H20      1.0000 0.62500  0.47000  0.20100  Biso   1.000  H
  H21      1.0000 0.09100  0.04800  0.06000  Biso   1.000  H
  H22      1.0000 0.40900  0.54800  0.94000  Biso   1.000  H
  H23      1.0000 0.90900  0.95200  0.94000  Biso   1.000  H
  H24      1.0000 0.59100  0.45200  0.06000  Biso   1.000  H
  H25      1.0000 0.15500  0.28400  0.49600  Biso   1.000  H
  H26      1.0000 0.34500  0.78400  0.50400  Biso   1.000  H
  H27      1.0000 0.84500  0.71600  0.50400  Biso   1.000  H
  H28      1.0000 0.65500  0.21600  0.49600  Biso   1.000  H
  H29      1.0000 0.03000  0.38000  0.58800  Biso   1.000  H
  H30      1.0000 0.47000  0.88000  0.41200  Biso   1.000  H
  H31      1.0000 0.97000  0.62000  0.41200  Biso   1.000  H
  H32      1.0000 0.53000  0.12000  0.58800  Biso   1.000  H
  H33      1.0000 0.78900  0.39000  0.49700  Biso   1.000  H
  H34      1.0000 0.71100  0.89000  0.50300  Biso   1.000  H
  H35      1.0000 0.21100  0.61000  0.50300  Biso   1.000  H
  H36      1.0000 0.28900  0.11000  0.49700  Biso   1.000  H
  H37      1.0000 0.87000  0.10000  0.98000  Biso   1.000  H
  H38      1.0000 0.63000  0.60000  0.02000  Biso   1.000  H
  H39      1.0000 0.13000  0.90000  0.02000  Biso   1.000  H
  H40      1.0000 0.37000  0.40000  0.98000  Biso   1.000  H
  H41      1.0000 0.63400  0.12200  0.86400  Biso   1.000  H
  H42      1.0000 0.86600  0.62200  0.13600  Biso   1.000  H
  H43      1.0000 0.36600  0.87800  0.13600  Biso   1.000  H
  H44      1.0000 0.13400  0.37800  0.86400  Biso   1.000  H
  H45      1.0000 0.49900  0.21200  0.95100  Biso   1.000  H
  H46      1.0000 0.00100  0.71200  0.04900  Biso   1.000  H
  H47      1.0000 0.50100  0.78800  0.04900  Biso   1.000  H
  H48      1.0000 0.99900  0.28800  0.95100  Biso   1.000  H
