data_image0
_cell_length_a       20.041
_cell_length_b       10.056
_cell_length_c       21.447
_cell_angle_alpha    90
_cell_angle_beta     90
_cell_angle_gamma    90

_symmetry_space_group_name_H-M    "P 1"
_symmetry_int_tables_number       1

loop_
  _symmetry_equiv_pos_as_xyz
  'x, y, z'

loop_
  _atom_site_label
  _atom_site_occupancy
  _atom_site_fract_x
  _atom_site_fract_y
  _atom_site_fract_z
  _atom_site_thermal_displace_type
  _atom_site_B_iso_or_equiv
  _atom_site_type_symbol
  Cu1      1.0000 0.08870  0.11150  0.17230  Biso   1.000  Cu
  Cu2      1.0000 0.41130  0.61150  0.17230  Biso   1.000  Cu
  Cu3      1.0000 0.08870  0.38850  0.67230  Biso   1.000  Cu
  Cu4      1.0000 0.41130  0.88850  0.67230  Biso   1.000  Cu
  Cu5      1.0000 0.91130  0.88850  0.82770  Biso   1.000  Cu
  Cu6      1.0000 0.58870  0.38850  0.82770  Biso   1.000  Cu
  Cu7      1.0000 0.91130  0.61150  0.32770  Biso   1.000  Cu
  Cu8      1.0000 0.58870  0.11150  0.32770  Biso   1.000  Cu
  Cl1      1.0000 0.39670  0.11970  0.15890  Biso   1.000  Cl
  Cl2      1.0000 0.10330  0.61970  0.15890  Biso   1.000  Cl
  Cl3      1.0000 0.39670  0.38030  0.65890  Biso   1.000  Cl
  Cl4      1.0000 0.10330  0.88030  0.65890  Biso   1.000  Cl
  Cl5      1.0000 0.60330  0.88030  0.84110  Biso   1.000  Cl
  Cl6      1.0000 0.89670  0.38030  0.84110  Biso   1.000  Cl
  Cl7      1.0000 0.60330  0.61970  0.34110  Biso   1.000  Cl
  Cl8      1.0000 0.89670  0.11970  0.34110  Biso   1.000  Cl
  Cl9      1.0000 0.17900  0.17120  0.44590  Biso   1.000  Cl
  Cl10     1.0000 0.32100  0.67120  0.44590  Biso   1.000  Cl
  Cl11     1.0000 0.17900  0.32880  0.94590  Biso   1.000  Cl
  Cl12     1.0000 0.32100  0.82880  0.94590  Biso   1.000  Cl
  Cl13     1.0000 0.82100  0.82880  0.55410  Biso   1.000  Cl
  Cl14     1.0000 0.67900  0.32880  0.55410  Biso   1.000  Cl
  Cl15     1.0000 0.82100  0.67120  0.05410  Biso   1.000  Cl
  Cl16     1.0000 0.67900  0.17120  0.05410  Biso   1.000  Cl
  O1       1.0000 0.12850  0.97470  0.10220  Biso   1.000  O
  O2       1.0000 0.37150  0.47470  0.10220  Biso   1.000  O
  O3       1.0000 0.12850  0.52530  0.60220  Biso   1.000  O
  O4       1.0000 0.37150  0.02530  0.60220  Biso   1.000  O
  O5       1.0000 0.87150  0.02530  0.89780  Biso   1.000  O
  O6       1.0000 0.62850  0.52530  0.89780  Biso   1.000  O
  O7       1.0000 0.87150  0.47470  0.39780  Biso   1.000  O
  O8       1.0000 0.62850  0.97470  0.39780  Biso   1.000  O
  O9       1.0000 0.16890  0.24850  0.14000  Biso   1.000  O
  O10      1.0000 0.33110  0.74850  0.14000  Biso   1.000  O
  O11      1.0000 0.16890  0.25150  0.64000  Biso   1.000  O
  O12      1.0000 0.33110  0.75150  0.64000  Biso   1.000  O
  O13      1.0000 0.83110  0.75150  0.86000  Biso   1.000  O
  O14      1.0000 0.66890  0.25150  0.86000  Biso   1.000  O
  O15      1.0000 0.83110  0.74850  0.36000  Biso   1.000  O
  O16      1.0000 0.66890  0.24850  0.36000  Biso   1.000  O
  O17      1.0000 0.40710  0.08860  0.22130  Biso   1.000  O
  O18      1.0000 0.09290  0.58860  0.22130  Biso   1.000  O
  O19      1.0000 0.40710  0.41140  0.72130  Biso   1.000  O
  O20      1.0000 0.09290  0.91140  0.72130  Biso   1.000  O
  O21      1.0000 0.59290  0.91140  0.77870  Biso   1.000  O
  O22      1.0000 0.90710  0.41140  0.77870  Biso   1.000  O
  O23      1.0000 0.59290  0.58860  0.27870  Biso   1.000  O
  O24      1.0000 0.90710  0.08860  0.27870  Biso   1.000  O
  O25      1.0000 0.37380  0.01040  0.12490  Biso   1.000  O
  O26      1.0000 0.12620  0.51040  0.12490  Biso   1.000  O
  O27      1.0000 0.37380  0.48960  0.62490  Biso   1.000  O
  O28      1.0000 0.12620  0.98960  0.62490  Biso   1.000  O
  O29      1.0000 0.62620  0.98960  0.87510  Biso   1.000  O
  O30      1.0000 0.87380  0.48960  0.87510  Biso   1.000  O
  O31      1.0000 0.62620  0.51040  0.37510  Biso   1.000  O
  O32      1.0000 0.87380  0.01040  0.37510  Biso   1.000  O
  O33      1.0000 0.34760  0.22050  0.15680  Biso   1.000  O
  O34      1.0000 0.15240  0.72050  0.15680  Biso   1.000  O
  O35      1.0000 0.34760  0.27950  0.65680  Biso   1.000  O
  O36      1.0000 0.15240  0.77950  0.65680  Biso   1.000  O
  O37      1.0000 0.65240  0.77950  0.84320  Biso   1.000  O
  O38      1.0000 0.84760  0.27950  0.84320  Biso   1.000  O
  O39      1.0000 0.65240  0.72050  0.34320  Biso   1.000  O
  O40      1.0000 0.84760  0.22050  0.34320  Biso   1.000  O
  O41      1.0000 0.45980  0.15780  0.13710  Biso   1.000  O
  O42      1.0000 0.04020  0.65780  0.13710  Biso   1.000  O
  O43      1.0000 0.45980  0.34220  0.63710  Biso   1.000  O
  O44      1.0000 0.04020  0.84220  0.63710  Biso   1.000  O
  O45      1.0000 0.54020  0.84220  0.86290  Biso   1.000  O
  O46      1.0000 0.95980  0.34220  0.86290  Biso   1.000  O
  O47      1.0000 0.54020  0.65780  0.36290  Biso   1.000  O
  O48      1.0000 0.95980  0.15780  0.36290  Biso   1.000  O
  O49      1.0000 0.24360  0.21760  0.44940  Biso   1.000  O
  O50      1.0000 0.25640  0.71760  0.44940  Biso   1.000  O
  O51      1.0000 0.24360  0.28240  0.94940  Biso   1.000  O
  O52      1.0000 0.25640  0.78240  0.94940  Biso   1.000  O
  O53      1.0000 0.75640  0.78240  0.55060  Biso   1.000  O
  O54      1.0000 0.74360  0.28240  0.55060  Biso   1.000  O
  O55      1.0000 0.75640  0.71760  0.05060  Biso   1.000  O
  O56      1.0000 0.74360  0.21760  0.05060  Biso   1.000  O
  O57      1.0000 0.15240  0.13510  0.49810  Biso   1.000  O
  O58      1.0000 0.34760  0.63510  0.49810  Biso   1.000  O
  O59      1.0000 0.15240  0.36490  0.99810  Biso   1.000  O
  O60      1.0000 0.34760  0.86490  0.99810  Biso   1.000  O
  O61      1.0000 0.84760  0.86490  0.50190  Biso   1.000  O
  O62      1.0000 0.65240  0.36490  0.50190  Biso   1.000  O
  O63      1.0000 0.84760  0.63510  0.00190  Biso   1.000  O
  O64      1.0000 0.65240  0.13510  0.00190  Biso   1.000  O
  O65      1.0000 0.15570  0.16010  0.38960  Biso   1.000  O
  O66      1.0000 0.34430  0.66010  0.38960  Biso   1.000  O
  O67      1.0000 0.15570  0.33990  0.88960  Biso   1.000  O
  O68      1.0000 0.34430  0.83990  0.88960  Biso   1.000  O
  O69      1.0000 0.84430  0.83990  0.61040  Biso   1.000  O
  O70      1.0000 0.65570  0.33990  0.61040  Biso   1.000  O
  O71      1.0000 0.84430  0.66010  0.11040  Biso   1.000  O
  O72      1.0000 0.65570  0.16010  0.11040  Biso   1.000  O
  O73      1.0000 0.14230  0.30710  0.44290  Biso   1.000  O
  O74      1.0000 0.35770  0.80710  0.44290  Biso   1.000  O
  O75      1.0000 0.14230  0.19290  0.94290  Biso   1.000  O
  O76      1.0000 0.35770  0.69290  0.94290  Biso   1.000  O
  O77      1.0000 0.85770  0.69290  0.55710  Biso   1.000  O
  O78      1.0000 0.64230  0.19290  0.55710  Biso   1.000  O
  O79      1.0000 0.85770  0.80710  0.05710  Biso   1.000  O
  O80      1.0000 0.64230  0.30710  0.05710  Biso   1.000  O
  O81      1.0000 0.20010  0.01490  0.44230  Biso   1.000  O
  O82      1.0000 0.29990  0.51490  0.44230  Biso   1.000  O
  O83      1.0000 0.20010  0.48510  0.94230  Biso   1.000  O
  O84      1.0000 0.29990  0.98510  0.94230  Biso   1.000  O
  O85      1.0000 0.79990  0.98510  0.55770  Biso   1.000  O
  O86      1.0000 0.70010  0.48510  0.55770  Biso   1.000  O
  O87      1.0000 0.79990  0.51490  0.05770  Biso   1.000  O
  O88      1.0000 0.70010  0.01490  0.05770  Biso   1.000  O
  O89      1.0000 0.24430  0.08790  0.06000  Biso   1.000  O
  O90      1.0000 0.25570  0.58790  0.06000  Biso   1.000  O
  O91      1.0000 0.24430  0.41210  0.56000  Biso   1.000  O
  O92      1.0000 0.25570  0.91210  0.56000  Biso   1.000  O
  O93      1.0000 0.75570  0.91210  0.94000  Biso   1.000  O
  O94      1.0000 0.74430  0.41210  0.94000  Biso   1.000  O
  O95      1.0000 0.75570  0.58790  0.44000  Biso   1.000  O
  O96      1.0000 0.74430  0.08790  0.44000  Biso   1.000  O
  O97      1.0000 0.36090  0.04280  0.41340  Biso   1.000  O
  O98      1.0000 0.13910  0.54280  0.41340  Biso   1.000  O
  O99      1.0000 0.36090  0.45720  0.91340  Biso   1.000  O
  O100     1.0000 0.13910  0.95720  0.91340  Biso   1.000  O
  O101     1.0000 0.63910  0.95720  0.58660  Biso   1.000  O
  O102     1.0000 0.86090  0.45720  0.58660  Biso   1.000  O
  O103     1.0000 0.63910  0.54280  0.08660  Biso   1.000  O
  O104     1.0000 0.86090  0.04280  0.08660  Biso   1.000  O
  N1       1.0000 0.02290  0.19330  0.11330  Biso   1.000  N
  N2       1.0000 0.47710  0.69330  0.11330  Biso   1.000  N
  N3       1.0000 0.02290  0.30670  0.61330  Biso   1.000  N
  N4       1.0000 0.47710  0.80670  0.61330  Biso   1.000  N
  N5       1.0000 0.97710  0.80670  0.88670  Biso   1.000  N
  N6       1.0000 0.52290  0.30670  0.88670  Biso   1.000  N
  N7       1.0000 0.97710  0.69330  0.38670  Biso   1.000  N
  N8       1.0000 0.52290  0.19330  0.38670  Biso   1.000  N
  N9       1.0000 0.04930  0.27090  0.22840  Biso   1.000  N
  N10      1.0000 0.45070  0.77090  0.22840  Biso   1.000  N
  N11      1.0000 0.04930  0.22910  0.72840  Biso   1.000  N
  N12      1.0000 0.45070  0.72910  0.72840  Biso   1.000  N
  N13      1.0000 0.95070  0.72910  0.77160  Biso   1.000  N
  N14      1.0000 0.54930  0.22910  0.77160  Biso   1.000  N
  N15      1.0000 0.95070  0.77090  0.27160  Biso   1.000  N
  N16      1.0000 0.54930  0.27090  0.27160  Biso   1.000  N
  N17      1.0000 0.97370  0.45060  0.29300  Biso   1.000  N
  N18      1.0000 0.52630  0.95060  0.29300  Biso   1.000  N
  N19      1.0000 0.97370  0.04940  0.79300  Biso   1.000  N
  N20      1.0000 0.52630  0.54940  0.79300  Biso   1.000  N
  N21      1.0000 0.02630  0.54940  0.70700  Biso   1.000  N
  N22      1.0000 0.47370  0.04940  0.70700  Biso   1.000  N
  N23      1.0000 0.02630  0.95060  0.20700  Biso   1.000  N
  N24      1.0000 0.47370  0.45060  0.20700  Biso   1.000  N
  N25      1.0000 0.85410  0.52930  0.26100  Biso   1.000  N
  N26      1.0000 0.64590  0.02930  0.26100  Biso   1.000  N
  N27      1.0000 0.85410  0.97070  0.76100  Biso   1.000  N
  N28      1.0000 0.64590  0.47070  0.76100  Biso   1.000  N
  N29      1.0000 0.14590  0.47070  0.73900  Biso   1.000  N
  N30      1.0000 0.35410  0.97070  0.73900  Biso   1.000  N
  N31      1.0000 0.14590  0.02930  0.23900  Biso   1.000  N
  N32      1.0000 0.35410  0.52930  0.23900  Biso   1.000  N
  C1       1.0000 0.02240  0.16780  0.05320  Biso   1.000  C
  C2       1.0000 0.47760  0.66780  0.05320  Biso   1.000  C
  C3       1.0000 0.02240  0.33220  0.55320  Biso   1.000  C
  C4       1.0000 0.47760  0.83220  0.55320  Biso   1.000  C
  C5       1.0000 0.97760  0.83220  0.94680  Biso   1.000  C
  C6       1.0000 0.52240  0.33220  0.94680  Biso   1.000  C
  C7       1.0000 0.97760  0.66780  0.44680  Biso   1.000  C
  C8       1.0000 0.52240  0.16780  0.44680  Biso   1.000  C
  C9       1.0000 0.98740  0.24030  0.01000  Biso   1.000  C
  C10      1.0000 0.51260  0.74030  0.01000  Biso   1.000  C
  C11      1.0000 0.98740  0.25970  0.51000  Biso   1.000  C
  C12      1.0000 0.51260  0.75970  0.51000  Biso   1.000  C
  C13      1.0000 0.01260  0.75970  0.99000  Biso   1.000  C
  C14      1.0000 0.48740  0.25970  0.99000  Biso   1.000  C
  C15      1.0000 0.01260  0.74030  0.49000  Biso   1.000  C
  C16      1.0000 0.48740  0.24030  0.49000  Biso   1.000  C
  C17      1.0000 0.95200  0.34780  0.03110  Biso   1.000  C
  C18      1.0000 0.54800  0.84780  0.03110  Biso   1.000  C
  C19      1.0000 0.95200  0.15220  0.53110  Biso   1.000  C
  C20      1.0000 0.54800  0.65220  0.53110  Biso   1.000  C
  C21      1.0000 0.04800  0.65220  0.96890  Biso   1.000  C
  C22      1.0000 0.45200  0.15220  0.96890  Biso   1.000  C
  C23      1.0000 0.04800  0.84780  0.46890  Biso   1.000  C
  C24      1.0000 0.45200  0.34780  0.46890  Biso   1.000  C
  C25      1.0000 0.95310  0.37960  0.09480  Biso   1.000  C
  C26      1.0000 0.54690  0.87960  0.09480  Biso   1.000  C
  C27      1.0000 0.95310  0.12040  0.59480  Biso   1.000  C
  C28      1.0000 0.54690  0.62040  0.59480  Biso   1.000  C
  C29      1.0000 0.04690  0.62040  0.90520  Biso   1.000  C
  C30      1.0000 0.45310  0.12040  0.90520  Biso   1.000  C
  C31      1.0000 0.04690  0.87960  0.40520  Biso   1.000  C
  C32      1.0000 0.45310  0.37960  0.40520  Biso   1.000  C
  C33      1.0000 0.98650  0.29700  0.13410  Biso   1.000  C
  C34      1.0000 0.51350  0.79700  0.13410  Biso   1.000  C
  C35      1.0000 0.98650  0.20300  0.63410  Biso   1.000  C
  C36      1.0000 0.51350  0.70300  0.63410  Biso   1.000  C
  C37      1.0000 0.01350  0.70300  0.86590  Biso   1.000  C
  C38      1.0000 0.48650  0.20300  0.86590  Biso   1.000  C
  C39      1.0000 0.01350  0.79700  0.36590  Biso   1.000  C
  C40      1.0000 0.48650  0.29700  0.36590  Biso   1.000  C
  C41      1.0000 0.99390  0.32380  0.20190  Biso   1.000  C
  C42      1.0000 0.50610  0.82380  0.20190  Biso   1.000  C
  C43      1.0000 0.99390  0.17620  0.70190  Biso   1.000  C
  C44      1.0000 0.50610  0.67620  0.70190  Biso   1.000  C
  C45      1.0000 0.00610  0.67620  0.79810  Biso   1.000  C
  C46      1.0000 0.49390  0.17620  0.79810  Biso   1.000  C
  C47      1.0000 0.00610  0.82380  0.29810  Biso   1.000  C
  C48      1.0000 0.49390  0.32380  0.29810  Biso   1.000  C
  C49      1.0000 0.06660  0.31030  0.28400  Biso   1.000  C
  C50      1.0000 0.43340  0.81030  0.28400  Biso   1.000  C
  C51      1.0000 0.06660  0.18970  0.78400  Biso   1.000  C
  C52      1.0000 0.43340  0.68970  0.78400  Biso   1.000  C
  C53      1.0000 0.93340  0.68970  0.71600  Biso   1.000  C
  C54      1.0000 0.56660  0.18970  0.71600  Biso   1.000  C
  C55      1.0000 0.93340  0.81030  0.21600  Biso   1.000  C
  C56      1.0000 0.56660  0.31030  0.21600  Biso   1.000  C
  C57      1.0000 0.03210  0.41060  0.31550  Biso   1.000  C
  C58      1.0000 0.46790  0.91060  0.31550  Biso   1.000  C
  C59      1.0000 0.03210  0.08940  0.81550  Biso   1.000  C
  C60      1.0000 0.46790  0.58940  0.81550  Biso   1.000  C
  C61      1.0000 0.96790  0.58940  0.68450  Biso   1.000  C
  C62      1.0000 0.53210  0.08940  0.68450  Biso   1.000  C
  C63      1.0000 0.96790  0.91060  0.18450  Biso   1.000  C
  C64      1.0000 0.53210  0.41060  0.18450  Biso   1.000  C
  C65      1.0000 0.95110  0.40150  0.23970  Biso   1.000  C
  C66      1.0000 0.54890  0.90150  0.23970  Biso   1.000  C
  C67      1.0000 0.95110  0.09850  0.73970  Biso   1.000  C
  C68      1.0000 0.54890  0.59850  0.73970  Biso   1.000  C
  C69      1.0000 0.04890  0.59850  0.76030  Biso   1.000  C
  C70      1.0000 0.45110  0.09850  0.76030  Biso   1.000  C
  C71      1.0000 0.04890  0.90150  0.26030  Biso   1.000  C
  C72      1.0000 0.45110  0.40150  0.26030  Biso   1.000  C
  C73      1.0000 0.88000  0.42830  0.22810  Biso   1.000  C
  C74      1.0000 0.62000  0.92830  0.22810  Biso   1.000  C
  C75      1.0000 0.88000  0.07170  0.72810  Biso   1.000  C
  C76      1.0000 0.62000  0.57170  0.72810  Biso   1.000  C
  C77      1.0000 0.12000  0.57170  0.77190  Biso   1.000  C
  C78      1.0000 0.38000  0.07170  0.77190  Biso   1.000  C
  C79      1.0000 0.12000  0.92830  0.27190  Biso   1.000  C
  C80      1.0000 0.38000  0.42830  0.27190  Biso   1.000  C
  C81      1.0000 0.83940  0.34750  0.19180  Biso   1.000  C
  C82      1.0000 0.66060  0.84750  0.19180  Biso   1.000  C
  C83      1.0000 0.83940  0.15250  0.69180  Biso   1.000  C
  C84      1.0000 0.66060  0.65250  0.69180  Biso   1.000  C
  C85      1.0000 0.16060  0.65250  0.80820  Biso   1.000  C
  C86      1.0000 0.33940  0.15250  0.80820  Biso   1.000  C
  C87      1.0000 0.16060  0.84750  0.30820  Biso   1.000  C
  C88      1.0000 0.33940  0.34750  0.30820  Biso   1.000  C
  C89      1.0000 0.77100  0.37690  0.18860  Biso   1.000  C
  C90      1.0000 0.72900  0.87690  0.18860  Biso   1.000  C
  C91      1.0000 0.77100  0.12310  0.68860  Biso   1.000  C
  C92      1.0000 0.72900  0.62310  0.68860  Biso   1.000  C
  C93      1.0000 0.22900  0.62310  0.81140  Biso   1.000  C
  C94      1.0000 0.27100  0.12310  0.81140  Biso   1.000  C
  C95      1.0000 0.22900  0.87690  0.31140  Biso   1.000  C
  C96      1.0000 0.27100  0.37690  0.31140  Biso   1.000  C
  C97      1.0000 0.74680  0.48340  0.22040  Biso   1.000  C
  C98      1.0000 0.75320  0.98340  0.22040  Biso   1.000  C
  C99      1.0000 0.74680  0.01660  0.72040  Biso   1.000  C
  C100     1.0000 0.75320  0.51660  0.72040  Biso   1.000  C
  C101     1.0000 0.25320  0.51660  0.77960  Biso   1.000  C
  C102     1.0000 0.24680  0.01660  0.77960  Biso   1.000  C
  C103     1.0000 0.25320  0.98340  0.27960  Biso   1.000  C
  C104     1.0000 0.24680  0.48340  0.27960  Biso   1.000  C
  C105     1.0000 0.78710  0.55660  0.25650  Biso   1.000  C
  C106     1.0000 0.71290  0.05660  0.25650  Biso   1.000  C
  C107     1.0000 0.78710  0.94340  0.75650  Biso   1.000  C
  C108     1.0000 0.71290  0.44340  0.75650  Biso   1.000  C
  C109     1.0000 0.21290  0.44340  0.74350  Biso   1.000  C
  C110     1.0000 0.28710  0.94340  0.74350  Biso   1.000  C
  C111     1.0000 0.21290  0.05660  0.24350  Biso   1.000  C
  C112     1.0000 0.28710  0.55660  0.24350  Biso   1.000  C
  H1       1.0000 0.04710  0.09150  0.03930  Biso   1.000  H
  H2       1.0000 0.45290  0.59150  0.03930  Biso   1.000  H
  H3       1.0000 0.04710  0.40850  0.53930  Biso   1.000  H
  H4       1.0000 0.45290  0.90850  0.53930  Biso   1.000  H
  H5       1.0000 0.95290  0.90850  0.96070  Biso   1.000  H
  H6       1.0000 0.54710  0.40850  0.96070  Biso   1.000  H
  H7       1.0000 0.95290  0.59150  0.46070  Biso   1.000  H
  H8       1.0000 0.54710  0.09150  0.46070  Biso   1.000  H
  H9       1.0000 0.98890  0.21840  0.96650  Biso   1.000  H
  H10      1.0000 0.51110  0.71840  0.96650  Biso   1.000  H
  H11      1.0000 0.98890  0.28160  0.46650  Biso   1.000  H
  H12      1.0000 0.51110  0.78160  0.46650  Biso   1.000  H
  H13      1.0000 0.01110  0.78160  0.03350  Biso   1.000  H
  H14      1.0000 0.48890  0.28160  0.03350  Biso   1.000  H
  H15      1.0000 0.01110  0.71840  0.53350  Biso   1.000  H
  H16      1.0000 0.48890  0.21840  0.53350  Biso   1.000  H
  H17      1.0000 0.92720  0.40300  0.00280  Biso   1.000  H
  H18      1.0000 0.57280  0.90300  0.00280  Biso   1.000  H
  H19      1.0000 0.92720  0.09700  0.50280  Biso   1.000  H
  H20      1.0000 0.57280  0.59700  0.50280  Biso   1.000  H
  H21      1.0000 0.07280  0.59700  0.99720  Biso   1.000  H
  H22      1.0000 0.42720  0.09700  0.99720  Biso   1.000  H
  H23      1.0000 0.07280  0.90300  0.49720  Biso   1.000  H
  H24      1.0000 0.42720  0.40300  0.49720  Biso   1.000  H
  H25      1.0000 0.92920  0.45460  0.11120  Biso   1.000  H
  H26      1.0000 0.57080  0.95460  0.11120  Biso   1.000  H
  H27      1.0000 0.92920  0.04540  0.61120  Biso   1.000  H
  H28      1.0000 0.57080  0.54540  0.61120  Biso   1.000  H
  H29      1.0000 0.07080  0.54540  0.88880  Biso   1.000  H
  H30      1.0000 0.42920  0.04540  0.88880  Biso   1.000  H
  H31      1.0000 0.07080  0.95460  0.38880  Biso   1.000  H
  H32      1.0000 0.42920  0.45460  0.38880  Biso   1.000  H
  H33      1.0000 0.10490  0.27080  0.30350  Biso   1.000  H
  H34      1.0000 0.39510  0.77080  0.30350  Biso   1.000  H
  H35      1.0000 0.10490  0.22920  0.80350  Biso   1.000  H
  H36      1.0000 0.39510  0.72920  0.80350  Biso   1.000  H
  H37      1.0000 0.89510  0.72920  0.69650  Biso   1.000  H
  H38      1.0000 0.60490  0.22920  0.69650  Biso   1.000  H
  H39      1.0000 0.89510  0.77080  0.19650  Biso   1.000  H
  H40      1.0000 0.60490  0.27080  0.19650  Biso   1.000  H
  H41      1.0000 0.05020  0.45190  0.35220  Biso   1.000  H
  H42      1.0000 0.44980  0.95190  0.35220  Biso   1.000  H
  H43      1.0000 0.05020  0.04810  0.85220  Biso   1.000  H
  H44      1.0000 0.44980  0.54810  0.85220  Biso   1.000  H
  H45      1.0000 0.94980  0.54810  0.64780  Biso   1.000  H
  H46      1.0000 0.55020  0.04810  0.64780  Biso   1.000  H
  H47      1.0000 0.94980  0.95190  0.14780  Biso   1.000  H
  H48      1.0000 0.55020  0.45190  0.14780  Biso   1.000  H
  H49      1.0000 0.85800  0.27510  0.16840  Biso   1.000  H
  H50      1.0000 0.64200  0.77510  0.16840  Biso   1.000  H
  H51      1.0000 0.85800  0.22490  0.66840  Biso   1.000  H
  H52      1.0000 0.64200  0.72490  0.66840  Biso   1.000  H
  H53      1.0000 0.14200  0.72490  0.83160  Biso   1.000  H
  H54      1.0000 0.35800  0.22490  0.83160  Biso   1.000  H
  H55      1.0000 0.14200  0.77510  0.33160  Biso   1.000  H
  H56      1.0000 0.35800  0.27510  0.33160  Biso   1.000  H
  H57      1.0000 0.74110  0.32170  0.16500  Biso   1.000  H
  H58      1.0000 0.75890  0.82170  0.16500  Biso   1.000  H
  H59      1.0000 0.74110  0.17830  0.66500  Biso   1.000  H
  H60      1.0000 0.75890  0.67830  0.66500  Biso   1.000  H
  H61      1.0000 0.25890  0.67830  0.83500  Biso   1.000  H
  H62      1.0000 0.24110  0.17830  0.83500  Biso   1.000  H
  H63      1.0000 0.25890  0.82170  0.33500  Biso   1.000  H
  H64      1.0000 0.24110  0.32170  0.33500  Biso   1.000  H
  H65      1.0000 0.70060  0.50730  0.21650  Biso   1.000  H
  H66      1.0000 0.79940  0.00730  0.21650  Biso   1.000  H
  H67      1.0000 0.70060  0.99270  0.71650  Biso   1.000  H
  H68      1.0000 0.79940  0.49270  0.71650  Biso   1.000  H
  H69      1.0000 0.29940  0.49270  0.78350  Biso   1.000  H
  H70      1.0000 0.20060  0.99270  0.78350  Biso   1.000  H
  H71      1.0000 0.29940  0.00730  0.28350  Biso   1.000  H
  H72      1.0000 0.20060  0.50730  0.28350  Biso   1.000  H
  H73      1.0000 0.76890  0.62910  0.28010  Biso   1.000  H
  H74      1.0000 0.73110  0.12910  0.28010  Biso   1.000  H
  H75      1.0000 0.76890  0.87090  0.78010  Biso   1.000  H
  H76      1.0000 0.73110  0.37090  0.78010  Biso   1.000  H
  H77      1.0000 0.23110  0.37090  0.71990  Biso   1.000  H
  H78      1.0000 0.26890  0.87090  0.71990  Biso   1.000  H
  H79      1.0000 0.23110  0.12910  0.21990  Biso   1.000  H
  H80      1.0000 0.26890  0.62910  0.21990  Biso   1.000  H
