data_image0
_cell_length_a       6.069
_cell_length_b       20.203
_cell_length_c       8.732
_cell_angle_alpha    90
_cell_angle_beta     90.53
_cell_angle_gamma    90

_symmetry_space_group_name_H-M    "P 1"
_symmetry_int_tables_number       1

loop_
  _symmetry_equiv_pos_as_xyz
  'x, y, z'

loop_
  _atom_site_label
  _atom_site_occupancy
  _atom_site_fract_x
  _atom_site_fract_y
  _atom_site_fract_z
  _atom_site_thermal_displace_type
  _atom_site_B_iso_or_equiv
  _atom_site_type_symbol
  Cu1      1.0000 0.50000  0.50000  0.50000  Biso   1.000  Cu
  Cu2      1.0000 0.50000  0.00000  0.00000  Biso   1.000  Cu
  O1       1.0000 0.33450  0.42640  0.41420  Biso   1.000  O
  O2       1.0000 0.66550  0.92640  0.08580  Biso   1.000  O
  O3       1.0000 0.66550  0.57360  0.58580  Biso   1.000  O
  O4       1.0000 0.33450  0.07360  0.91420  Biso   1.000  O
  O5       1.0000 0.66110  0.44280  0.64180  Biso   1.000  O
  O6       1.0000 0.33890  0.94280  0.85820  Biso   1.000  O
  O7       1.0000 0.33890  0.55720  0.35820  Biso   1.000  O
  O8       1.0000 0.66110  0.05720  0.14180  Biso   1.000  O
  C1       1.0000 0.96040  0.51620  0.93790  Biso   1.000  C
  C2       1.0000 0.03960  0.01620  0.56210  Biso   1.000  C
  C3       1.0000 0.03960  0.48380  0.06210  Biso   1.000  C
  C4       1.0000 0.96040  0.98380  0.43790  Biso   1.000  C
  C5       1.0000 0.08770  0.51890  0.79920  Biso   1.000  C
  C6       1.0000 0.91230  0.01890  0.70080  Biso   1.000  C
  C7       1.0000 0.91230  0.48110  0.20080  Biso   1.000  C
  C8       1.0000 0.08770  0.98110  0.29920  Biso   1.000  C
  C9       1.0000 0.75320  0.54880  0.94330  Biso   1.000  C
  C10      1.0000 0.24680  0.04880  0.55670  Biso   1.000  C
  C11      1.0000 0.24680  0.45120  0.05670  Biso   1.000  C
  C12      1.0000 0.75320  0.95120  0.44330  Biso   1.000  C
  N1       1.0000 0.19390  0.51960  0.69520  Biso   1.000  N
  N2       1.0000 0.80610  0.01960  0.80480  Biso   1.000  N
  N3       1.0000 0.80610  0.48040  0.30480  Biso   1.000  N
  N4       1.0000 0.19390  0.98040  0.19520  Biso   1.000  N
  N5       1.0000 0.58760  0.57410  0.95480  Biso   1.000  N
  N6       1.0000 0.41240  0.07410  0.54520  Biso   1.000  N
  N7       1.0000 0.41240  0.42590  0.04520  Biso   1.000  N
  N8       1.0000 0.58760  0.92590  0.45480  Biso   1.000  N
  C13      1.0000 0.37010  0.36710  0.44510  Biso   1.000  C
  C14      1.0000 0.62990  0.86710  0.05490  Biso   1.000  C
  C15      1.0000 0.62990  0.63290  0.55490  Biso   1.000  C
  C16      1.0000 0.37010  0.13290  0.94510  Biso   1.000  C
  C17      1.0000 0.52070  0.34130  0.54760  Biso   1.000  C
  C18      1.0000 0.47930  0.84130  0.95240  Biso   1.000  C
  C19      1.0000 0.47930  0.65870  0.45240  Biso   1.000  C
  C20      1.0000 0.52070  0.15870  0.04760  Biso   1.000  C
  C21      1.0000 0.65330  0.38100  0.63790  Biso   1.000  C
  C22      1.0000 0.34670  0.88100  0.86210  Biso   1.000  C
  C23      1.0000 0.34670  0.61900  0.36210  Biso   1.000  C
  C24      1.0000 0.65330  0.11900  0.13790  Biso   1.000  C
  C25      1.0000 0.22440  0.31780  0.35930  Biso   1.000  C
  C26      1.0000 0.77560  0.81780  0.14070  Biso   1.000  C
  C27      1.0000 0.77560  0.68220  0.64070  Biso   1.000  C
  C28      1.0000 0.22440  0.18220  0.85930  Biso   1.000  C
  C29      1.0000 0.81450  0.34670  0.74830  Biso   1.000  C
  C30      1.0000 0.18550  0.84670  0.75170  Biso   1.000  C
  C31      1.0000 0.18550  0.65330  0.25170  Biso   1.000  C
  C32      1.0000 0.81450  0.15330  0.24830  Biso   1.000  C
  F1       1.0000 0.03680  0.34220  0.32570  Biso   1.000  F
  F2       1.0000 0.96320  0.84220  0.17430  Biso   1.000  F
  F3       1.0000 0.96320  0.65780  0.67430  Biso   1.000  F
  F4       1.0000 0.03680  0.15780  0.82570  Biso   1.000  F
  F5       1.0000 0.32000  0.30570  0.22910  Biso   1.000  F
  F6       1.0000 0.68000  0.80570  0.27090  Biso   1.000  F
  F7       1.0000 0.68000  0.69430  0.77090  Biso   1.000  F
  F8       1.0000 0.32000  0.19430  0.72910  Biso   1.000  F
  F9       1.0000 0.21330  0.26040  0.41790  Biso   1.000  F
  F10      1.0000 0.78670  0.76040  0.08210  Biso   1.000  F
  F11      1.0000 0.78670  0.73960  0.58210  Biso   1.000  F
  F12      1.0000 0.21330  0.23960  0.91790  Biso   1.000  F
  F13      1.0000 0.11900  0.28060  0.46200  Biso   1.000  F
  F14      1.0000 0.88100  0.78060  0.03800  Biso   1.000  F
  F15      1.0000 0.88100  0.71940  0.53800  Biso   1.000  F
  F16      1.0000 0.11900  0.21940  0.96200  Biso   1.000  F
  F17      1.0000 0.32300  0.27720  0.27000  Biso   1.000  F
  F18      1.0000 0.67700  0.77720  0.23000  Biso   1.000  F
  F19      1.0000 0.67700  0.72280  0.73000  Biso   1.000  F
  F20      1.0000 0.32300  0.22280  0.77000  Biso   1.000  F
  F21      1.0000 0.09000  0.34080  0.26550  Biso   1.000  F
  F22      1.0000 0.91000  0.84080  0.23450  Biso   1.000  F
  F23      1.0000 0.91000  0.65920  0.73450  Biso   1.000  F
  F24      1.0000 0.09000  0.15920  0.76550  Biso   1.000  F
  F25      1.0000 0.80040  0.28350  0.74980  Biso   1.000  F
  F26      1.0000 0.19960  0.78350  0.75020  Biso   1.000  F
  F27      1.0000 0.19960  0.71650  0.25020  Biso   1.000  F
  F28      1.0000 0.80040  0.21650  0.24980  Biso   1.000  F
  F29      1.0000 0.02050  0.36370  0.71510  Biso   1.000  F
  F30      1.0000 0.97950  0.86370  0.78490  Biso   1.000  F
  F31      1.0000 0.97950  0.63630  0.28490  Biso   1.000  F
  F32      1.0000 0.02050  0.13630  0.21510  Biso   1.000  F
  F33      1.0000 0.79510  0.36780  0.88880  Biso   1.000  F
  F34      1.0000 0.20490  0.86780  0.61120  Biso   1.000  F
  F35      1.0000 0.20490  0.63220  0.11120  Biso   1.000  F
  F36      1.0000 0.79510  0.13220  0.38880  Biso   1.000  F
  F37      1.0000 0.87300  0.29150  0.69600  Biso   1.000  F
  F38      1.0000 0.12700  0.79150  0.80400  Biso   1.000  F
  F39      1.0000 0.12700  0.70850  0.30400  Biso   1.000  F
  F40      1.0000 0.87300  0.20850  0.19600  Biso   1.000  F
  F41      1.0000 0.69200  0.32700  0.86600  Biso   1.000  F
  F42      1.0000 0.30800  0.82700  0.63400  Biso   1.000  F
  F43      1.0000 0.30800  0.67300  0.13400  Biso   1.000  F
  F44      1.0000 0.69200  0.17300  0.36600  Biso   1.000  F
  F45      1.0000 0.95800  0.37610  0.79400  Biso   1.000  F
  F46      1.0000 0.04200  0.87610  0.70600  Biso   1.000  F
  F47      1.0000 0.04200  0.62390  0.20600  Biso   1.000  F
  F48      1.0000 0.95800  0.12390  0.29400  Biso   1.000  F
  H1       1.0000 0.53100  0.29700  0.55400  Biso   1.000  H
  H2       1.0000 0.46900  0.79700  0.94600  Biso   1.000  H
  H3       1.0000 0.46900  0.70300  0.44600  Biso   1.000  H
  H4       1.0000 0.53100  0.20300  0.05400  Biso   1.000  H
