data_image0
_cell_length_a       7.904
_cell_length_b       24.816
_cell_length_c       34.289
_cell_angle_alpha    90
_cell_angle_beta     90
_cell_angle_gamma    90

_symmetry_space_group_name_H-M    "P 1"
_symmetry_int_tables_number       1

loop_
  _symmetry_equiv_pos_as_xyz
  'x, y, z'

loop_
  _atom_site_label
  _atom_site_occupancy
  _atom_site_fract_x
  _atom_site_fract_y
  _atom_site_fract_z
  _atom_site_thermal_displace_type
  _atom_site_B_iso_or_equiv
  _atom_site_type_symbol
  Cu1      1.0000 0.35630  0.45700  0.44627  Biso   1.000  Cu
  Cu2      1.0000 0.35630  0.95700  0.05373  Biso   1.000  Cu
  Cu3      1.0000 0.64370  0.45700  0.94627  Biso   1.000  Cu
  Cu4      1.0000 0.64370  0.95700  0.55373  Biso   1.000  Cu
  Br1      1.0000 0.14510  0.38600  0.44077  Biso   1.000  Br
  Br2      1.0000 0.14510  0.88600  0.05923  Biso   1.000  Br
  Br3      1.0000 0.85490  0.38600  0.94077  Biso   1.000  Br
  Br4      1.0000 0.85490  0.88600  0.55923  Biso   1.000  Br
  N1       1.0000 0.43800  0.53400  0.44560  Biso   1.000  N
  N2       1.0000 0.43800  0.03400  0.05440  Biso   1.000  N
  N3       1.0000 0.56200  0.53400  0.94560  Biso   1.000  N
  N4       1.0000 0.56200  0.03400  0.55440  Biso   1.000  N
  C1       1.0000 0.47400  0.55660  0.40780  Biso   1.000  C
  C2       1.0000 0.47400  0.05660  0.09220  Biso   1.000  C
  C3       1.0000 0.52600  0.55660  0.90780  Biso   1.000  C
  C4       1.0000 0.52600  0.05660  0.59220  Biso   1.000  C
  C5       1.0000 0.46500  0.56980  0.47770  Biso   1.000  C
  C6       1.0000 0.46500  0.06980  0.02230  Biso   1.000  C
  C7       1.0000 0.53500  0.56980  0.97770  Biso   1.000  C
  C8       1.0000 0.53500  0.06980  0.52230  Biso   1.000  C
  C9       1.0000 0.31100  0.55830  0.50710  Biso   1.000  C
  C10      1.0000 0.31100  0.05830  0.99290  Biso   1.000  C
  C11      1.0000 0.68900  0.55830  0.00710  Biso   1.000  C
  C12      1.0000 0.68900  0.05830  0.49290  Biso   1.000  C
  N5       1.0000 0.35500  0.45800  0.50460  Biso   1.000  N
  N6       1.0000 0.35500  0.95800  0.99540  Biso   1.000  N
  N7       1.0000 0.64500  0.45800  0.00460  Biso   1.000  N
  N8       1.0000 0.64500  0.95800  0.49540  Biso   1.000  N
  C13      1.0000 0.37400  0.41180  0.52490  Biso   1.000  C
  C14      1.0000 0.37400  0.91180  0.97510  Biso   1.000  C
  C15      1.0000 0.62600  0.41180  0.02490  Biso   1.000  C
  C16      1.0000 0.62600  0.91180  0.47510  Biso   1.000  C
  C17      1.0000 0.37000  0.40450  0.56380  Biso   1.000  C
  C18      1.0000 0.37000  0.90450  0.93620  Biso   1.000  C
  C19      1.0000 0.63000  0.40450  0.06380  Biso   1.000  C
  C20      1.0000 0.63000  0.90450  0.43620  Biso   1.000  C
  C21      1.0000 0.34100  0.45440  0.58620  Biso   1.000  C
  C22      1.0000 0.34100  0.95440  0.91380  Biso   1.000  C
  C23      1.0000 0.65900  0.45440  0.08620  Biso   1.000  C
  C24      1.0000 0.65900  0.95440  0.41380  Biso   1.000  C
  C25      1.0000 0.32100  0.50420  0.56640  Biso   1.000  C
  C26      1.0000 0.32100  0.00420  0.93360  Biso   1.000  C
  C27      1.0000 0.67900  0.50420  0.06640  Biso   1.000  C
  C28      1.0000 0.67900  0.00420  0.43360  Biso   1.000  C
  C29      1.0000 0.33700  0.50570  0.52690  Biso   1.000  C
  C30      1.0000 0.33700  0.00570  0.97310  Biso   1.000  C
  C31      1.0000 0.66300  0.50570  0.02690  Biso   1.000  C
  C32      1.0000 0.66300  0.00570  0.47310  Biso   1.000  C
  N9       1.0000 0.38600  0.46840  0.38890  Biso   1.000  N
  N10      1.0000 0.38600  0.96840  0.11110  Biso   1.000  N
  N11      1.0000 0.61400  0.46840  0.88890  Biso   1.000  N
  N12      1.0000 0.61400  0.96840  0.61110  Biso   1.000  N
  C33      1.0000 0.35400  0.42910  0.36000  Biso   1.000  C
  C34      1.0000 0.35400  0.92910  0.14000  Biso   1.000  C
  C35      1.0000 0.64600  0.42910  0.86000  Biso   1.000  C
  C36      1.0000 0.64600  0.92910  0.64000  Biso   1.000  C
  C37      1.0000 0.39000  0.44140  0.32020  Biso   1.000  C
  C38      1.0000 0.39000  0.94140  0.17980  Biso   1.000  C
  C39      1.0000 0.61000  0.44140  0.82020  Biso   1.000  C
  C40      1.0000 0.61000  0.94140  0.67980  Biso   1.000  C
  C41      1.0000 0.45900  0.49100  0.31350  Biso   1.000  C
  C42      1.0000 0.45900  0.99100  0.18650  Biso   1.000  C
  C43      1.0000 0.54100  0.49100  0.81350  Biso   1.000  C
  C44      1.0000 0.54100  0.99100  0.68650  Biso   1.000  C
  C45      1.0000 0.44100  0.51690  0.37790  Biso   1.000  C
  C46      1.0000 0.44100  0.01690  0.12210  Biso   1.000  C
  C47      1.0000 0.55900  0.51690  0.87790  Biso   1.000  C
  C48      1.0000 0.55900  0.01690  0.62210  Biso   1.000  C
  C49      1.0000 0.47700  0.53270  0.33740  Biso   1.000  C
  C50      1.0000 0.47700  0.03270  0.16260  Biso   1.000  C
  C51      1.0000 0.52300  0.53270  0.83740  Biso   1.000  C
  C52      1.0000 0.52300  0.03270  0.66260  Biso   1.000  C
  Cu5      1.0000 0.85350  0.35650  0.48561  Biso   1.000  Cu
  Cu6      1.0000 0.85350  0.85650  0.01439  Biso   1.000  Cu
  Cu7      1.0000 0.14650  0.35650  0.98561  Biso   1.000  Cu
  Cu8      1.0000 0.14650  0.85650  0.51439  Biso   1.000  Cu
  Br5      1.0000 0.64640  0.38900  0.44011  Biso   1.000  Br
  Br6      1.0000 0.64640  0.88900  0.05989  Biso   1.000  Br
  Br7      1.0000 0.35360  0.38900  0.94011  Biso   1.000  Br
  Br8      1.0000 0.35360  0.88900  0.55989  Biso   1.000  Br
  N13      1.0000 0.93100  0.31180  0.52870  Biso   1.000  N
  N14      1.0000 0.93100  0.81180  0.97130  Biso   1.000  N
  N15      1.0000 0.06900  0.31180  0.02870  Biso   1.000  N
  N16      1.0000 0.06900  0.81180  0.47130  Biso   1.000  N
  C53      1.0000 0.95100  0.26500  0.52130  Biso   1.000  C
  C54      1.0000 0.95100  0.76500  0.97870  Biso   1.000  C
  C55      1.0000 0.04900  0.26500  0.02130  Biso   1.000  C
  C56      1.0000 0.04900  0.76500  0.47870  Biso   1.000  C
  C57      1.0000 0.95500  0.33110  0.56990  Biso   1.000  C
  C58      1.0000 0.95500  0.83110  0.93010  Biso   1.000  C
  C59      1.0000 0.04500  0.33110  0.06990  Biso   1.000  C
  C60      1.0000 0.04500  0.83110  0.43010  Biso   1.000  C
  C61      1.0000 0.80700  0.36950  0.57700  Biso   1.000  C
  C62      1.0000 0.80700  0.86950  0.92300  Biso   1.000  C
  C63      1.0000 0.19300  0.36950  0.07700  Biso   1.000  C
  C64      1.0000 0.19300  0.86950  0.42300  Biso   1.000  C
  N17      1.0000 0.85500  0.42550  0.51680  Biso   1.000  N
  N18      1.0000 0.85500  0.92550  0.98320  Biso   1.000  N
  N19      1.0000 0.14500  0.42550  0.01680  Biso   1.000  N
  N20      1.0000 0.14500  0.92550  0.48320  Biso   1.000  N
  C65      1.0000 0.85800  0.27400  0.42070  Biso   1.000  C
  C66      1.0000 0.85800  0.77400  0.07930  Biso   1.000  C
  C67      1.0000 0.14200  0.27400  0.92070  Biso   1.000  C
  C68      1.0000 0.14200  0.77400  0.57930  Biso   1.000  C
  C69      1.0000 0.88400  0.22100  0.40460  Biso   1.000  C
  C70      1.0000 0.88400  0.72100  0.09540  Biso   1.000  C
  C71      1.0000 0.11600  0.22100  0.90460  Biso   1.000  C
  C72      1.0000 0.11600  0.72100  0.59540  Biso   1.000  C
  C73      1.0000 0.94800  0.18100  0.42900  Biso   1.000  C
  C74      1.0000 0.94800  0.68100  0.07100  Biso   1.000  C
  C75      1.0000 0.05200  0.18100  0.92900  Biso   1.000  C
  C76      1.0000 0.05200  0.68100  0.57100  Biso   1.000  C
  C77      1.0000 0.96600  0.19560  0.46960  Biso   1.000  C
  C78      1.0000 0.96600  0.69560  0.03040  Biso   1.000  C
  C79      1.0000 0.03400  0.19560  0.96960  Biso   1.000  C
  C80      1.0000 0.03400  0.69560  0.53040  Biso   1.000  C
  C81      1.0000 0.93200  0.24560  0.48310  Biso   1.000  C
  C82      1.0000 0.93200  0.74560  0.01690  Biso   1.000  C
  C83      1.0000 0.06800  0.24560  0.98310  Biso   1.000  C
  C84      1.0000 0.06800  0.74560  0.51690  Biso   1.000  C
  N21      1.0000 0.87600  0.28720  0.45780  Biso   1.000  N
  N22      1.0000 0.87600  0.78720  0.04220  Biso   1.000  N
  N23      1.0000 0.12400  0.28720  0.95780  Biso   1.000  N
  N24      1.0000 0.12400  0.78720  0.54220  Biso   1.000  N
  C85      1.0000 0.87200  0.47270  0.49850  Biso   1.000  C
  C86      1.0000 0.87200  0.97270  0.00150  Biso   1.000  C
  C87      1.0000 0.12800  0.47270  0.99850  Biso   1.000  C
  C88      1.0000 0.12800  0.97270  0.50150  Biso   1.000  C
  C89      1.0000 0.86900  0.52460  0.51500  Biso   1.000  C
  C90      1.0000 0.86900  0.02460  0.98500  Biso   1.000  C
  C91      1.0000 0.13100  0.52460  0.01500  Biso   1.000  C
  C92      1.0000 0.13100  0.02460  0.48500  Biso   1.000  C
  C93      1.0000 0.84900  0.52400  0.55990  Biso   1.000  C
  C94      1.0000 0.84900  0.02400  0.94010  Biso   1.000  C
  C95      1.0000 0.15100  0.52400  0.05990  Biso   1.000  C
  C96      1.0000 0.15100  0.02400  0.44010  Biso   1.000  C
  C97      1.0000 0.83700  0.47670  0.57650  Biso   1.000  C
  C98      1.0000 0.83700  0.97670  0.92350  Biso   1.000  C
  C99      1.0000 0.16300  0.47670  0.07650  Biso   1.000  C
  C100     1.0000 0.16300  0.97670  0.42350  Biso   1.000  C
  C101     1.0000 0.83700  0.42400  0.55900  Biso   1.000  C
  C102     1.0000 0.83700  0.92400  0.94100  Biso   1.000  C
  C103     1.0000 0.16300  0.42400  0.05900  Biso   1.000  C
  C104     1.0000 0.16300  0.92400  0.44100  Biso   1.000  C
  Cu9      1.0000 0.30380  0.22430  0.30337  Biso   1.000  Cu
  Cu10     1.0000 0.30380  0.72430  0.19663  Biso   1.000  Cu
  Cu11     1.0000 0.69620  0.22430  0.80337  Biso   1.000  Cu
  Cu12     1.0000 0.69620  0.72430  0.69663  Biso   1.000  Cu
  Br9      1.0000 0.09740  0.29370  0.30952  Biso   1.000  Br
  Br10     1.0000 0.09740  0.79370  0.19048  Biso   1.000  Br
  Br11     1.0000 0.90260  0.29370  0.80952  Biso   1.000  Br
  Br12     1.0000 0.90260  0.79370  0.69048  Biso   1.000  Br
  N25      1.0000 0.38800  0.15080  0.30800  Biso   1.000  N
  N26      1.0000 0.38800  0.65080  0.19200  Biso   1.000  N
  N27      1.0000 0.61200  0.15080  0.80800  Biso   1.000  N
  N28      1.0000 0.61200  0.65080  0.69200  Biso   1.000  N
  C105     1.0000 0.40700  0.12880  0.33890  Biso   1.000  C
  C106     1.0000 0.40700  0.62880  0.16110  Biso   1.000  C
  C107     1.0000 0.59300  0.12880  0.83890  Biso   1.000  C
  C108     1.0000 0.59300  0.62880  0.66110  Biso   1.000  C
  C109     1.0000 0.39100  0.11430  0.26850  Biso   1.000  C
  C110     1.0000 0.39100  0.61430  0.23150  Biso   1.000  C
  C111     1.0000 0.60900  0.11430  0.76850  Biso   1.000  C
  C112     1.0000 0.60900  0.61430  0.73150  Biso   1.000  C
  C113     1.0000 0.24900  0.12680  0.24620  Biso   1.000  C
  C114     1.0000 0.24900  0.62680  0.25380  Biso   1.000  C
  C115     1.0000 0.75100  0.12680  0.74620  Biso   1.000  C
  C116     1.0000 0.75100  0.62680  0.75380  Biso   1.000  C
  N29      1.0000 0.34500  0.21710  0.36120  Biso   1.000  N
  N30      1.0000 0.34500  0.71710  0.13880  Biso   1.000  N
  N31      1.0000 0.65500  0.21710  0.86120  Biso   1.000  N
  N32      1.0000 0.65500  0.71710  0.63880  Biso   1.000  N
  C117     1.0000 0.32700  0.25740  0.38840  Biso   1.000  C
  C118     1.0000 0.32700  0.75740  0.11160  Biso   1.000  C
  C119     1.0000 0.67300  0.25740  0.88840  Biso   1.000  C
  C120     1.0000 0.67300  0.75740  0.61160  Biso   1.000  C
  C121     1.0000 0.38000  0.24750  0.42760  Biso   1.000  C
  C122     1.0000 0.38000  0.74750  0.07240  Biso   1.000  C
  C123     1.0000 0.62000  0.24750  0.92760  Biso   1.000  C
  C124     1.0000 0.62000  0.74750  0.57240  Biso   1.000  C
  C125     1.0000 0.42200  0.19200  0.43910  Biso   1.000  C
  C126     1.0000 0.42200  0.69200  0.06090  Biso   1.000  C
  C127     1.0000 0.57800  0.19200  0.93910  Biso   1.000  C
  C128     1.0000 0.57800  0.69200  0.56090  Biso   1.000  C
  C129     1.0000 0.44300  0.15400  0.40890  Biso   1.000  C
  C130     1.0000 0.44300  0.65400  0.09110  Biso   1.000  C
  C131     1.0000 0.55700  0.15400  0.90890  Biso   1.000  C
  C132     1.0000 0.55700  0.65400  0.59110  Biso   1.000  C
  C133     1.0000 0.38000  0.16720  0.37420  Biso   1.000  C
  C134     1.0000 0.38000  0.66720  0.12580  Biso   1.000  C
  C135     1.0000 0.62000  0.16720  0.87420  Biso   1.000  C
  C136     1.0000 0.62000  0.66720  0.62580  Biso   1.000  C
  N33      1.0000 0.29700  0.22320  0.24410  Biso   1.000  N
  N34      1.0000 0.29700  0.72320  0.25590  Biso   1.000  N
  N35      1.0000 0.70300  0.22320  0.74410  Biso   1.000  N
  N36      1.0000 0.70300  0.72320  0.75590  Biso   1.000  N
  C137     1.0000 0.31400  0.27290  0.22790  Biso   1.000  C
  C138     1.0000 0.31400  0.77290  0.27210  Biso   1.000  C
  C139     1.0000 0.68600  0.27290  0.72790  Biso   1.000  C
  C140     1.0000 0.68600  0.77290  0.77210  Biso   1.000  C
  C141     1.0000 0.30100  0.27830  0.18420  Biso   1.000  C
  C142     1.0000 0.30100  0.77830  0.31580  Biso   1.000  C
  C143     1.0000 0.69900  0.27830  0.68420  Biso   1.000  C
  C144     1.0000 0.69900  0.77830  0.81580  Biso   1.000  C
  C145     1.0000 0.27500  0.23230  0.16480  Biso   1.000  C
  C146     1.0000 0.27500  0.73230  0.33520  Biso   1.000  C
  C147     1.0000 0.72500  0.23230  0.66480  Biso   1.000  C
  C148     1.0000 0.72500  0.73230  0.83520  Biso   1.000  C
  C149     1.0000 0.26300  0.18390  0.18340  Biso   1.000  C
  C150     1.0000 0.26300  0.68390  0.31660  Biso   1.000  C
  C151     1.0000 0.73700  0.18390  0.68340  Biso   1.000  C
  C152     1.0000 0.73700  0.68390  0.81660  Biso   1.000  C
  C153     1.0000 0.27300  0.17900  0.22330  Biso   1.000  C
  C154     1.0000 0.27300  0.67900  0.27670  Biso   1.000  C
  C155     1.0000 0.72700  0.17900  0.72330  Biso   1.000  C
  C156     1.0000 0.72700  0.67900  0.77670  Biso   1.000  C
  Cu13     1.0000 0.80220  0.32560  0.26556  Biso   1.000  Cu
  Cu14     1.0000 0.80220  0.82560  0.23444  Biso   1.000  Cu
  Cu15     1.0000 0.19780  0.32560  0.76556  Biso   1.000  Cu
  Cu16     1.0000 0.19780  0.82560  0.73444  Biso   1.000  Cu
  Br13     1.0000 0.59470  0.29250  0.31157  Biso   1.000  Br
  Br14     1.0000 0.59470  0.79250  0.18843  Biso   1.000  Br
  Br15     1.0000 0.40530  0.29250  0.81157  Biso   1.000  Br
  Br16     1.0000 0.40530  0.79250  0.68843  Biso   1.000  Br
  N37      1.0000 0.88100  0.37420  0.22040  Biso   1.000  N
  N38      1.0000 0.88100  0.87420  0.27960  Biso   1.000  N
  N39      1.0000 0.11900  0.37420  0.72040  Biso   1.000  N
  N40      1.0000 0.11900  0.87420  0.77960  Biso   1.000  N
  C157     1.0000 0.91600  0.42200  0.22830  Biso   1.000  C
  C158     1.0000 0.91600  0.92200  0.27170  Biso   1.000  C
  C159     1.0000 0.08400  0.42200  0.72830  Biso   1.000  C
  C160     1.0000 0.08400  0.92200  0.77170  Biso   1.000  C
  C161     1.0000 0.88200  0.35110  0.17990  Biso   1.000  C
  C162     1.0000 0.88200  0.85110  0.32010  Biso   1.000  C
  C163     1.0000 0.11800  0.35110  0.67990  Biso   1.000  C
  C164     1.0000 0.11800  0.85110  0.82010  Biso   1.000  C
  C165     1.0000 0.74000  0.31310  0.17290  Biso   1.000  C
  C166     1.0000 0.74000  0.81310  0.32710  Biso   1.000  C
  C167     1.0000 0.26000  0.31310  0.67290  Biso   1.000  C
  C168     1.0000 0.26000  0.81310  0.82710  Biso   1.000  C
  N41      1.0000 0.83400  0.39360  0.29230  Biso   1.000  N
  N42      1.0000 0.83400  0.89360  0.20770  Biso   1.000  N
  N43      1.0000 0.16600  0.39360  0.79230  Biso   1.000  N
  N44      1.0000 0.16600  0.89360  0.70770  Biso   1.000  N
  C169     1.0000 0.82400  0.40380  0.33450  Biso   1.000  C
  C170     1.0000 0.82400  0.90380  0.16550  Biso   1.000  C
  C171     1.0000 0.17600  0.40380  0.83450  Biso   1.000  C
  C172     1.0000 0.17600  0.90380  0.66550  Biso   1.000  C
  C173     1.0000 0.87600  0.45100  0.34910  Biso   1.000  C
  C174     1.0000 0.87600  0.95100  0.15090  Biso   1.000  C
  C175     1.0000 0.12400  0.45100  0.84910  Biso   1.000  C
  C176     1.0000 0.12400  0.95100  0.65090  Biso   1.000  C
  C177     1.0000 0.93700  0.49800  0.32420  Biso   1.000  C
  C178     1.0000 0.93700  0.99800  0.17580  Biso   1.000  C
  C179     1.0000 0.06300  0.49800  0.82420  Biso   1.000  C
  C180     1.0000 0.06300  0.99800  0.67580  Biso   1.000  C
  C181     1.0000 0.94200  0.48650  0.28310  Biso   1.000  C
  C182     1.0000 0.94200  0.98650  0.21690  Biso   1.000  C
  C183     1.0000 0.05800  0.48650  0.78310  Biso   1.000  C
  C184     1.0000 0.05800  0.98650  0.71690  Biso   1.000  C
  C185     1.0000 0.89500  0.43430  0.27440  Biso   1.000  C
  C186     1.0000 0.89500  0.93430  0.22560  Biso   1.000  C
  C187     1.0000 0.10500  0.43430  0.77440  Biso   1.000  C
  C188     1.0000 0.10500  0.93430  0.72560  Biso   1.000  C
  N45      1.0000 0.79900  0.26180  0.23360  Biso   1.000  N
  N46      1.0000 0.79900  0.76180  0.26640  Biso   1.000  N
  N47      1.0000 0.20100  0.26180  0.73360  Biso   1.000  N
  N48      1.0000 0.20100  0.76180  0.76640  Biso   1.000  N
  C189     1.0000 0.82000  0.21500  0.24990  Biso   1.000  C
  C190     1.0000 0.82000  0.71500  0.25010  Biso   1.000  C
  C191     1.0000 0.18000  0.21500  0.74990  Biso   1.000  C
  C192     1.0000 0.18000  0.71500  0.75010  Biso   1.000  C
  C193     1.0000 0.81600  0.16450  0.23060  Biso   1.000  C
  C194     1.0000 0.81600  0.66450  0.26940  Biso   1.000  C
  C195     1.0000 0.18400  0.16450  0.73060  Biso   1.000  C
  C196     1.0000 0.18400  0.66450  0.76940  Biso   1.000  C
  C197     1.0000 0.79000  0.16310  0.19140  Biso   1.000  C
  C198     1.0000 0.79000  0.66310  0.30860  Biso   1.000  C
  C199     1.0000 0.21000  0.16310  0.69140  Biso   1.000  C
  C200     1.0000 0.21000  0.66310  0.80860  Biso   1.000  C
  C201     1.0000 0.77100  0.21230  0.17360  Biso   1.000  C
  C202     1.0000 0.77100  0.71230  0.32640  Biso   1.000  C
  C203     1.0000 0.22900  0.21230  0.67360  Biso   1.000  C
  C204     1.0000 0.22900  0.71230  0.82640  Biso   1.000  C
  C205     1.0000 0.76800  0.26120  0.19490  Biso   1.000  C
  C206     1.0000 0.76800  0.76120  0.30510  Biso   1.000  C
  C207     1.0000 0.23200  0.26120  0.69490  Biso   1.000  C
  C208     1.0000 0.23200  0.76120  0.80510  Biso   1.000  C
  P1       1.0000 0.99010  0.10610  0.08490  Biso   1.000  P
  P2       1.0000 0.99010  0.60610  0.41510  Biso   1.000  P
  P3       1.0000 0.00990  0.10610  0.58490  Biso   1.000  P
  P4       1.0000 0.00990  0.60610  0.91510  Biso   1.000  P
  F1       1.0000 0.96700  0.16600  0.09750  Biso   1.000  F
  F2       1.0000 0.96700  0.66600  0.40250  Biso   1.000  F
  F3       1.0000 0.03300  0.16600  0.59750  Biso   1.000  F
  F4       1.0000 0.03300  0.66600  0.90250  Biso   1.000  F
  F5       1.0000 0.09300  0.09600  0.12470  Biso   1.000  F
  F6       1.0000 0.09300  0.59600  0.37530  Biso   1.000  F
  F7       1.0000 0.90700  0.09600  0.62470  Biso   1.000  F
  F8       1.0000 0.90700  0.59600  0.87530  Biso   1.000  F
  F9       1.0000 0.02300  0.04300  0.07420  Biso   1.000  F
  F10      1.0000 0.02300  0.54300  0.42580  Biso   1.000  F
  F11      1.0000 0.97700  0.04300  0.57420  Biso   1.000  F
  F12      1.0000 0.97700  0.54300  0.92580  Biso   1.000  F
  F13      1.0000 0.86200  0.11330  0.05380  Biso   1.000  F
  F14      1.0000 0.86200  0.61330  0.44620  Biso   1.000  F
  F15      1.0000 0.13800  0.11330  0.55380  Biso   1.000  F
  F16      1.0000 0.13800  0.61330  0.94620  Biso   1.000  F
  F17      1.0000 0.83300  0.08430  0.11220  Biso   1.000  F
  F18      1.0000 0.83300  0.58430  0.38780  Biso   1.000  F
  F19      1.0000 0.16700  0.08430  0.61220  Biso   1.000  F
  F20      1.0000 0.16700  0.58430  0.88780  Biso   1.000  F
  F21      1.0000 0.14500  0.12380  0.06250  Biso   1.000  F
  F22      1.0000 0.14500  0.62380  0.43750  Biso   1.000  F
  F23      1.0000 0.85500  0.12380  0.56250  Biso   1.000  F
  F24      1.0000 0.85500  0.62380  0.93750  Biso   1.000  F
  P5       1.0000 0.90260  0.07820  0.33740  Biso   1.000  P
  P6       1.0000 0.90260  0.57820  0.16260  Biso   1.000  P
  P7       1.0000 0.09740  0.07820  0.83740  Biso   1.000  P
  P8       1.0000 0.09740  0.57820  0.66260  Biso   1.000  P
  F25      1.0000 0.93400  0.13590  0.32560  Biso   1.000  F
  F26      1.0000 0.93400  0.63590  0.17440  Biso   1.000  F
  F27      1.0000 0.06600  0.13590  0.82560  Biso   1.000  F
  F28      1.0000 0.06600  0.63590  0.67440  Biso   1.000  F
  F29      1.0000 0.01900  0.05890  0.29870  Biso   1.000  F
  F30      1.0000 0.01900  0.55890  0.20130  Biso   1.000  F
  F31      1.0000 0.98100  0.05890  0.79870  Biso   1.000  F
  F32      1.0000 0.98100  0.55890  0.70130  Biso   1.000  F
  F33      1.0000 0.87100  0.01830  0.34860  Biso   1.000  F
  F34      1.0000 0.87100  0.51830  0.15140  Biso   1.000  F
  F35      1.0000 0.12900  0.01830  0.84860  Biso   1.000  F
  F36      1.0000 0.12900  0.51830  0.65140  Biso   1.000  F
  F37      1.0000 0.74400  0.07530  0.30640  Biso   1.000  F
  F38      1.0000 0.74400  0.57530  0.19360  Biso   1.000  F
  F39      1.0000 0.25600  0.07530  0.80640  Biso   1.000  F
  F40      1.0000 0.25600  0.57530  0.69360  Biso   1.000  F
  F41      1.0000 0.79100  0.09850  0.36720  Biso   1.000  F
  F42      1.0000 0.79100  0.59850  0.13280  Biso   1.000  F
  F43      1.0000 0.20900  0.09850  0.86720  Biso   1.000  F
  F44      1.0000 0.20900  0.59850  0.63280  Biso   1.000  F
  F45      1.0000 0.06700  0.08120  0.36110  Biso   1.000  F
  F46      1.0000 0.06700  0.58120  0.13890  Biso   1.000  F
  F47      1.0000 0.93300  0.08120  0.86110  Biso   1.000  F
  F48      1.0000 0.93300  0.58120  0.63890  Biso   1.000  F
  P9       1.0000 0.53490  0.23970  0.05240  Biso   1.000  P
  P10      1.0000 0.53490  0.73970  0.44760  Biso   1.000  P
  P11      1.0000 0.46510  0.23970  0.55240  Biso   1.000  P
  P12      1.0000 0.46510  0.73970  0.94760  Biso   1.000  P
  F49      1.0000 0.40100  0.20780  0.02900  Biso   1.000  F
  F50      1.0000 0.40100  0.70780  0.47100  Biso   1.000  F
  F51      1.0000 0.59900  0.20780  0.52900  Biso   1.000  F
  F52      1.0000 0.59900  0.70780  0.97100  Biso   1.000  F
  F53      1.0000 0.54600  0.19080  0.08530  Biso   1.000  F
  F54      1.0000 0.54600  0.69080  0.41470  Biso   1.000  F
  F55      1.0000 0.45400  0.19080  0.58530  Biso   1.000  F
  F56      1.0000 0.45400  0.69080  0.91470  Biso   1.000  F
  F57      1.0000 0.51100  0.28840  0.02490  Biso   1.000  F
  F58      1.0000 0.51100  0.78840  0.47510  Biso   1.000  F
  F59      1.0000 0.48900  0.28840  0.52490  Biso   1.000  F
  F60      1.0000 0.48900  0.78840  0.97510  Biso   1.000  F
  F61      1.0000 0.40500  0.26700  0.07870  Biso   1.000  F
  F62      1.0000 0.40500  0.76700  0.42130  Biso   1.000  F
  F63      1.0000 0.59500  0.26700  0.57870  Biso   1.000  F
  F64      1.0000 0.59500  0.76700  0.92130  Biso   1.000  F
  F65      1.0000 0.66700  0.27500  0.07750  Biso   1.000  F
  F66      1.0000 0.66700  0.77500  0.42250  Biso   1.000  F
  F67      1.0000 0.33300  0.27500  0.57750  Biso   1.000  F
  F68      1.0000 0.33300  0.77500  0.92250  Biso   1.000  F
  F69      1.0000 0.67000  0.21350  0.02730  Biso   1.000  F
  F70      1.0000 0.67000  0.71350  0.47270  Biso   1.000  F
  F71      1.0000 0.33000  0.21350  0.52730  Biso   1.000  F
  F72      1.0000 0.33000  0.71350  0.97270  Biso   1.000  F
  P13      1.0000 0.39320  0.44440  0.19470  Biso   1.000  P
  P14      1.0000 0.39320  0.94440  0.30530  Biso   1.000  P
  P15      1.0000 0.60680  0.44440  0.69470  Biso   1.000  P
  P16      1.0000 0.60680  0.94440  0.80530  Biso   1.000  P
  F73      1.0000 0.39500  0.39620  0.22580  Biso   1.000  F
  F74      1.0000 0.39500  0.89620  0.27420  Biso   1.000  F
  F75      1.0000 0.60500  0.39620  0.72580  Biso   1.000  F
  F76      1.0000 0.60500  0.89620  0.77420  Biso   1.000  F
  F77      1.0000 0.27900  0.47640  0.22570  Biso   1.000  F
  F78      1.0000 0.27900  0.97640  0.27430  Biso   1.000  F
  F79      1.0000 0.72100  0.47640  0.72570  Biso   1.000  F
  F80      1.0000 0.72100  0.97640  0.77430  Biso   1.000  F
  F81      1.0000 0.50800  0.41160  0.16650  Biso   1.000  F
  F82      1.0000 0.50800  0.91160  0.33350  Biso   1.000  F
  F83      1.0000 0.49200  0.41160  0.66650  Biso   1.000  F
  F84      1.0000 0.49200  0.91160  0.83350  Biso   1.000  F
  F85      1.0000 0.23400  0.42050  0.17670  Biso   1.000  F
  F86      1.0000 0.23400  0.92050  0.32330  Biso   1.000  F
  F87      1.0000 0.76600  0.42050  0.67670  Biso   1.000  F
  F88      1.0000 0.76600  0.92050  0.82330  Biso   1.000  F
  F89      1.0000 0.39000  0.49230  0.16730  Biso   1.000  F
  F90      1.0000 0.39000  0.99230  0.33270  Biso   1.000  F
  F91      1.0000 0.61000  0.49230  0.66730  Biso   1.000  F
  F92      1.0000 0.61000  0.99230  0.83270  Biso   1.000  F
  F93      1.0000 0.55000  0.47200  0.21570  Biso   1.000  F
  F94      1.0000 0.55000  0.97200  0.28430  Biso   1.000  F
  F95      1.0000 0.45000  0.47200  0.71570  Biso   1.000  F
  F96      1.0000 0.45000  0.97200  0.78430  Biso   1.000  F
