data_image0
_cell_length_a       9.272
_cell_length_b       14.718
_cell_length_c       8.023
_cell_angle_alpha    102.66
_cell_angle_beta     103.89
_cell_angle_gamma    94

_symmetry_space_group_name_H-M    "P 1"
_symmetry_int_tables_number       1

loop_
  _symmetry_equiv_pos_as_xyz
  'x, y, z'

loop_
  _atom_site_label
  _atom_site_occupancy
  _atom_site_fract_x
  _atom_site_fract_y
  _atom_site_fract_z
  _atom_site_thermal_displace_type
  _atom_site_B_iso_or_equiv
  _atom_site_type_symbol
  Cu1      1.0000 0.82990  0.43733  0.44550  Biso   1.000  Cu
  Cu2      1.0000 0.17010  0.56267  0.55450  Biso   1.000  Cu
  Cu3      1.0000 0.57720  0.08579  0.06150  Biso   1.000  Cu
  Cu4      1.0000 0.42280  0.91421  0.93850  Biso   1.000  Cu
  N1       1.0000 0.73860  0.54310  0.57190  Biso   1.000  N
  N2       1.0000 0.26140  0.45690  0.42810  Biso   1.000  N
  C1       1.0000 0.75580  0.63370  0.56480  Biso   1.000  C
  C2       1.0000 0.24420  0.36630  0.43520  Biso   1.000  C
  C3       1.0000 0.68520  0.70030  0.65060  Biso   1.000  C
  C4       1.0000 0.31480  0.29970  0.34940  Biso   1.000  C
  C5       1.0000 0.59250  0.67420  0.74790  Biso   1.000  C
  C6       1.0000 0.40750  0.32580  0.25210  Biso   1.000  C
  C7       1.0000 0.57430  0.58240  0.75770  Biso   1.000  C
  C8       1.0000 0.42570  0.41760  0.24230  Biso   1.000  C
  C9       1.0000 0.64920  0.51850  0.66970  Biso   1.000  C
  C10      1.0000 0.35080  0.48150  0.33030  Biso   1.000  C
  C11      1.0000 0.64150  0.41780  0.67340  Biso   1.000  C
  C12      1.0000 0.35850  0.58220  0.32660  Biso   1.000  C
  C13      1.0000 0.56450  0.37910  0.77400  Biso   1.000  C
  C14      1.0000 0.43550  0.62090  0.22600  Biso   1.000  C
  C15      1.0000 0.57000  0.28590  0.77600  Biso   1.000  C
  C16      1.0000 0.43000  0.71410  0.22400  Biso   1.000  C
  C17      1.0000 0.65130  0.23290  0.67450  Biso   1.000  C
  C18      1.0000 0.34870  0.76710  0.32550  Biso   1.000  C
  C19      1.0000 0.72210  0.27510  0.57270  Biso   1.000  C
  C20      1.0000 0.27790  0.72490  0.42730  Biso   1.000  C
  N3       1.0000 0.71900  0.36610  0.57240  Biso   1.000  N
  N4       1.0000 0.28100  0.63390  0.42760  Biso   1.000  N
  O1       1.0000 0.93730  0.52090  0.34170  Biso   1.000  O
  O2       1.0000 0.06270  0.47910  0.65830  Biso   1.000  O
  C21      1.0000 0.85730  0.53870  0.19970  Biso   1.000  C
  C22      1.0000 0.14270  0.46130  0.80030  Biso   1.000  C
  O3       1.0000 0.72380  0.50720  0.13700  Biso   1.000  O
  O4       1.0000 0.27620  0.49280  0.86300  Biso   1.000  O
  C23      1.0000 0.93450  0.60330  0.11660  Biso   1.000  C
  C24      1.0000 0.06550  0.39670  0.88340  Biso   1.000  C
  O5       1.0000 0.89710  0.32990  0.30860  Biso   1.000  O
  O6       1.0000 0.10290  0.67010  0.69140  Biso   1.000  O
  C25      1.0000 0.82930  0.25550  0.19500  Biso   1.000  C
  C26      1.0000 0.17070  0.74450  0.80500  Biso   1.000  C
  O7       1.0000 0.69410  0.22690  0.16300  Biso   1.000  O
  O8       1.0000 0.30590  0.77310  0.83700  Biso   1.000  O
  C27      1.0000 0.92620  0.19890  0.09710  Biso   1.000  C
  C28      1.0000 0.07380  0.80110  0.90290  Biso   1.000  C
  O9       1.0000 0.64310  0.04950  0.84240  Biso   1.000  O
  O10      1.0000 0.35690  0.95050  0.15760  Biso   1.000  O
  C29      1.0000 0.60670  0.97070  0.73190  Biso   1.000  C
  C30      1.0000 0.39330  0.02930  0.26810  Biso   1.000  C
  O11      1.0000 0.51530  0.90480  0.73910  Biso   1.000  O
  O12      1.0000 0.48470  0.09520  0.26090  Biso   1.000  O
  C31      1.0000 0.68010  0.95540  0.58170  Biso   1.000  C
  C32      1.0000 0.31990  0.04460  0.41830  Biso   1.000  C
  O13      1.0000 0.73550  0.02080  0.18010  Biso   1.000  O
  O14      1.0000 0.26450  0.97920  0.81990  Biso   1.000  O
  C33      1.0000 0.72300  0.93390  0.16010  Biso   1.000  C
  C34      1.0000 0.27700  0.06610  0.83990  Biso   1.000  C
  O15      1.0000 0.60790  0.87700  0.07430  Biso   1.000  O
  O16      1.0000 0.39210  0.12300  0.92570  Biso   1.000  O
  C35      1.0000 0.85870  0.89210  0.24430  Biso   1.000  C
  C36      1.0000 0.14130  0.10790  0.75570  Biso   1.000  C
  H1       1.0000 0.82200  0.64900  0.50900  Biso   1.000  H
  H2       1.0000 0.17800  0.35100  0.49100  Biso   1.000  H
  H3       1.0000 0.70400  0.75700  0.65400  Biso   1.000  H
  H4       1.0000 0.29600  0.24300  0.34600  Biso   1.000  H
  H5       1.0000 0.55200  0.71500  0.79400  Biso   1.000  H
  H6       1.0000 0.44800  0.28500  0.20600  Biso   1.000  H
  H7       1.0000 0.51600  0.56600  0.81600  Biso   1.000  H
  H8       1.0000 0.48400  0.43400  0.18400  Biso   1.000  H
  H9       1.0000 0.52000  0.41100  0.83800  Biso   1.000  H
  H10      1.0000 0.48000  0.58900  0.16200  Biso   1.000  H
  H11      1.0000 0.52800  0.26200  0.84700  Biso   1.000  H
  H12      1.0000 0.47200  0.73800  0.15300  Biso   1.000  H
  H13      1.0000 0.66100  0.17000  0.67500  Biso   1.000  H
  H14      1.0000 0.33900  0.83000  0.32500  Biso   1.000  H
  H15      1.0000 0.77300  0.24200  0.50900  Biso   1.000  H
  H16      1.0000 0.22700  0.75800  0.49100  Biso   1.000  H
  H17      1.0000 0.04800  0.59800  0.13700  Biso   1.000  H
  H18      1.0000 0.95200  0.40200  0.86300  Biso   1.000  H
  H19      1.0000 0.87700  0.60400  0.00000  Biso   1.000  H
  H20      1.0000 0.12300  0.39600  0.00000  Biso   1.000  H
  H21      1.0000 0.95300  0.66200  0.17900  Biso   1.000  H
  H22      1.0000 0.04700  0.33800  0.82100  Biso   1.000  H
  H23      1.0000 0.95800  0.15500  0.14300  Biso   1.000  H
  H24      1.0000 0.04200  0.84500  0.85700  Biso   1.000  H
  H25      1.0000 0.89200  0.17800  0.99000  Biso   1.000  H
  H26      1.0000 0.10800  0.82200  0.01000  Biso   1.000  H
  H27      1.0000 0.99700  0.23000  0.11200  Biso   1.000  H
  H28      1.0000 0.00300  0.77000  0.88800  Biso   1.000  H
  H29      1.0000 0.63000  0.90800  0.49400  Biso   1.000  H
  H30      1.0000 0.37000  0.09200  0.50600  Biso   1.000  H
  H31      1.0000 0.77800  0.94400  0.63600  Biso   1.000  H
  H32      1.0000 0.22200  0.05600  0.36400  Biso   1.000  H
  H33      1.0000 0.67200  0.00100  0.52200  Biso   1.000  H
  H34      1.0000 0.32800  0.99900  0.47800  Biso   1.000  H
  H35      1.0000 0.83400  0.83300  0.27200  Biso   1.000  H
  H36      1.0000 0.16600  0.16700  0.72800  Biso   1.000  H
  H37      1.0000 0.89800  0.88000  0.18300  Biso   1.000  H
  H38      1.0000 0.10200  0.12000  0.81700  Biso   1.000  H
  H39      1.0000 0.91800  0.93400  0.34200  Biso   1.000  H
  H40      1.0000 0.08200  0.06600  0.65800  Biso   1.000  H
