data_image0
_cell_length_a       12.947
_cell_length_b       9.401
_cell_length_c       20.005
_cell_angle_alpha    90
_cell_angle_beta     90
_cell_angle_gamma    90

_symmetry_space_group_name_H-M    "P 1"
_symmetry_int_tables_number       1

loop_
  _symmetry_equiv_pos_as_xyz
  'x, y, z'

loop_
  _atom_site_label
  _atom_site_occupancy
  _atom_site_fract_x
  _atom_site_fract_y
  _atom_site_fract_z
  _atom_site_thermal_displace_type
  _atom_site_B_iso_or_equiv
  _atom_site_type_symbol
  Cu1      1.0000 0.50000  0.00000  0.50000  Biso   1.000  Cu
  Cu2      1.0000 0.00000  0.50000  0.50000  Biso   1.000  Cu
  Cu3      1.0000 0.50000  0.50000  0.00000  Biso   1.000  Cu
  Cu4      1.0000 0.00000  0.00000  0.00000  Biso   1.000  Cu
  N1       1.0000 0.02230  0.69890  0.46200  Biso   1.000  N
  N2       1.0000 0.47770  0.19890  0.46200  Biso   1.000  N
  N3       1.0000 0.02230  0.80110  0.96200  Biso   1.000  N
  N4       1.0000 0.47770  0.30110  0.96200  Biso   1.000  N
  N5       1.0000 0.97770  0.30110  0.53800  Biso   1.000  N
  N6       1.0000 0.52230  0.80110  0.53800  Biso   1.000  N
  N7       1.0000 0.97770  0.19890  0.03800  Biso   1.000  N
  N8       1.0000 0.52230  0.69890  0.03800  Biso   1.000  N
  O1       1.0000 0.44630  0.06110  0.58610  Biso   1.000  O
  O2       1.0000 0.05370  0.56110  0.58610  Biso   1.000  O
  O3       1.0000 0.44630  0.43890  0.08610  Biso   1.000  O
  O4       1.0000 0.05370  0.93890  0.08610  Biso   1.000  O
  O5       1.0000 0.55370  0.93890  0.41390  Biso   1.000  O
  O6       1.0000 0.94630  0.43890  0.41390  Biso   1.000  O
  O7       1.0000 0.55370  0.56110  0.91390  Biso   1.000  O
  O8       1.0000 0.94630  0.06110  0.91390  Biso   1.000  O
  O9       1.0000 0.57890  0.18990  0.62220  Biso   1.000  O
  O10      1.0000 0.92110  0.68990  0.62220  Biso   1.000  O
  O11      1.0000 0.57890  0.31010  0.12220  Biso   1.000  O
  O12      1.0000 0.92110  0.81010  0.12220  Biso   1.000  O
  O13      1.0000 0.42110  0.81010  0.37780  Biso   1.000  O
  O14      1.0000 0.07890  0.31010  0.37780  Biso   1.000  O
  O15      1.0000 0.42110  0.68990  0.87780  Biso   1.000  O
  O16      1.0000 0.07890  0.18990  0.87780  Biso   1.000  O
  O17      1.0000 0.27760  0.05360  0.64820  Biso   1.000  O
  O18      1.0000 0.22240  0.55360  0.64820  Biso   1.000  O
  O19      1.0000 0.27760  0.44640  0.14820  Biso   1.000  O
  O20      1.0000 0.22240  0.94640  0.14820  Biso   1.000  O
  O21      1.0000 0.72240  0.94640  0.35180  Biso   1.000  O
  O22      1.0000 0.77760  0.44640  0.35180  Biso   1.000  O
  O23      1.0000 0.72240  0.55360  0.85180  Biso   1.000  O
  O24      1.0000 0.77760  0.05360  0.85180  Biso   1.000  O
  O25      1.0000 0.68860  0.09260  0.51950  Biso   1.000  O
  O26      1.0000 0.81140  0.59260  0.51950  Biso   1.000  O
  O27      1.0000 0.68860  0.40740  0.01950  Biso   1.000  O
  O28      1.0000 0.81140  0.90740  0.01950  Biso   1.000  O
  O29      1.0000 0.31140  0.90740  0.48050  Biso   1.000  O
  O30      1.0000 0.18860  0.40740  0.48050  Biso   1.000  O
  O31      1.0000 0.31140  0.59260  0.98050  Biso   1.000  O
  O32      1.0000 0.18860  0.09260  0.98050  Biso   1.000  O
  C1       1.0000 0.95210  0.75740  0.42180  Biso   1.000  C
  C2       1.0000 0.54790  0.25740  0.42180  Biso   1.000  C
  C3       1.0000 0.95210  0.74260  0.92180  Biso   1.000  C
  C4       1.0000 0.54790  0.24260  0.92180  Biso   1.000  C
  C5       1.0000 0.04790  0.24260  0.57820  Biso   1.000  C
  C6       1.0000 0.45210  0.74260  0.57820  Biso   1.000  C
  C7       1.0000 0.04790  0.25740  0.07820  Biso   1.000  C
  C8       1.0000 0.45210  0.75740  0.07820  Biso   1.000  C
  C9       1.0000 0.96550  0.88930  0.39440  Biso   1.000  C
  C10      1.0000 0.53450  0.38930  0.39440  Biso   1.000  C
  C11      1.0000 0.96550  0.61070  0.89440  Biso   1.000  C
  C12      1.0000 0.53450  0.11070  0.89440  Biso   1.000  C
  C13      1.0000 0.03450  0.11070  0.60560  Biso   1.000  C
  C14      1.0000 0.46550  0.61070  0.60560  Biso   1.000  C
  C15      1.0000 0.03450  0.38930  0.10560  Biso   1.000  C
  C16      1.0000 0.46550  0.88930  0.10560  Biso   1.000  C
  C17      1.0000 0.05510  0.96380  0.40780  Biso   1.000  C
  C18      1.0000 0.44490  0.46380  0.40780  Biso   1.000  C
  C19      1.0000 0.05510  0.53620  0.90780  Biso   1.000  C
  C20      1.0000 0.44490  0.03620  0.90780  Biso   1.000  C
  C21      1.0000 0.94490  0.03620  0.59220  Biso   1.000  C
  C22      1.0000 0.55510  0.53620  0.59220  Biso   1.000  C
  C23      1.0000 0.94490  0.46380  0.09220  Biso   1.000  C
  C24      1.0000 0.55510  0.96380  0.09220  Biso   1.000  C
  C25      1.0000 0.12800  0.90650  0.44970  Biso   1.000  C
  C26      1.0000 0.37200  0.40650  0.44970  Biso   1.000  C
  C27      1.0000 0.12800  0.59350  0.94970  Biso   1.000  C
  C28      1.0000 0.37200  0.09350  0.94970  Biso   1.000  C
  C29      1.0000 0.87200  0.09350  0.55030  Biso   1.000  C
  C30      1.0000 0.62800  0.59350  0.55030  Biso   1.000  C
  C31      1.0000 0.87200  0.40650  0.05030  Biso   1.000  C
  C32      1.0000 0.62800  0.90650  0.05030  Biso   1.000  C
  C33      1.0000 0.10850  0.77340  0.47650  Biso   1.000  C
  C34      1.0000 0.39150  0.27340  0.47650  Biso   1.000  C
  C35      1.0000 0.10850  0.72660  0.97650  Biso   1.000  C
  C36      1.0000 0.39150  0.22660  0.97650  Biso   1.000  C
  C37      1.0000 0.89150  0.22660  0.52350  Biso   1.000  C
  C38      1.0000 0.60850  0.72660  0.52350  Biso   1.000  C
  C39      1.0000 0.89150  0.27340  0.02350  Biso   1.000  C
  C40      1.0000 0.60850  0.77340  0.02350  Biso   1.000  C
  C41      1.0000 0.77580  0.01030  0.53390  Biso   1.000  C
  C42      1.0000 0.72420  0.51030  0.53390  Biso   1.000  C
  C43      1.0000 0.77580  0.48970  0.03390  Biso   1.000  C
  C44      1.0000 0.72420  0.98970  0.03390  Biso   1.000  C
  C45      1.0000 0.22420  0.98970  0.46610  Biso   1.000  C
  C46      1.0000 0.27580  0.48970  0.46610  Biso   1.000  C
  C47      1.0000 0.22420  0.51030  0.96610  Biso   1.000  C
  C48      1.0000 0.27580  0.01030  0.96610  Biso   1.000  C
  C49      1.0000 0.48850  0.14800  0.62740  Biso   1.000  C
  C50      1.0000 0.01150  0.64800  0.62740  Biso   1.000  C
  C51      1.0000 0.48850  0.35200  0.12740  Biso   1.000  C
  C52      1.0000 0.01150  0.85200  0.12740  Biso   1.000  C
  C53      1.0000 0.51150  0.85200  0.37260  Biso   1.000  C
  C54      1.0000 0.98850  0.35200  0.37260  Biso   1.000  C
  C55      1.0000 0.51150  0.64800  0.87260  Biso   1.000  C
  C56      1.0000 0.98850  0.14800  0.87260  Biso   1.000  C
  C57      1.0000 0.42220  0.19490  0.68360  Biso   1.000  C
  C58      1.0000 0.07780  0.69490  0.68360  Biso   1.000  C
  C59      1.0000 0.42220  0.30510  0.18360  Biso   1.000  C
  C60      1.0000 0.07780  0.80510  0.18360  Biso   1.000  C
  C61      1.0000 0.57780  0.80510  0.31640  Biso   1.000  C
  C62      1.0000 0.92220  0.30510  0.31640  Biso   1.000  C
  C63      1.0000 0.57780  0.69490  0.81640  Biso   1.000  C
  C64      1.0000 0.92220  0.19490  0.81640  Biso   1.000  C
  C65      1.0000 0.46020  0.29400  0.73010  Biso   1.000  C
  C66      1.0000 0.03980  0.79400  0.73010  Biso   1.000  C
  C67      1.0000 0.46020  0.20600  0.23010  Biso   1.000  C
  C68      1.0000 0.03980  0.70600  0.23010  Biso   1.000  C
  C69      1.0000 0.53980  0.70600  0.26990  Biso   1.000  C
  C70      1.0000 0.96020  0.20600  0.26990  Biso   1.000  C
  C71      1.0000 0.53980  0.79400  0.76990  Biso   1.000  C
  C72      1.0000 0.96020  0.29400  0.76990  Biso   1.000  C
  C73      1.0000 0.39640  0.34200  0.78140  Biso   1.000  C
  C74      1.0000 0.10360  0.84200  0.78140  Biso   1.000  C
  C75      1.0000 0.39640  0.15800  0.28140  Biso   1.000  C
  C76      1.0000 0.10360  0.65800  0.28140  Biso   1.000  C
  C77      1.0000 0.60360  0.65800  0.21860  Biso   1.000  C
  C78      1.0000 0.89640  0.15800  0.21860  Biso   1.000  C
  C79      1.0000 0.60360  0.84200  0.71860  Biso   1.000  C
  C80      1.0000 0.89640  0.34200  0.71860  Biso   1.000  C
  C81      1.0000 0.29700  0.29010  0.78770  Biso   1.000  C
  C82      1.0000 0.20300  0.79010  0.78770  Biso   1.000  C
  C83      1.0000 0.29700  0.20990  0.28770  Biso   1.000  C
  C84      1.0000 0.20300  0.70990  0.28770  Biso   1.000  C
  C85      1.0000 0.70300  0.70990  0.21230  Biso   1.000  C
  C86      1.0000 0.79700  0.20990  0.21230  Biso   1.000  C
  C87      1.0000 0.70300  0.79010  0.71230  Biso   1.000  C
  C88      1.0000 0.79700  0.29010  0.71230  Biso   1.000  C
  C89      1.0000 0.25990  0.19200  0.74450  Biso   1.000  C
  C90      1.0000 0.24010  0.69200  0.74450  Biso   1.000  C
  C91      1.0000 0.25990  0.30800  0.24450  Biso   1.000  C
  C92      1.0000 0.24010  0.80800  0.24450  Biso   1.000  C
  C93      1.0000 0.74010  0.80800  0.25550  Biso   1.000  C
  C94      1.0000 0.75990  0.30800  0.25550  Biso   1.000  C
  C95      1.0000 0.74010  0.69200  0.75550  Biso   1.000  C
  C96      1.0000 0.75990  0.19200  0.75550  Biso   1.000  C
  C97      1.0000 0.32010  0.14700  0.69150  Biso   1.000  C
  C98      1.0000 0.17990  0.64700  0.69150  Biso   1.000  C
  C99      1.0000 0.32010  0.35300  0.19150  Biso   1.000  C
  C100     1.0000 0.17990  0.85300  0.19150  Biso   1.000  C
  C101     1.0000 0.67990  0.85300  0.30850  Biso   1.000  C
  C102     1.0000 0.82010  0.35300  0.30850  Biso   1.000  C
  C103     1.0000 0.67990  0.64700  0.80850  Biso   1.000  C
  C104     1.0000 0.82010  0.14700  0.80850  Biso   1.000  C
  H1       1.0000 0.53690  0.33640  0.72450  Biso   1.000  H
  H2       1.0000 0.96310  0.83640  0.72450  Biso   1.000  H
  H3       1.0000 0.53690  0.16360  0.22450  Biso   1.000  H
  H4       1.0000 0.96310  0.66360  0.22450  Biso   1.000  H
  H5       1.0000 0.46310  0.66360  0.27550  Biso   1.000  H
  H6       1.0000 0.03690  0.16360  0.27550  Biso   1.000  H
  H7       1.0000 0.46310  0.83640  0.77550  Biso   1.000  H
  H8       1.0000 0.03690  0.33640  0.77550  Biso   1.000  H
  H9       1.0000 0.42610  0.41940  0.81740  Biso   1.000  H
  H10      1.0000 0.07390  0.91940  0.81740  Biso   1.000  H
  H11      1.0000 0.42610  0.08060  0.31740  Biso   1.000  H
  H12      1.0000 0.07390  0.58060  0.31740  Biso   1.000  H
  H13      1.0000 0.57390  0.58060  0.18260  Biso   1.000  H
  H14      1.0000 0.92610  0.08060  0.18260  Biso   1.000  H
  H15      1.0000 0.57390  0.91940  0.68260  Biso   1.000  H
  H16      1.0000 0.92610  0.41940  0.68260  Biso   1.000  H
  H17      1.0000 0.24820  0.32650  0.82930  Biso   1.000  H
  H18      1.0000 0.25180  0.82650  0.82930  Biso   1.000  H
  H19      1.0000 0.24820  0.17350  0.32930  Biso   1.000  H
  H20      1.0000 0.25180  0.67350  0.32930  Biso   1.000  H
  H21      1.0000 0.75180  0.67350  0.17070  Biso   1.000  H
  H22      1.0000 0.74820  0.17350  0.17070  Biso   1.000  H
  H23      1.0000 0.75180  0.82650  0.67070  Biso   1.000  H
  H24      1.0000 0.74820  0.32650  0.67070  Biso   1.000  H
  H25      1.0000 0.18110  0.15050  0.74820  Biso   1.000  H
  H26      1.0000 0.31890  0.65050  0.74820  Biso   1.000  H
  H27      1.0000 0.18110  0.34950  0.24820  Biso   1.000  H
  H28      1.0000 0.31890  0.84950  0.24820  Biso   1.000  H
  H29      1.0000 0.81890  0.84950  0.25180  Biso   1.000  H
  H30      1.0000 0.68110  0.34950  0.25180  Biso   1.000  H
  H31      1.0000 0.81890  0.65050  0.75180  Biso   1.000  H
  H32      1.0000 0.68110  0.15050  0.75180  Biso   1.000  H
  H33      1.0000 0.26240  0.98000  0.60770  Biso   1.000  H
  H34      1.0000 0.23760  0.48000  0.60770  Biso   1.000  H
  H35      1.0000 0.26240  0.52000  0.10770  Biso   1.000  H
  H36      1.0000 0.23760  0.02000  0.10770  Biso   1.000  H
  H37      1.0000 0.73760  0.02000  0.39230  Biso   1.000  H
  H38      1.0000 0.76240  0.52000  0.39230  Biso   1.000  H
  H39      1.0000 0.73760  0.48000  0.89230  Biso   1.000  H
  H40      1.0000 0.76240  0.98000  0.89230  Biso   1.000  H
  H41      1.0000 0.14420  0.72540  0.50850  Biso   1.000  H
  H42      1.0000 0.35580  0.22540  0.50850  Biso   1.000  H
  H43      1.0000 0.14420  0.77460  0.00850  Biso   1.000  H
  H44      1.0000 0.35580  0.27460  0.00850  Biso   1.000  H
  H45      1.0000 0.85580  0.27460  0.49150  Biso   1.000  H
  H46      1.0000 0.64420  0.77460  0.49150  Biso   1.000  H
  H47      1.0000 0.85580  0.22540  0.99150  Biso   1.000  H
  H48      1.0000 0.64420  0.72540  0.99150  Biso   1.000  H
  H49      1.0000 0.89030  0.69710  0.40420  Biso   1.000  H
  H50      1.0000 0.60970  0.19710  0.40420  Biso   1.000  H
  H51      1.0000 0.89030  0.80290  0.90420  Biso   1.000  H
  H52      1.0000 0.60970  0.30290  0.90420  Biso   1.000  H
  H53      1.0000 0.10970  0.30290  0.59580  Biso   1.000  H
  H54      1.0000 0.39030  0.80290  0.59580  Biso   1.000  H
  H55      1.0000 0.10970  0.19710  0.09580  Biso   1.000  H
  H56      1.0000 0.39030  0.69710  0.09580  Biso   1.000  H
  H57      1.0000 0.90890  0.93760  0.37010  Biso   1.000  H
  H58      1.0000 0.59110  0.43760  0.37010  Biso   1.000  H
  H59      1.0000 0.90890  0.56240  0.87010  Biso   1.000  H
  H60      1.0000 0.59110  0.06240  0.87010  Biso   1.000  H
  H61      1.0000 0.09110  0.06240  0.62990  Biso   1.000  H
  H62      1.0000 0.40890  0.56240  0.62990  Biso   1.000  H
  H63      1.0000 0.09110  0.43760  0.12990  Biso   1.000  H
  H64      1.0000 0.40890  0.93760  0.12990  Biso   1.000  H
  H65      1.0000 0.06910  0.06710  0.38790  Biso   1.000  H
  H66      1.0000 0.43090  0.56710  0.38790  Biso   1.000  H
  H67      1.0000 0.06910  0.43290  0.88790  Biso   1.000  H
  H68      1.0000 0.43090  0.93290  0.88790  Biso   1.000  H
  H69      1.0000 0.93090  0.93290  0.61210  Biso   1.000  H
  H70      1.0000 0.56910  0.43290  0.61210  Biso   1.000  H
  H71      1.0000 0.93090  0.56710  0.11210  Biso   1.000  H
  H72      1.0000 0.56910  0.06710  0.11210  Biso   1.000  H
  H73      1.0000 0.75810  0.94200  0.57450  Biso   1.000  H
  H74      1.0000 0.74190  0.44200  0.57450  Biso   1.000  H
  H75      1.0000 0.75810  0.55800  0.07450  Biso   1.000  H
  H76      1.0000 0.74190  0.05800  0.07450  Biso   1.000  H
  H77      1.0000 0.24190  0.05800  0.42550  Biso   1.000  H
  H78      1.0000 0.25810  0.55800  0.42550  Biso   1.000  H
  H79      1.0000 0.24190  0.44200  0.92550  Biso   1.000  H
  H80      1.0000 0.25810  0.94200  0.92550  Biso   1.000  H
  H81      1.0000 0.79260  0.94650  0.48920  Biso   1.000  H
  H82      1.0000 0.70740  0.44650  0.48920  Biso   1.000  H
  H83      1.0000 0.79260  0.55350  0.98920  Biso   1.000  H
  H84      1.0000 0.70740  0.05350  0.98920  Biso   1.000  H
  H85      1.0000 0.20740  0.05350  0.51080  Biso   1.000  H
  H86      1.0000 0.29260  0.55350  0.51080  Biso   1.000  H
  H87      1.0000 0.20740  0.44650  0.01080  Biso   1.000  H
  H88      1.0000 0.29260  0.94650  0.01080  Biso   1.000  H
  H89      1.0000 0.69150  0.20450  0.50460  Biso   1.000  H
  H90      1.0000 0.80850  0.70450  0.50460  Biso   1.000  H
  H91      1.0000 0.69150  0.29550  0.00460  Biso   1.000  H
  H92      1.0000 0.80850  0.79550  0.00460  Biso   1.000  H
  H93      1.0000 0.30850  0.79550  0.49540  Biso   1.000  H
  H94      1.0000 0.19150  0.29550  0.49540  Biso   1.000  H
  H95      1.0000 0.30850  0.70450  0.99540  Biso   1.000  H
  H96      1.0000 0.19150  0.20450  0.99540  Biso   1.000  H
