data_image0
_cell_length_a       12.823
_cell_length_b       9.914
_cell_length_c       19.75
_cell_angle_alpha    90
_cell_angle_beta     90
_cell_angle_gamma    90

_symmetry_space_group_name_H-M    "P 1"
_symmetry_int_tables_number       1

loop_
  _symmetry_equiv_pos_as_xyz
  'x, y, z'

loop_
  _atom_site_label
  _atom_site_occupancy
  _atom_site_fract_x
  _atom_site_fract_y
  _atom_site_fract_z
  _atom_site_thermal_displace_type
  _atom_site_B_iso_or_equiv
  _atom_site_type_symbol
  Cu1      1.0000 0.50000  0.00000  0.50000  Biso   1.000  Cu
  Cu2      1.0000 0.00000  0.00000  0.00000  Biso   1.000  Cu
  Cu3      1.0000 0.00000  0.50000  0.50000  Biso   1.000  Cu
  Cu4      1.0000 0.50000  0.50000  0.00000  Biso   1.000  Cu
  N1       1.0000 0.47632  0.19848  0.53736  Biso   1.000  N
  N2       1.0000 0.02368  0.80152  0.03736  Biso   1.000  N
  N3       1.0000 0.97632  0.30152  0.46264  Biso   1.000  N
  N4       1.0000 0.52368  0.69848  0.96264  Biso   1.000  N
  N5       1.0000 0.52368  0.80152  0.46264  Biso   1.000  N
  N6       1.0000 0.97632  0.19848  0.96264  Biso   1.000  N
  N7       1.0000 0.02368  0.69848  0.53736  Biso   1.000  N
  N8       1.0000 0.47632  0.30152  0.03736  Biso   1.000  N
  O1       1.0000 0.44674  0.05961  0.41204  Biso   1.000  O
  O2       1.0000 0.05326  0.94039  0.91204  Biso   1.000  O
  O3       1.0000 0.94674  0.44039  0.58796  Biso   1.000  O
  O4       1.0000 0.55326  0.55961  0.08796  Biso   1.000  O
  O5       1.0000 0.55326  0.94039  0.58796  Biso   1.000  O
  O6       1.0000 0.94674  0.05961  0.08796  Biso   1.000  O
  O7       1.0000 0.05326  0.55961  0.41204  Biso   1.000  O
  O8       1.0000 0.44674  0.44039  0.91204  Biso   1.000  O
  O9       1.0000 0.57951  0.19366  0.37546  Biso   1.000  O
  O10      1.0000 0.92049  0.80634  0.87546  Biso   1.000  O
  O11      1.0000 0.07951  0.30634  0.62454  Biso   1.000  O
  O12      1.0000 0.42049  0.69366  0.12454  Biso   1.000  O
  O13      1.0000 0.42049  0.80634  0.62454  Biso   1.000  O
  O14      1.0000 0.07951  0.19366  0.12454  Biso   1.000  O
  O15      1.0000 0.92049  0.69366  0.37546  Biso   1.000  O
  O16      1.0000 0.57951  0.30634  0.87546  Biso   1.000  O
  O17      1.0000 0.27523  0.04857  0.34879  Biso   1.000  O
  O18      1.0000 0.22477  0.95143  0.84879  Biso   1.000  O
  O19      1.0000 0.77523  0.45143  0.65121  Biso   1.000  O
  O20      1.0000 0.72477  0.54857  0.15121  Biso   1.000  O
  O21      1.0000 0.72477  0.95143  0.65121  Biso   1.000  O
  O22      1.0000 0.77523  0.04857  0.15121  Biso   1.000  O
  O23      1.0000 0.22477  0.54857  0.34879  Biso   1.000  O
  O24      1.0000 0.27523  0.45143  0.84879  Biso   1.000  O
  H1       1.0000 0.32020  0.02410  0.37720  Biso   1.000  H
  H2       1.0000 0.17980  0.97590  0.87720  Biso   1.000  H
  H3       1.0000 0.82020  0.47590  0.62280  Biso   1.000  H
  H4       1.0000 0.67980  0.52410  0.12280  Biso   1.000  H
  H5       1.0000 0.67980  0.97590  0.62280  Biso   1.000  H
  H6       1.0000 0.82020  0.02410  0.12280  Biso   1.000  H
  H7       1.0000 0.17980  0.52410  0.37720  Biso   1.000  H
  H8       1.0000 0.32020  0.47590  0.87720  Biso   1.000  H
  O25      1.0000 0.18495  0.40747  0.51719  Biso   1.000  O
  O26      1.0000 0.31505  0.59253  0.01719  Biso   1.000  O
  O27      1.0000 0.68495  0.09253  0.48281  Biso   1.000  O
  O28      1.0000 0.81505  0.90747  0.98281  Biso   1.000  O
  O29      1.0000 0.81505  0.59253  0.48281  Biso   1.000  O
  O30      1.0000 0.68495  0.40747  0.98281  Biso   1.000  O
  O31      1.0000 0.31505  0.90747  0.51719  Biso   1.000  O
  O32      1.0000 0.18495  0.09253  0.01719  Biso   1.000  O
  H9       1.0000 0.16700  0.37070  0.55370  Biso   1.000  H
  H10      1.0000 0.33300  0.62930  0.05370  Biso   1.000  H
  H11      1.0000 0.66700  0.12930  0.44630  Biso   1.000  H
  H12      1.0000 0.83300  0.87070  0.94630  Biso   1.000  H
  H13      1.0000 0.83300  0.62930  0.44630  Biso   1.000  H
  H14      1.0000 0.66700  0.37070  0.94630  Biso   1.000  H
  H15      1.0000 0.33300  0.87070  0.55370  Biso   1.000  H
  H16      1.0000 0.16700  0.12930  0.05370  Biso   1.000  H
  C1       1.0000 0.48894  0.14920  0.37046  Biso   1.000  C
  C2       1.0000 0.01106  0.85080  0.87046  Biso   1.000  C
  C3       1.0000 0.98894  0.35080  0.62954  Biso   1.000  C
  C4       1.0000 0.51106  0.64920  0.12954  Biso   1.000  C
  C5       1.0000 0.51106  0.85080  0.62954  Biso   1.000  C
  C6       1.0000 0.98894  0.14920  0.12954  Biso   1.000  C
  C7       1.0000 0.01106  0.64920  0.37046  Biso   1.000  C
  C8       1.0000 0.48894  0.35080  0.87046  Biso   1.000  C
  C9       1.0000 0.41954  0.19821  0.31420  Biso   1.000  C
  C10      1.0000 0.08046  0.80179  0.81420  Biso   1.000  C
  C11      1.0000 0.91954  0.30179  0.68580  Biso   1.000  C
  C12      1.0000 0.58046  0.69821  0.18580  Biso   1.000  C
  C13      1.0000 0.58046  0.80179  0.68580  Biso   1.000  C
  C14      1.0000 0.91954  0.19821  0.18580  Biso   1.000  C
  C15      1.0000 0.08046  0.69821  0.31420  Biso   1.000  C
  C16      1.0000 0.41954  0.30179  0.81420  Biso   1.000  C
  C17      1.0000 0.31793  0.14500  0.30623  Biso   1.000  C
  C18      1.0000 0.18207  0.85500  0.80623  Biso   1.000  C
  C19      1.0000 0.81793  0.35500  0.69377  Biso   1.000  C
  C20      1.0000 0.68207  0.64500  0.19377  Biso   1.000  C
  C21      1.0000 0.68207  0.85500  0.69377  Biso   1.000  C
  C22      1.0000 0.81793  0.14500  0.19377  Biso   1.000  C
  C23      1.0000 0.18207  0.64500  0.30623  Biso   1.000  C
  C24      1.0000 0.31793  0.35500  0.80623  Biso   1.000  C
  C25      1.0000 0.25545  0.19310  0.25288  Biso   1.000  C
  C26      1.0000 0.24455  0.80690  0.75288  Biso   1.000  C
  C27      1.0000 0.75545  0.30690  0.74712  Biso   1.000  C
  C28      1.0000 0.74455  0.69310  0.24712  Biso   1.000  C
  C29      1.0000 0.74455  0.80690  0.74712  Biso   1.000  C
  C30      1.0000 0.75545  0.19310  0.24712  Biso   1.000  C
  C31      1.0000 0.24455  0.69310  0.25288  Biso   1.000  C
  C32      1.0000 0.25545  0.30690  0.75288  Biso   1.000  C
  H17      1.0000 0.18740  0.15750  0.24640  Biso   1.000  H
  H18      1.0000 0.31260  0.84250  0.74640  Biso   1.000  H
  H19      1.0000 0.68740  0.34250  0.75360  Biso   1.000  H
  H20      1.0000 0.81260  0.65750  0.25360  Biso   1.000  H
  H21      1.0000 0.81260  0.84250  0.75360  Biso   1.000  H
  H22      1.0000 0.68740  0.15750  0.25360  Biso   1.000  H
  H23      1.0000 0.31260  0.65750  0.24640  Biso   1.000  H
  H24      1.0000 0.18740  0.34250  0.74640  Biso   1.000  H
  C33      1.0000 0.29349  0.29440  0.20895  Biso   1.000  C
  C34      1.0000 0.20651  0.70560  0.70895  Biso   1.000  C
  C35      1.0000 0.79349  0.20560  0.79105  Biso   1.000  C
  C36      1.0000 0.70651  0.79440  0.29105  Biso   1.000  C
  C37      1.0000 0.70651  0.70560  0.79105  Biso   1.000  C
  C38      1.0000 0.79349  0.29440  0.29105  Biso   1.000  C
  C39      1.0000 0.20651  0.79440  0.20895  Biso   1.000  C
  C40      1.0000 0.29349  0.20560  0.70895  Biso   1.000  C
  H25      1.0000 0.24990  0.32630  0.17350  Biso   1.000  H
  H26      1.0000 0.25010  0.67370  0.67350  Biso   1.000  H
  H27      1.0000 0.74990  0.17370  0.82650  Biso   1.000  H
  H28      1.0000 0.75010  0.82630  0.32650  Biso   1.000  H
  H29      1.0000 0.75010  0.67370  0.82650  Biso   1.000  H
  H30      1.0000 0.74990  0.32630  0.32650  Biso   1.000  H
  H31      1.0000 0.25010  0.82630  0.17350  Biso   1.000  H
  H32      1.0000 0.24990  0.17370  0.67350  Biso   1.000  H
  C41      1.0000 0.39342  0.34870  0.21621  Biso   1.000  C
  C42      1.0000 0.10658  0.65130  0.71621  Biso   1.000  C
  C43      1.0000 0.89342  0.15130  0.78379  Biso   1.000  C
  C44      1.0000 0.60658  0.84870  0.28379  Biso   1.000  C
  C45      1.0000 0.60658  0.65130  0.78379  Biso   1.000  C
  C46      1.0000 0.89342  0.34870  0.28379  Biso   1.000  C
  C47      1.0000 0.10658  0.84870  0.21621  Biso   1.000  C
  C48      1.0000 0.39342  0.15130  0.71621  Biso   1.000  C
  H33      1.0000 0.41780  0.41730  0.18660  Biso   1.000  H
  H34      1.0000 0.08220  0.58270  0.68660  Biso   1.000  H
  H35      1.0000 0.91780  0.08270  0.81340  Biso   1.000  H
  H36      1.0000 0.58220  0.91730  0.31340  Biso   1.000  H
  H37      1.0000 0.58220  0.58270  0.81340  Biso   1.000  H
  H38      1.0000 0.91780  0.41730  0.31340  Biso   1.000  H
  H39      1.0000 0.08220  0.91730  0.18660  Biso   1.000  H
  H40      1.0000 0.41780  0.08270  0.68660  Biso   1.000  H
  C49      1.0000 0.45618  0.29940  0.26805  Biso   1.000  C
  C50      1.0000 0.04382  0.70060  0.76805  Biso   1.000  C
  C51      1.0000 0.95618  0.20060  0.73195  Biso   1.000  C
  C52      1.0000 0.54382  0.79940  0.23195  Biso   1.000  C
  C53      1.0000 0.54382  0.70060  0.73195  Biso   1.000  C
  C54      1.0000 0.95618  0.29940  0.23195  Biso   1.000  C
  C55      1.0000 0.04382  0.79940  0.26805  Biso   1.000  C
  C56      1.0000 0.45618  0.20060  0.76805  Biso   1.000  C
  H41      1.0000 0.52500  0.33360  0.27300  Biso   1.000  H
  H42      1.0000 0.97500  0.66640  0.77300  Biso   1.000  H
  H43      1.0000 0.02500  0.16640  0.72700  Biso   1.000  H
  H44      1.0000 0.47500  0.83360  0.22700  Biso   1.000  H
  H45      1.0000 0.47500  0.66640  0.72700  Biso   1.000  H
  H46      1.0000 0.02500  0.33360  0.22700  Biso   1.000  H
  H47      1.0000 0.97500  0.83360  0.27300  Biso   1.000  H
  H48      1.0000 0.52500  0.16640  0.77300  Biso   1.000  H
  C57      1.0000 0.39096  0.27442  0.52158  Biso   1.000  C
  C58      1.0000 0.10904  0.72558  0.02158  Biso   1.000  C
  C59      1.0000 0.89096  0.22558  0.47842  Biso   1.000  C
  C60      1.0000 0.60904  0.77442  0.97842  Biso   1.000  C
  C61      1.0000 0.60904  0.72558  0.47842  Biso   1.000  C
  C62      1.0000 0.89096  0.27442  0.97842  Biso   1.000  C
  C63      1.0000 0.10904  0.77442  0.52158  Biso   1.000  C
  C64      1.0000 0.39096  0.22558  0.02158  Biso   1.000  C
  H49      1.0000 0.34170  0.23740  0.49080  Biso   1.000  H
  H50      1.0000 0.15830  0.76260  0.99080  Biso   1.000  H
  H51      1.0000 0.84170  0.26260  0.50920  Biso   1.000  H
  H52      1.0000 0.65830  0.73740  0.00920  Biso   1.000  H
  H53      1.0000 0.65830  0.76260  0.50920  Biso   1.000  H
  H54      1.0000 0.84170  0.23740  0.00920  Biso   1.000  H
  H55      1.0000 0.15830  0.73740  0.49080  Biso   1.000  H
  H56      1.0000 0.34170  0.26260  0.99080  Biso   1.000  H
  C65      1.0000 0.37049  0.40755  0.54852  Biso   1.000  C
  C66      1.0000 0.12951  0.59245  0.04852  Biso   1.000  C
  C67      1.0000 0.87049  0.09245  0.45148  Biso   1.000  C
  C68      1.0000 0.62951  0.90755  0.95148  Biso   1.000  C
  C69      1.0000 0.62951  0.59245  0.45148  Biso   1.000  C
  C70      1.0000 0.87049  0.40755  0.95148  Biso   1.000  C
  C71      1.0000 0.12951  0.90755  0.54852  Biso   1.000  C
  C72      1.0000 0.37049  0.09245  0.04852  Biso   1.000  C
  C73      1.0000 0.44305  0.46600  0.59259  Biso   1.000  C
  C74      1.0000 0.05695  0.53400  0.09259  Biso   1.000  C
  C75      1.0000 0.94305  0.03400  0.40741  Biso   1.000  C
  C76      1.0000 0.55695  0.96600  0.90741  Biso   1.000  C
  C77      1.0000 0.55695  0.53400  0.40741  Biso   1.000  C
  C78      1.0000 0.94305  0.46600  0.90741  Biso   1.000  C
  C79      1.0000 0.05695  0.96600  0.59259  Biso   1.000  C
  C80      1.0000 0.44305  0.03400  0.09259  Biso   1.000  C
  H57      1.0000 0.43230  0.55340  0.61110  Biso   1.000  H
  H58      1.0000 0.06770  0.44660  0.11110  Biso   1.000  H
  H59      1.0000 0.93230  0.94660  0.38890  Biso   1.000  H
  H60      1.0000 0.56770  0.05340  0.88890  Biso   1.000  H
  H61      1.0000 0.56770  0.44660  0.38890  Biso   1.000  H
  H62      1.0000 0.93230  0.55340  0.88890  Biso   1.000  H
  H63      1.0000 0.06770  0.05340  0.61110  Biso   1.000  H
  H64      1.0000 0.43230  0.94660  0.11110  Biso   1.000  H
  C81      1.0000 0.53255  0.39003  0.60831  Biso   1.000  C
  C82      1.0000 0.96745  0.60997  0.10831  Biso   1.000  C
  C83      1.0000 0.03255  0.10997  0.39169  Biso   1.000  C
  C84      1.0000 0.46745  0.89003  0.89169  Biso   1.000  C
  C85      1.0000 0.46745  0.60997  0.39169  Biso   1.000  C
  C86      1.0000 0.03255  0.39003  0.89169  Biso   1.000  C
  C87      1.0000 0.96745  0.89003  0.60831  Biso   1.000  C
  C88      1.0000 0.53255  0.10997  0.10831  Biso   1.000  C
  H65      1.0000 0.58430  0.42660  0.63740  Biso   1.000  H
  H66      1.0000 0.91570  0.57340  0.13740  Biso   1.000  H
  H67      1.0000 0.08430  0.07340  0.36260  Biso   1.000  H
  H68      1.0000 0.41570  0.92660  0.86260  Biso   1.000  H
  H69      1.0000 0.41570  0.57340  0.36260  Biso   1.000  H
  H70      1.0000 0.08430  0.42660  0.86260  Biso   1.000  H
  H71      1.0000 0.91570  0.92660  0.63740  Biso   1.000  H
  H72      1.0000 0.58430  0.07340  0.13740  Biso   1.000  H
  C89      1.0000 0.54597  0.25659  0.58029  Biso   1.000  C
  C90      1.0000 0.95403  0.74341  0.08029  Biso   1.000  C
  C91      1.0000 0.04597  0.24341  0.41971  Biso   1.000  C
  C92      1.0000 0.45403  0.75659  0.91971  Biso   1.000  C
  C93      1.0000 0.45403  0.74341  0.41971  Biso   1.000  C
  C94      1.0000 0.04597  0.25659  0.91971  Biso   1.000  C
  C95      1.0000 0.95403  0.75659  0.58029  Biso   1.000  C
  C96      1.0000 0.54597  0.24341  0.08029  Biso   1.000  C
  H73      1.0000 0.60650  0.20690  0.59250  Biso   1.000  H
  H74      1.0000 0.89350  0.79310  0.09250  Biso   1.000  H
  H75      1.0000 0.10650  0.29310  0.40750  Biso   1.000  H
  H76      1.0000 0.39350  0.70690  0.90750  Biso   1.000  H
  H77      1.0000 0.39350  0.79310  0.40750  Biso   1.000  H
  H78      1.0000 0.10650  0.20690  0.90750  Biso   1.000  H
  H79      1.0000 0.89350  0.70690  0.59250  Biso   1.000  H
  H80      1.0000 0.60650  0.29310  0.09250  Biso   1.000  H
  C97      1.0000 0.27487  0.49186  0.52884  Biso   1.000  C
  C98      1.0000 0.22513  0.50814  0.02884  Biso   1.000  C
  C99      1.0000 0.77487  0.00814  0.47116  Biso   1.000  C
  C100     1.0000 0.72513  0.99186  0.97116  Biso   1.000  C
  C101     1.0000 0.72513  0.50814  0.47116  Biso   1.000  C
  C102     1.0000 0.77487  0.49186  0.97116  Biso   1.000  C
  C103     1.0000 0.22513  0.99186  0.52884  Biso   1.000  C
  C104     1.0000 0.27487  0.00814  0.02884  Biso   1.000  C
  H81      1.0000 0.25920  0.55690  0.56550  Biso   1.000  H
  H82      1.0000 0.24080  0.44310  0.06550  Biso   1.000  H
  H83      1.0000 0.75920  0.94310  0.43450  Biso   1.000  H
  H84      1.0000 0.74080  0.05690  0.93450  Biso   1.000  H
  H85      1.0000 0.74080  0.44310  0.43450  Biso   1.000  H
  H86      1.0000 0.75920  0.55690  0.93450  Biso   1.000  H
  H87      1.0000 0.24080  0.05690  0.56550  Biso   1.000  H
  H88      1.0000 0.25920  0.94310  0.06550  Biso   1.000  H
  H89      1.0000 0.29050  0.54380  0.48730  Biso   1.000  H
  H90      1.0000 0.20950  0.45620  0.98730  Biso   1.000  H
  H91      1.0000 0.79050  0.95620  0.51270  Biso   1.000  H
  H92      1.0000 0.70950  0.04380  0.01270  Biso   1.000  H
  H93      1.0000 0.70950  0.45620  0.51270  Biso   1.000  H
  H94      1.0000 0.79050  0.54380  0.01270  Biso   1.000  H
  H95      1.0000 0.20950  0.04380  0.48730  Biso   1.000  H
  H96      1.0000 0.29050  0.95620  0.98730  Biso   1.000  H
