data_image0
_cell_length_a       10.3751
_cell_length_b       8.315
_cell_length_c       23.5131
_cell_angle_alpha    90
_cell_angle_beta     102.275
_cell_angle_gamma    90

_symmetry_space_group_name_H-M    "P 1"
_symmetry_int_tables_number       1

loop_
  _symmetry_equiv_pos_as_xyz
  'x, y, z'

loop_
  _atom_site_label
  _atom_site_occupancy
  _atom_site_fract_x
  _atom_site_fract_y
  _atom_site_fract_z
  _atom_site_thermal_displace_type
  _atom_site_B_iso_or_equiv
  _atom_site_type_symbol
  Cu1      1.0000 0.67590  0.09453  0.24726  Biso   1.000  Cu
  Cu2      1.0000 0.82410  0.59453  0.25274  Biso   1.000  Cu
  Cu3      1.0000 0.32410  0.90547  0.75274  Biso   1.000  Cu
  Cu4      1.0000 0.17590  0.40547  0.74726  Biso   1.000  Cu
  O1       1.0000 0.63320  0.57170  0.25115  Biso   1.000  O
  O2       1.0000 0.86680  0.07170  0.24885  Biso   1.000  O
  O3       1.0000 0.36680  0.42830  0.74885  Biso   1.000  O
  O4       1.0000 0.13320  0.92830  0.75115  Biso   1.000  O
  O5       1.0000 0.66200  0.83440  0.25628  Biso   1.000  O
  O6       1.0000 0.83800  0.33440  0.24372  Biso   1.000  O
  O7       1.0000 0.33800  0.16560  0.74372  Biso   1.000  O
  O8       1.0000 0.16200  0.66560  0.75628  Biso   1.000  O
  N1       1.0000 0.62660  0.11270  0.16121  Biso   1.000  N
  N2       1.0000 0.87340  0.61270  0.33879  Biso   1.000  N
  N3       1.0000 0.37340  0.88730  0.83879  Biso   1.000  N
  N4       1.0000 0.12660  0.38730  0.66121  Biso   1.000  N
  N5       1.0000 0.69190  0.13410  0.33137  Biso   1.000  N
  N6       1.0000 0.80810  0.63410  0.16863  Biso   1.000  N
  N7       1.0000 0.30810  0.86590  0.66863  Biso   1.000  N
  N8       1.0000 0.19190  0.36590  0.83137  Biso   1.000  N
  N9       1.0000 0.48400  0.16020  0.24168  Biso   1.000  N
  N10      1.0000 0.01600  0.66020  0.25832  Biso   1.000  N
  N11      1.0000 0.51600  0.83980  0.75832  Biso   1.000  N
  N12      1.0000 0.98400  0.33980  0.74168  Biso   1.000  N
  C1       1.0000 0.45210  0.26470  0.18899  Biso   1.000  C
  C2       1.0000 0.04790  0.76470  0.31101  Biso   1.000  C
  C3       1.0000 0.54790  0.73530  0.81101  Biso   1.000  C
  C4       1.0000 0.95210  0.23530  0.68899  Biso   1.000  C
  H1       1.0000 0.48490  0.37510  0.19900  Biso   1.000  H
  H2       1.0000 0.01510  0.87510  0.30100  Biso   1.000  H
  H3       1.0000 0.51510  0.62490  0.80100  Biso   1.000  H
  H4       1.0000 0.98490  0.12490  0.69900  Biso   1.000  H
  H5       1.0000 0.35530  0.27000  0.17470  Biso   1.000  H
  H6       1.0000 0.14470  0.77000  0.32530  Biso   1.000  H
  H7       1.0000 0.64470  0.73000  0.82530  Biso   1.000  H
  H8       1.0000 0.85530  0.23000  0.67470  Biso   1.000  H
  C5       1.0000 0.51550  0.19730  0.14218  Biso   1.000  C
  C6       1.0000 0.98450  0.69730  0.35782  Biso   1.000  C
  C7       1.0000 0.48450  0.80270  0.85782  Biso   1.000  C
  C8       1.0000 0.01550  0.30270  0.64218  Biso   1.000  C
  C9       1.0000 0.46880  0.22770  0.08295  Biso   1.000  C
  C10      1.0000 0.03120  0.72770  0.41705  Biso   1.000  C
  C11      1.0000 0.53120  0.77230  0.91705  Biso   1.000  C
  C12      1.0000 0.96880  0.27230  0.58295  Biso   1.000  C
  H9       1.0000 0.38920  0.28590  0.07000  Biso   1.000  H
  H10      1.0000 0.11080  0.78590  0.43000  Biso   1.000  H
  H11      1.0000 0.61080  0.71410  0.93000  Biso   1.000  H
  H12      1.0000 0.88920  0.21410  0.57000  Biso   1.000  H
  C13      1.0000 0.53900  0.17270  0.04380  Biso   1.000  C
  C14      1.0000 0.96100  0.67270  0.45620  Biso   1.000  C
  C15      1.0000 0.46100  0.82730  0.95620  Biso   1.000  C
  C16      1.0000 0.03900  0.32730  0.54380  Biso   1.000  C
  H13      1.0000 0.50980  0.19460  0.00340  Biso   1.000  H
  H14      1.0000 0.99020  0.69460  0.49660  Biso   1.000  H
  H15      1.0000 0.49020  0.80540  0.99660  Biso   1.000  H
  H16      1.0000 0.00980  0.30540  0.50340  Biso   1.000  H
  C17      1.0000 0.65390  0.08420  0.06370  Biso   1.000  C
  C18      1.0000 0.84610  0.58420  0.43630  Biso   1.000  C
  C19      1.0000 0.34610  0.91580  0.93630  Biso   1.000  C
  C20      1.0000 0.15390  0.41580  0.56370  Biso   1.000  C
  H17      1.0000 0.70380  0.04440  0.03720  Biso   1.000  H
  H18      1.0000 0.79620  0.54440  0.46280  Biso   1.000  H
  H19      1.0000 0.29620  0.95560  0.96280  Biso   1.000  H
  H20      1.0000 0.20380  0.45560  0.53720  Biso   1.000  H
  C21      1.0000 0.69320  0.05590  0.12221  Biso   1.000  C
  C22      1.0000 0.80680  0.55590  0.37779  Biso   1.000  C
  C23      1.0000 0.30680  0.94410  0.87779  Biso   1.000  C
  C24      1.0000 0.19320  0.44410  0.62221  Biso   1.000  C
  H21      1.0000 0.77050  0.99380  0.13580  Biso   1.000  H
  H22      1.0000 0.72950  0.49380  0.36420  Biso   1.000  H
  H23      1.0000 0.22950  0.00620  0.86420  Biso   1.000  H
  H24      1.0000 0.27050  0.50620  0.63580  Biso   1.000  H
  C25      1.0000 0.47560  0.24960  0.29569  Biso   1.000  C
  C26      1.0000 0.02440  0.74960  0.20431  Biso   1.000  C
  C27      1.0000 0.52440  0.75040  0.70431  Biso   1.000  C
  C28      1.0000 0.97560  0.25040  0.79569  Biso   1.000  C
  H25      1.0000 0.38860  0.23000  0.30530  Biso   1.000  H
  H26      1.0000 0.11140  0.73000  0.19470  Biso   1.000  H
  H27      1.0000 0.61140  0.77000  0.69470  Biso   1.000  H
  H28      1.0000 0.88860  0.27000  0.80530  Biso   1.000  H
  H29      1.0000 0.48390  0.36640  0.28920  Biso   1.000  H
  H30      1.0000 0.01610  0.86640  0.21080  Biso   1.000  H
  H31      1.0000 0.51610  0.63360  0.71080  Biso   1.000  H
  H32      1.0000 0.98390  0.13360  0.78920  Biso   1.000  H
  C29      1.0000 0.58400  0.19620  0.34599  Biso   1.000  C
  C30      1.0000 0.91600  0.69620  0.15401  Biso   1.000  C
  C31      1.0000 0.41600  0.80380  0.65401  Biso   1.000  C
  C32      1.0000 0.08400  0.30380  0.84599  Biso   1.000  C
  C33      1.0000 0.57450  0.21050  0.40380  Biso   1.000  C
  C34      1.0000 0.92550  0.71050  0.09620  Biso   1.000  C
  C35      1.0000 0.42550  0.78950  0.59620  Biso   1.000  C
  C36      1.0000 0.07450  0.28950  0.90380  Biso   1.000  C
  H33      1.0000 0.49770  0.25460  0.41370  Biso   1.000  H
  H34      1.0000 0.00230  0.75460  0.08630  Biso   1.000  H
  H35      1.0000 0.50230  0.74540  0.58630  Biso   1.000  H
  H36      1.0000 0.99770  0.24540  0.91370  Biso   1.000  H
  C37      1.0000 0.67950  0.15900  0.44670  Biso   1.000  C
  C38      1.0000 0.82050  0.65900  0.05330  Biso   1.000  C
  C39      1.0000 0.32050  0.84100  0.55330  Biso   1.000  C
  C40      1.0000 0.17950  0.34100  0.94670  Biso   1.000  C
  H37      1.0000 0.67460  0.16670  0.48650  Biso   1.000  H
  H38      1.0000 0.82540  0.66670  0.01350  Biso   1.000  H
  H39      1.0000 0.32540  0.83330  0.51350  Biso   1.000  H
  H40      1.0000 0.17460  0.33330  0.98650  Biso   1.000  H
  C41      1.0000 0.79070  0.09670  0.43190  Biso   1.000  C
  C42      1.0000 0.70930  0.59670  0.06810  Biso   1.000  C
  C43      1.0000 0.20930  0.90330  0.56810  Biso   1.000  C
  C44      1.0000 0.29070  0.40330  0.93190  Biso   1.000  C
  H41      1.0000 0.86340  0.06160  0.46100  Biso   1.000  H
  H42      1.0000 0.63660  0.56160  0.03900  Biso   1.000  H
  H43      1.0000 0.13660  0.93840  0.53900  Biso   1.000  H
  H44      1.0000 0.36340  0.43840  0.96100  Biso   1.000  H
  C45      1.0000 0.79380  0.08660  0.37314  Biso   1.000  C
  C46      1.0000 0.70620  0.58660  0.12686  Biso   1.000  C
  C47      1.0000 0.20620  0.91340  0.62686  Biso   1.000  C
  C48      1.0000 0.29380  0.41340  0.87314  Biso   1.000  C
  H45      1.0000 0.87040  0.04480  0.36230  Biso   1.000  H
  H46      1.0000 0.62960  0.54480  0.13770  Biso   1.000  H
  H47      1.0000 0.12960  0.95520  0.63770  Biso   1.000  H
  H48      1.0000 0.37040  0.45520  0.86230  Biso   1.000  H
  C49      1.0000 0.39350  0.01770  0.23160  Biso   1.000  C
  C50      1.0000 0.10650  0.51770  0.26840  Biso   1.000  C
  C51      1.0000 0.60650  0.98230  0.76840  Biso   1.000  C
  C52      1.0000 0.89350  0.48230  0.73160  Biso   1.000  C
  H49      1.0000 0.40630  0.96140  0.19610  Biso   1.000  H
  H50      1.0000 0.09370  0.46140  0.30390  Biso   1.000  H
  H51      1.0000 0.59370  0.03860  0.80390  Biso   1.000  H
  H52      1.0000 0.90630  0.53860  0.69610  Biso   1.000  H
  H53      1.0000 0.30140  0.05680  0.22400  Biso   1.000  H
  H54      1.0000 0.19860  0.55680  0.27600  Biso   1.000  H
  H55      1.0000 0.69860  0.94320  0.77600  Biso   1.000  H
  H56      1.0000 0.80140  0.44320  0.72400  Biso   1.000  H
  C53      1.0000 0.41240  0.89660  0.28130  Biso   1.000  C
  C54      1.0000 0.08760  0.39660  0.21870  Biso   1.000  C
  C55      1.0000 0.58760  0.10340  0.71870  Biso   1.000  C
  C56      1.0000 0.91240  0.60340  0.78130  Biso   1.000  C
  H57      1.0000 0.32940  0.88980  0.29560  Biso   1.000  H
  H58      1.0000 0.17060  0.38980  0.20440  Biso   1.000  H
  H59      1.0000 0.67060  0.11020  0.70440  Biso   1.000  H
  H60      1.0000 0.82940  0.61020  0.79560  Biso   1.000  H
  H61      1.0000 0.48190  0.93710  0.31370  Biso   1.000  H
  H62      1.0000 0.01810  0.43710  0.18630  Biso   1.000  H
  H63      1.0000 0.51810  0.06290  0.68630  Biso   1.000  H
  H64      1.0000 0.98190  0.56290  0.81370  Biso   1.000  H
  C57      1.0000 0.45020  0.72810  0.26522  Biso   1.000  C
  C58      1.0000 0.04980  0.22810  0.23478  Biso   1.000  C
  C59      1.0000 0.54980  0.27190  0.73478  Biso   1.000  C
  C60      1.0000 0.95020  0.77190  0.76522  Biso   1.000  C
  H65      1.0000 0.43870  0.65280  0.29640  Biso   1.000  H
  H66      1.0000 0.06130  0.15280  0.20360  Biso   1.000  H
  H67      1.0000 0.56130  0.34720  0.70360  Biso   1.000  H
  H68      1.0000 0.93870  0.84720  0.79640  Biso   1.000  H
  H69      1.0000 0.38880  0.69460  0.22890  Biso   1.000  H
  H70      1.0000 0.11120  0.19460  0.27110  Biso   1.000  H
  H71      1.0000 0.61120  0.30540  0.77110  Biso   1.000  H
  H72      1.0000 0.88880  0.80540  0.72890  Biso   1.000  H
  C61      1.0000 0.59030  0.71380  0.25645  Biso   1.000  C
  C62      1.0000 0.90970  0.21380  0.24355  Biso   1.000  C
  C63      1.0000 0.40970  0.28620  0.74355  Biso   1.000  C
  C64      1.0000 0.09030  0.78620  0.75645  Biso   1.000  C
  Cl1      1.0000 0.31230  0.70930  0.08885  Biso   1.000  Cl
  Cl2      1.0000 0.18770  0.20930  0.41115  Biso   1.000  Cl
  Cl3      1.0000 0.68770  0.29070  0.91115  Biso   1.000  Cl
  Cl4      1.0000 0.81230  0.79070  0.58885  Biso   1.000  Cl
  O9       1.0000 0.25980  0.62720  0.13220  Biso   1.000  O
  O10      1.0000 0.24020  0.12720  0.36780  Biso   1.000  O
  O11      1.0000 0.74020  0.37280  0.86780  Biso   1.000  O
  O12      1.0000 0.75980  0.87280  0.63220  Biso   1.000  O
  O13      1.0000 0.33970  0.59260  0.04690  Biso   1.000  O
  O14      1.0000 0.16030  0.09260  0.45310  Biso   1.000  O
  O15      1.0000 0.66030  0.40740  0.95310  Biso   1.000  O
  O16      1.0000 0.83970  0.90740  0.54690  Biso   1.000  O
  O17      1.0000 0.22160  0.82400  0.05970  Biso   1.000  O
  O18      1.0000 0.27840  0.32400  0.44030  Biso   1.000  O
  O19      1.0000 0.77840  0.17600  0.94030  Biso   1.000  O
  O20      1.0000 0.72160  0.67600  0.55970  Biso   1.000  O
  O21      1.0000 0.43360  0.78490  0.11390  Biso   1.000  O
  O22      1.0000 0.06640  0.28490  0.38610  Biso   1.000  O
  O23      1.0000 0.56640  0.21510  0.88610  Biso   1.000  O
  O24      1.0000 0.93360  0.71510  0.61390  Biso   1.000  O
  O25      1.0000 0.19190  0.67500  0.02960  Biso   1.000  O
  O26      1.0000 0.30810  0.17500  0.47040  Biso   1.000  O
  O27      1.0000 0.80810  0.32500  0.97040  Biso   1.000  O
  O28      1.0000 0.69190  0.82500  0.52960  Biso   1.000  O
  O29      1.0000 0.40420  0.59000  0.06820  Biso   1.000  O
  O30      1.0000 0.09580  0.09000  0.43180  Biso   1.000  O
  O31      1.0000 0.59580  0.41000  0.93180  Biso   1.000  O
  O32      1.0000 0.90420  0.91000  0.56820  Biso   1.000  O
  O33      1.0000 0.25400  0.60300  0.12870  Biso   1.000  O
  O34      1.0000 0.24600  0.10300  0.37130  Biso   1.000  O
  O35      1.0000 0.74600  0.39700  0.87130  Biso   1.000  O
  O36      1.0000 0.75400  0.89700  0.62870  Biso   1.000  O
  O37      1.0000 0.33020  0.83830  0.09260  Biso   1.000  O
  O38      1.0000 0.16980  0.33830  0.40740  Biso   1.000  O
  O39      1.0000 0.66980  0.16170  0.90740  Biso   1.000  O
  O40      1.0000 0.83020  0.66170  0.59260  Biso   1.000  O
  Cl5      1.0000 0.28880  0.67040  0.08040  Biso   1.000  Cl
  Cl6      1.0000 0.21120  0.17040  0.41960  Biso   1.000  Cl
  Cl7      1.0000 0.71120  0.32960  0.91960  Biso   1.000  Cl
  Cl8      1.0000 0.78880  0.82960  0.58040  Biso   1.000  Cl
  O41      1.0000 0.16030  0.15050  0.09960  Biso   1.000  O
  O42      1.0000 0.33970  0.65050  0.40040  Biso   1.000  O
  O43      1.0000 0.83970  0.84950  0.90040  Biso   1.000  O
  O44      1.0000 0.66030  0.34950  0.59960  Biso   1.000  O
  H73      1.0000 0.19040  0.08620  0.07810  Biso   1.000  H
  H74      1.0000 0.30960  0.58620  0.42190  Biso   1.000  H
  H75      1.0000 0.80960  0.91380  0.92190  Biso   1.000  H
  H76      1.0000 0.69040  0.41380  0.57810  Biso   1.000  H
  C65      1.0000 0.02600  0.19400  0.07190  Biso   1.000  C
  C66      1.0000 0.47400  0.69400  0.42810  Biso   1.000  C
  C67      1.0000 0.97400  0.80600  0.92810  Biso   1.000  C
  C68      1.0000 0.52600  0.30600  0.57190  Biso   1.000  C
  H77      1.0000 0.96640  0.16360  0.09720  Biso   1.000  H
  H78      1.0000 0.53360  0.66360  0.40280  Biso   1.000  H
  H79      1.0000 0.03360  0.83640  0.90280  Biso   1.000  H
  H80      1.0000 0.46640  0.33640  0.59720  Biso   1.000  H
  H81      1.0000 0.00060  0.13790  0.03460  Biso   1.000  H
  H82      1.0000 0.49940  0.63790  0.46540  Biso   1.000  H
  H83      1.0000 0.99940  0.86210  0.96540  Biso   1.000  H
  H84      1.0000 0.50060  0.36210  0.53460  Biso   1.000  H
  H85      1.0000 0.02110  0.31060  0.06530  Biso   1.000  H
  H86      1.0000 0.47890  0.81060  0.43470  Biso   1.000  H
  H87      1.0000 0.97890  0.68940  0.93470  Biso   1.000  H
  H88      1.0000 0.52110  0.18940  0.56530  Biso   1.000  H
  O45      1.0000 0.13740  0.07760  0.11920  Biso   1.000  O
  O46      1.0000 0.36260  0.57760  0.38080  Biso   1.000  O
  O47      1.0000 0.86260  0.92240  0.88080  Biso   1.000  O
  O48      1.0000 0.63740  0.42240  0.61920  Biso   1.000  O
  H89      1.0000 0.17250  0.00050  0.10510  Biso   1.000  H
  H90      1.0000 0.32750  0.50050  0.39490  Biso   1.000  H
  H91      1.0000 0.82750  0.99950  0.89490  Biso   1.000  H
  H92      1.0000 0.67250  0.49950  0.60510  Biso   1.000  H
  C69      1.0000 0.03700  0.15200  0.07340  Biso   1.000  C
  C70      1.0000 0.46300  0.65200  0.42660  Biso   1.000  C
  C71      1.0000 0.96300  0.84800  0.92660  Biso   1.000  C
  C72      1.0000 0.53700  0.34800  0.57340  Biso   1.000  C
  H93      1.0000 0.03880  0.26890  0.07860  Biso   1.000  H
  H94      1.0000 0.46120  0.76890  0.42140  Biso   1.000  H
  H95      1.0000 0.96120  0.73110  0.92140  Biso   1.000  H
  H96      1.0000 0.53880  0.23110  0.57860  Biso   1.000  H
  H97      1.0000 0.94950  0.11090  0.07580  Biso   1.000  H
  H98      1.0000 0.55050  0.61090  0.42420  Biso   1.000  H
  H99      1.0000 0.05050  0.88910  0.92420  Biso   1.000  H
  H100     1.0000 0.44950  0.38910  0.57580  Biso   1.000  H
  H101     1.0000 0.05480  0.12560  0.03520  Biso   1.000  H
  H102     1.0000 0.44520  0.62560  0.46480  Biso   1.000  H
  H103     1.0000 0.94520  0.87440  0.96480  Biso   1.000  H
  H104     1.0000 0.55480  0.37440  0.53520  Biso   1.000  H
