data_image0
_cell_length_a       13.0446
_cell_length_b       8.8181
_cell_length_c       19.3686
_cell_angle_alpha    90
_cell_angle_beta     90
_cell_angle_gamma    90

_symmetry_space_group_name_H-M    "P 1"
_symmetry_int_tables_number       1

loop_
  _symmetry_equiv_pos_as_xyz
  'x, y, z'

loop_
  _atom_site_label
  _atom_site_occupancy
  _atom_site_fract_x
  _atom_site_fract_y
  _atom_site_fract_z
  _atom_site_thermal_displace_type
  _atom_site_B_iso_or_equiv
  _atom_site_type_symbol
  Cu1      1.0000 0.69814  0.11449  0.37145  Biso   1.000  Cu
  Cu2      1.0000 0.30186  0.88551  0.87145  Biso   1.000  Cu
  Cu3      1.0000 0.80186  0.11449  0.87145  Biso   1.000  Cu
  Cu4      1.0000 0.19814  0.88551  0.37145  Biso   1.000  Cu
  O1       1.0000 0.36900  0.88980  0.96169  Biso   1.000  O
  O2       1.0000 0.63100  0.11020  0.46169  Biso   1.000  O
  O3       1.0000 0.13100  0.88980  0.46169  Biso   1.000  O
  O4       1.0000 0.86900  0.11020  0.96169  Biso   1.000  O
  O5       1.0000 0.48870  0.00500  0.90042  Biso   1.000  O
  O6       1.0000 0.51130  0.99500  0.40042  Biso   1.000  O
  O7       1.0000 0.01130  0.00500  0.40042  Biso   1.000  O
  O8       1.0000 0.98870  0.99500  0.90042  Biso   1.000  O
  O9       1.0000 0.85670  0.21020  0.39186  Biso   1.000  O
  O10      1.0000 0.14330  0.78980  0.89186  Biso   1.000  O
  O11      1.0000 0.64330  0.21020  0.89186  Biso   1.000  O
  O12      1.0000 0.35670  0.78980  0.39186  Biso   1.000  O
  N1       1.0000 0.64990  0.31740  0.34380  Biso   1.000  N
  N2       1.0000 0.35010  0.68260  0.84380  Biso   1.000  N
  N3       1.0000 0.85010  0.31740  0.84380  Biso   1.000  N
  N4       1.0000 0.14990  0.68260  0.34380  Biso   1.000  N
  N5       1.0000 0.75370  0.90500  0.37630  Biso   1.000  N
  N6       1.0000 0.24630  0.09500  0.87630  Biso   1.000  N
  N7       1.0000 0.74630  0.90500  0.87630  Biso   1.000  N
  N8       1.0000 0.25370  0.09500  0.37630  Biso   1.000  N
  N9       1.0000 0.72310  0.08680  0.26890  Biso   1.000  N
  N10      1.0000 0.27690  0.91320  0.76890  Biso   1.000  N
  N11      1.0000 0.77690  0.08680  0.76890  Biso   1.000  N
  N12      1.0000 0.22310  0.91320  0.26890  Biso   1.000  N
  C1       1.0000 0.74150  0.23980  0.24070  Biso   1.000  C
  C2       1.0000 0.25850  0.76020  0.74070  Biso   1.000  C
  C3       1.0000 0.75850  0.23980  0.74070  Biso   1.000  C
  C4       1.0000 0.24150  0.76020  0.24070  Biso   1.000  C
  H1       1.0000 0.72650  0.24090  0.19060  Biso   1.000  H
  H2       1.0000 0.27350  0.75910  0.69060  Biso   1.000  H
  H3       1.0000 0.77350  0.24090  0.69060  Biso   1.000  H
  H4       1.0000 0.22650  0.75910  0.19060  Biso   1.000  H
  H5       1.0000 0.81420  0.26840  0.24740  Biso   1.000  H
  H6       1.0000 0.18580  0.73160  0.74740  Biso   1.000  H
  H7       1.0000 0.68580  0.26840  0.74740  Biso   1.000  H
  H8       1.0000 0.31420  0.73160  0.24740  Biso   1.000  H
  C5       1.0000 0.67250  0.35160  0.27780  Biso   1.000  C
  C6       1.0000 0.32750  0.64840  0.77780  Biso   1.000  C
  C7       1.0000 0.82750  0.35160  0.77780  Biso   1.000  C
  C8       1.0000 0.17250  0.64840  0.27780  Biso   1.000  C
  C9       1.0000 0.63750  0.48290  0.24730  Biso   1.000  C
  C10      1.0000 0.36250  0.51710  0.74730  Biso   1.000  C
  C11      1.0000 0.86250  0.48290  0.74730  Biso   1.000  C
  C12      1.0000 0.13750  0.51710  0.24730  Biso   1.000  C
  H9       1.0000 0.65100  0.50520  0.20010  Biso   1.000  H
  H10      1.0000 0.34900  0.49480  0.70010  Biso   1.000  H
  H11      1.0000 0.84900  0.50520  0.70010  Biso   1.000  H
  H12      1.0000 0.15100  0.49480  0.20010  Biso   1.000  H
  C13      1.0000 0.58090  0.58220  0.28920  Biso   1.000  C
  C14      1.0000 0.41910  0.41780  0.78920  Biso   1.000  C
  C15      1.0000 0.91910  0.58220  0.78920  Biso   1.000  C
  C16      1.0000 0.08090  0.41780  0.28920  Biso   1.000  C
  H13      1.0000 0.55450  0.67300  0.26970  Biso   1.000  H
  H14      1.0000 0.44550  0.32700  0.76970  Biso   1.000  H
  H15      1.0000 0.94550  0.67300  0.76970  Biso   1.000  H
  H16      1.0000 0.05450  0.32700  0.26970  Biso   1.000  H
  C17      1.0000 0.56290  0.55220  0.35630  Biso   1.000  C
  C18      1.0000 0.43710  0.44780  0.85630  Biso   1.000  C
  C19      1.0000 0.93710  0.55220  0.85630  Biso   1.000  C
  C20      1.0000 0.06290  0.44780  0.35630  Biso   1.000  C
  H17      1.0000 0.52770  0.62340  0.38450  Biso   1.000  H
  H18      1.0000 0.47230  0.37660  0.88450  Biso   1.000  H
  H19      1.0000 0.97230  0.62340  0.88450  Biso   1.000  H
  H20      1.0000 0.02770  0.37660  0.38450  Biso   1.000  H
  C21      1.0000 0.59700  0.41390  0.38380  Biso   1.000  C
  C22      1.0000 0.40300  0.58610  0.88380  Biso   1.000  C
  C23      1.0000 0.90300  0.41390  0.88380  Biso   1.000  C
  C24      1.0000 0.09700  0.58610  0.38380  Biso   1.000  C
  H21      1.0000 0.58280  0.38880  0.43060  Biso   1.000  H
  H22      1.0000 0.41720  0.61120  0.93060  Biso   1.000  H
  H23      1.0000 0.91720  0.38880  0.93060  Biso   1.000  H
  H24      1.0000 0.08280  0.61120  0.43060  Biso   1.000  H
  C25      1.0000 0.81270  0.98150  0.26500  Biso   1.000  C
  C26      1.0000 0.18730  0.01850  0.76500  Biso   1.000  C
  C27      1.0000 0.68730  0.98150  0.76500  Biso   1.000  C
  C28      1.0000 0.31270  0.01850  0.26500  Biso   1.000  C
  H25      1.0000 0.87720  0.03880  0.27200  Biso   1.000  H
  H26      1.0000 0.12280  0.96120  0.77200  Biso   1.000  H
  H27      1.0000 0.62280  0.03880  0.77200  Biso   1.000  H
  H28      1.0000 0.37720  0.96120  0.27200  Biso   1.000  H
  H29      1.0000 0.81540  0.93350  0.21880  Biso   1.000  H
  H30      1.0000 0.18460  0.06650  0.71880  Biso   1.000  H
  H31      1.0000 0.68460  0.93350  0.71880  Biso   1.000  H
  H32      1.0000 0.31540  0.06650  0.21880  Biso   1.000  H
  C29      1.0000 0.80210  0.86110  0.31990  Biso   1.000  C
  C30      1.0000 0.19790  0.13890  0.81990  Biso   1.000  C
  C31      1.0000 0.69790  0.86110  0.81990  Biso   1.000  C
  C32      1.0000 0.30210  0.13890  0.31990  Biso   1.000  C
  C33      1.0000 0.84290  0.71470  0.31330  Biso   1.000  C
  C34      1.0000 0.15710  0.28530  0.81330  Biso   1.000  C
  C35      1.0000 0.65710  0.71470  0.81330  Biso   1.000  C
  C36      1.0000 0.34290  0.28530  0.31330  Biso   1.000  C
  H33      1.0000 0.87680  0.68440  0.27220  Biso   1.000  H
  H34      1.0000 0.12320  0.31560  0.77220  Biso   1.000  H
  H35      1.0000 0.62320  0.68440  0.77220  Biso   1.000  H
  H36      1.0000 0.37680  0.31560  0.27220  Biso   1.000  H
  C37      1.0000 0.83290  0.61770  0.36700  Biso   1.000  C
  C38      1.0000 0.16710  0.38230  0.86700  Biso   1.000  C
  C39      1.0000 0.66710  0.61770  0.86700  Biso   1.000  C
  C40      1.0000 0.33290  0.38230  0.36700  Biso   1.000  C
  H37      1.0000 0.85980  0.51800  0.36320  Biso   1.000  H
  H38      1.0000 0.14020  0.48200  0.86320  Biso   1.000  H
  H39      1.0000 0.64020  0.51800  0.86320  Biso   1.000  H
  H40      1.0000 0.35980  0.48200  0.36320  Biso   1.000  H
  C41      1.0000 0.78380  0.66170  0.42760  Biso   1.000  C
  C42      1.0000 0.21620  0.33830  0.92760  Biso   1.000  C
  C43      1.0000 0.71620  0.66170  0.92760  Biso   1.000  C
  C44      1.0000 0.28380  0.33830  0.42760  Biso   1.000  C
  H41      1.0000 0.77680  0.59420  0.46560  Biso   1.000  H
  H42      1.0000 0.22320  0.40580  0.96560  Biso   1.000  H
  H43      1.0000 0.72320  0.59420  0.96560  Biso   1.000  H
  H44      1.0000 0.27680  0.40580  0.46560  Biso   1.000  H
  C45      1.0000 0.74550  0.80880  0.43010  Biso   1.000  C
  C46      1.0000 0.25450  0.19120  0.93010  Biso   1.000  C
  C47      1.0000 0.75450  0.80880  0.93010  Biso   1.000  C
  C48      1.0000 0.24550  0.19120  0.43010  Biso   1.000  C
  H45      1.0000 0.71250  0.84260  0.47100  Biso   1.000  H
  H46      1.0000 0.28750  0.15740  0.97100  Biso   1.000  H
  H47      1.0000 0.78750  0.84260  0.97100  Biso   1.000  H
  H48      1.0000 0.21250  0.15740  0.47100  Biso   1.000  H
  C49      1.0000 0.62790  0.01630  0.23930  Biso   1.000  C
  C50      1.0000 0.37210  0.98370  0.73930  Biso   1.000  C
  C51      1.0000 0.87210  0.01630  0.73930  Biso   1.000  C
  C52      1.0000 0.12790  0.98370  0.23930  Biso   1.000  C
  H49      1.0000 0.56950  0.08480  0.24880  Biso   1.000  H
  H50      1.0000 0.43050  0.91520  0.74880  Biso   1.000  H
  H51      1.0000 0.93050  0.08480  0.74880  Biso   1.000  H
  H52      1.0000 0.06950  0.91520  0.24880  Biso   1.000  H
  H53      1.0000 0.61470  0.92010  0.26420  Biso   1.000  H
  H54      1.0000 0.38530  0.07990  0.76420  Biso   1.000  H
  H55      1.0000 0.88530  0.92010  0.76420  Biso   1.000  H
  H56      1.0000 0.11470  0.07990  0.26420  Biso   1.000  H
  C53      1.0000 0.62980  0.98270  0.16190  Biso   1.000  C
  C54      1.0000 0.37020  0.01730  0.66190  Biso   1.000  C
  C55      1.0000 0.87020  0.98270  0.66190  Biso   1.000  C
  C56      1.0000 0.12980  0.01730  0.16190  Biso   1.000  C
  H57      1.0000 0.62500  0.07900  0.13580  Biso   1.000  H
  H58      1.0000 0.37500  0.92100  0.63580  Biso   1.000  H
  H59      1.0000 0.87500  0.07900  0.63580  Biso   1.000  H
  H60      1.0000 0.12500  0.92100  0.13580  Biso   1.000  H
  H61      1.0000 0.69560  0.93350  0.14970  Biso   1.000  H
  H62      1.0000 0.30440  0.06650  0.64970  Biso   1.000  H
  H63      1.0000 0.80440  0.93350  0.64970  Biso   1.000  H
  H64      1.0000 0.19560  0.06650  0.14970  Biso   1.000  H
  C57      1.0000 0.54340  0.88180  0.14200  Biso   1.000  C
  C58      1.0000 0.45660  0.11820  0.64200  Biso   1.000  C
  C59      1.0000 0.95660  0.88180  0.64200  Biso   1.000  C
  C60      1.0000 0.04340  0.11820  0.14200  Biso   1.000  C
  H65      1.0000 0.47870  0.92800  0.15840  Biso   1.000  H
  H66      1.0000 0.52130  0.07200  0.65840  Biso   1.000  H
  H67      1.0000 0.02130  0.92800  0.65840  Biso   1.000  H
  H68      1.0000 0.97870  0.07200  0.15840  Biso   1.000  H
  H69      1.0000 0.55170  0.78370  0.16620  Biso   1.000  H
  H70      1.0000 0.44830  0.21630  0.66620  Biso   1.000  H
  H71      1.0000 0.94830  0.78370  0.66620  Biso   1.000  H
  H72      1.0000 0.05170  0.21630  0.16620  Biso   1.000  H
  C61      1.0000 0.53370  0.85080  0.06480  Biso   1.000  C
  C62      1.0000 0.46630  0.14920  0.56480  Biso   1.000  C
  C63      1.0000 0.96630  0.85080  0.56480  Biso   1.000  C
  C64      1.0000 0.03370  0.14920  0.06480  Biso   1.000  C
  H73      1.0000 0.59840  0.80500  0.04800  Biso   1.000  H
  H74      1.0000 0.40160  0.19500  0.54800  Biso   1.000  H
  H75      1.0000 0.90160  0.80500  0.54800  Biso   1.000  H
  H76      1.0000 0.09840  0.19500  0.04800  Biso   1.000  H
  H77      1.0000 0.47820  0.77590  0.05730  Biso   1.000  H
  H78      1.0000 0.52180  0.22410  0.55730  Biso   1.000  H
  H79      1.0000 0.02180  0.77590  0.55730  Biso   1.000  H
  H80      1.0000 0.97820  0.22410  0.05730  Biso   1.000  H
  C65      1.0000 0.51140  0.98800  0.02320  Biso   1.000  C
  C66      1.0000 0.48860  0.01200  0.52320  Biso   1.000  C
  C67      1.0000 0.98860  0.98800  0.52320  Biso   1.000  C
  C68      1.0000 0.01140  0.01200  0.02320  Biso   1.000  C
  H81      1.0000 0.57710  0.03930  0.01240  Biso   1.000  H
  H82      1.0000 0.42290  0.96070  0.51240  Biso   1.000  H
  H83      1.0000 0.92290  0.03930  0.51240  Biso   1.000  H
  H84      1.0000 0.07710  0.96070  0.01240  Biso   1.000  H
  H85      1.0000 0.47010  0.05850  0.05160  Biso   1.000  H
  H86      1.0000 0.52990  0.94150  0.55160  Biso   1.000  H
  H87      1.0000 0.02990  0.05850  0.55160  Biso   1.000  H
  H88      1.0000 0.97010  0.94150  0.05160  Biso   1.000  H
  C69      1.0000 0.45520  0.95900  0.95650  Biso   1.000  C
  C70      1.0000 0.54480  0.04100  0.45650  Biso   1.000  C
  C71      1.0000 0.04480  0.95900  0.45650  Biso   1.000  C
  C72      1.0000 0.95520  0.04100  0.95650  Biso   1.000  C
  H89      1.0000 0.85700  0.25900  0.42920  Biso   1.000  H
  H90      1.0000 0.14300  0.74100  0.92920  Biso   1.000  H
  H91      1.0000 0.64300  0.25900  0.92920  Biso   1.000  H
  H92      1.0000 0.35700  0.74100  0.42920  Biso   1.000  H
  H93      1.0000 0.90800  0.15200  0.39400  Biso   1.000  H
  H94      1.0000 0.09200  0.84800  0.89400  Biso   1.000  H
  H95      1.0000 0.59200  0.15200  0.89400  Biso   1.000  H
  H96      1.0000 0.40800  0.84800  0.39400  Biso   1.000  H
  Cl1      1.0000 0.39072  0.38734  0.11496  Biso   1.000  Cl
  Cl2      1.0000 0.60928  0.61266  0.61496  Biso   1.000  Cl
  Cl3      1.0000 0.10928  0.38734  0.61496  Biso   1.000  Cl
  Cl4      1.0000 0.89072  0.61266  0.11496  Biso   1.000  Cl
  O13      1.0000 0.47360  0.30070  0.14840  Biso   1.000  O
  O14      1.0000 0.52640  0.69930  0.64840  Biso   1.000  O
  O15      1.0000 0.02640  0.30070  0.64840  Biso   1.000  O
  O16      1.0000 0.97360  0.69930  0.14840  Biso   1.000  O
  O17      1.0000 0.30360  0.29370  0.11820  Biso   1.000  O
  O18      1.0000 0.69640  0.70630  0.61820  Biso   1.000  O
  O19      1.0000 0.19640  0.29370  0.61820  Biso   1.000  O
  O20      1.0000 0.80360  0.70630  0.11820  Biso   1.000  O
  O21      1.0000 0.38370  0.52260  0.15280  Biso   1.000  O
  O22      1.0000 0.61630  0.47740  0.65280  Biso   1.000  O
  O23      1.0000 0.11630  0.52260  0.65280  Biso   1.000  O
  O24      1.0000 0.88370  0.47740  0.15280  Biso   1.000  O
  O25      1.0000 0.41480  0.41420  0.04450  Biso   1.000  O
  O26      1.0000 0.58520  0.58580  0.54450  Biso   1.000  O
  O27      1.0000 0.08520  0.41420  0.54450  Biso   1.000  O
  O28      1.0000 0.91480  0.58580  0.04450  Biso   1.000  O
  O29      1.0000 0.62570  0.37480  0.00780  Biso   1.000  O
  O30      1.0000 0.37430  0.62520  0.50780  Biso   1.000  O
  O31      1.0000 0.87430  0.37480  0.50780  Biso   1.000  O
  O32      1.0000 0.12570  0.62520  0.00780  Biso   1.000  O
  O33      1.0000 0.77810  0.25220  0.07450  Biso   1.000  O
  O34      1.0000 0.22190  0.74780  0.57450  Biso   1.000  O
  O35      1.0000 0.72190  0.25220  0.57450  Biso   1.000  O
  O36      1.0000 0.27810  0.74780  0.07450  Biso   1.000  O
