data_image0
_cell_length_a       7.5526
_cell_length_b       9.0298
_cell_length_c       11.106
_cell_angle_alpha    102.006
_cell_angle_beta     108.74
_cell_angle_gamma    102.895

_symmetry_space_group_name_H-M    "P 1"
_symmetry_int_tables_number       1

loop_
  _symmetry_equiv_pos_as_xyz
  'x, y, z'

loop_
  _atom_site_label
  _atom_site_occupancy
  _atom_site_fract_x
  _atom_site_fract_y
  _atom_site_fract_z
  _atom_site_thermal_displace_type
  _atom_site_B_iso_or_equiv
  _atom_site_type_symbol
  Cu1      1.0000 0.00000  0.00000  0.00000  Biso   1.000  Cu
  Cl1      1.0000 0.14841  0.10152  0.87520  Biso   1.000  Cl
  Cl2      1.0000 0.85159  0.89848  0.12480  Biso   1.000  Cl
  S1       1.0000 0.32009  0.32059  0.18854  Biso   1.000  S
  S2       1.0000 0.67991  0.67941  0.81146  Biso   1.000  S
  N1       1.0000 0.06300  0.79700  0.94830  Biso   1.000  N
  N2       1.0000 0.93700  0.20300  0.05170  Biso   1.000  N
  C1       1.0000 0.75220  0.20750  0.00140  Biso   1.000  C
  C2       1.0000 0.24780  0.79250  0.99860  Biso   1.000  C
  H1       1.0000 0.65320  0.11420  0.94390  Biso   1.000  H
  H2       1.0000 0.34680  0.88580  0.05610  Biso   1.000  H
  C3       1.0000 0.70310  0.34440  0.03130  Biso   1.000  C
  C4       1.0000 0.29690  0.65560  0.96870  Biso   1.000  C
  H3       1.0000 0.57360  0.34380  0.99390  Biso   1.000  H
  H4       1.0000 0.42640  0.65620  0.00610  Biso   1.000  H
  C5       1.0000 0.84870  0.48210  0.11740  Biso   1.000  C
  C6       1.0000 0.15130  0.51790  0.88260  Biso   1.000  C
  H5       1.0000 0.81880  0.57590  0.14020  Biso   1.000  H
  H6       1.0000 0.18120  0.42410  0.85980  Biso   1.000  H
  C7       1.0000 0.03920  0.47940  0.16940  Biso   1.000  C
  C8       1.0000 0.96080  0.52060  0.83060  Biso   1.000  C
  H7       1.0000 0.14010  0.57150  0.22720  Biso   1.000  H
  H8       1.0000 0.85990  0.42850  0.77280  Biso   1.000  H
  C9       1.0000 0.07840  0.33710  0.13430  Biso   1.000  C
  C10      1.0000 0.92160  0.66290  0.86570  Biso   1.000  C
  C11      1.0000 0.41110  0.42430  0.36080  Biso   1.000  C
  C12      1.0000 0.58890  0.57570  0.63920  Biso   1.000  C
  C13      1.0000 0.55510  0.57230  0.41520  Biso   1.000  C
  C14      1.0000 0.44490  0.42770  0.58480  Biso   1.000  C
  F1       1.0000 0.38780  0.35440  0.66550  Biso   1.000  F
  F2       1.0000 0.61220  0.64560  0.33450  Biso   1.000  F
  C15      1.0000 0.35870  0.35360  0.44930  Biso   1.000  C
  C16      1.0000 0.64130  0.64640  0.55070  Biso   1.000  C
  F3       1.0000 0.22280  0.21010  0.40300  Biso   1.000  F
  F4       1.0000 0.77720  0.78990  0.59700  Biso   1.000  F
  C17      1.0000 0.78920  0.12460  0.40490  Biso   1.000  C
  C18      1.0000 0.21080  0.87540  0.59510  Biso   1.000  C
  H9       1.0000 0.84730  0.05900  0.35710  Biso   1.000  H
  H10      1.0000 0.15270  0.94100  0.64290  Biso   1.000  H
  Cl3      1.0000 0.90184  0.15054  0.57518  Biso   1.000  Cl
  Cl4      1.0000 0.09816  0.84946  0.42482  Biso   1.000  Cl
  Cl5      1.0000 0.82800  0.30830  0.37180  Biso   1.000  Cl
  Cl6      1.0000 0.17200  0.69170  0.62820  Biso   1.000  Cl
  Cl7      1.0000 0.53720  0.02580  0.34713  Biso   1.000  Cl
  Cl8      1.0000 0.46280  0.97420  0.65287  Biso   1.000  Cl
