data_image0
_cell_length_a       20.476
_cell_length_b       9.4935
_cell_length_c       15.026
_cell_angle_alpha    90
_cell_angle_beta     107.734
_cell_angle_gamma    90

_symmetry_space_group_name_H-M    "P 1"
_symmetry_int_tables_number       1

loop_
  _symmetry_equiv_pos_as_xyz
  'x, y, z'

loop_
  _atom_site_label
  _atom_site_occupancy
  _atom_site_fract_x
  _atom_site_fract_y
  _atom_site_fract_z
  _atom_site_thermal_displace_type
  _atom_site_B_iso_or_equiv
  _atom_site_type_symbol
  Cu1      1.0000 0.25179  0.32533  0.98690  Biso   1.000  Cu
  Cu2      1.0000 0.25179  0.17467  0.48690  Biso   1.000  Cu
  Cu3      1.0000 0.74821  0.67467  0.01310  Biso   1.000  Cu
  Cu4      1.0000 0.74821  0.82533  0.51310  Biso   1.000  Cu
  Br1      1.0000 0.17640  0.46022  0.05449  Biso   1.000  Br
  Br2      1.0000 0.17640  0.03978  0.55449  Biso   1.000  Br
  Br3      1.0000 0.82360  0.53978  0.94551  Biso   1.000  Br
  Br4      1.0000 0.82360  0.96022  0.44551  Biso   1.000  Br
  Br5      1.0000 0.32482  0.14384  0.94782  Biso   1.000  Br
  Br6      1.0000 0.32482  0.35616  0.44782  Biso   1.000  Br
  Br7      1.0000 0.67518  0.85616  0.05218  Biso   1.000  Br
  Br8      1.0000 0.67518  0.64384  0.55218  Biso   1.000  Br
  S1       1.0000 0.99107  0.99060  0.70694  Biso   1.000  S
  S2       1.0000 0.99107  0.50940  0.20694  Biso   1.000  S
  S3       1.0000 0.00893  0.00940  0.29306  Biso   1.000  S
  S4       1.0000 0.00893  0.49060  0.79306  Biso   1.000  S
  S5       1.0000 0.51290  0.60230  0.30510  Biso   1.000  S
  S6       1.0000 0.51290  0.89770  0.80510  Biso   1.000  S
  S7       1.0000 0.48710  0.39770  0.69490  Biso   1.000  S
  S8       1.0000 0.48710  0.10230  0.19490  Biso   1.000  S
  N1       1.0000 0.16990  0.23500  0.89780  Biso   1.000  N
  N2       1.0000 0.16990  0.26500  0.39780  Biso   1.000  N
  N3       1.0000 0.83010  0.76500  0.10220  Biso   1.000  N
  N4       1.0000 0.83010  0.73500  0.60220  Biso   1.000  N
  C1       1.0000 0.12540  0.16090  0.92890  Biso   1.000  C
  C2       1.0000 0.12540  0.33910  0.42890  Biso   1.000  C
  C3       1.0000 0.87460  0.83910  0.07110  Biso   1.000  C
  C4       1.0000 0.87460  0.66090  0.57110  Biso   1.000  C
  H1       1.0000 0.13160  0.15910  0.99350  Biso   1.000  H
  H2       1.0000 0.13160  0.34090  0.49350  Biso   1.000  H
  H3       1.0000 0.86840  0.84090  0.00650  Biso   1.000  H
  H4       1.0000 0.86840  0.65910  0.50650  Biso   1.000  H
  C5       1.0000 0.07140  0.08790  0.87090  Biso   1.000  C
  C6       1.0000 0.07140  0.41210  0.37090  Biso   1.000  C
  C7       1.0000 0.92860  0.91210  0.12910  Biso   1.000  C
  C8       1.0000 0.92860  0.58790  0.62910  Biso   1.000  C
  H5       1.0000 0.04130  0.03750  0.89550  Biso   1.000  H
  H6       1.0000 0.04130  0.46250  0.39550  Biso   1.000  H
  H7       1.0000 0.95870  0.96250  0.10450  Biso   1.000  H
  H8       1.0000 0.95870  0.53750  0.60450  Biso   1.000  H
  C9       1.0000 0.06150  0.08920  0.77500  Biso   1.000  C
  C10      1.0000 0.06150  0.41080  0.27500  Biso   1.000  C
  C11      1.0000 0.93850  0.91080  0.22500  Biso   1.000  C
  C12      1.0000 0.93850  0.58920  0.72500  Biso   1.000  C
  C13      1.0000 0.10680  0.16630  0.74240  Biso   1.000  C
  C14      1.0000 0.10680  0.33370  0.24240  Biso   1.000  C
  C15      1.0000 0.89320  0.83370  0.25760  Biso   1.000  C
  C16      1.0000 0.89320  0.66630  0.75760  Biso   1.000  C
  H9       1.0000 0.10140  0.17090  0.67810  Biso   1.000  H
  H10      1.0000 0.10140  0.32910  0.17810  Biso   1.000  H
  H11      1.0000 0.89860  0.82910  0.32190  Biso   1.000  H
  H12      1.0000 0.89860  0.67090  0.82190  Biso   1.000  H
  C17      1.0000 0.16010  0.23650  0.80620  Biso   1.000  C
  C18      1.0000 0.16010  0.26350  0.30620  Biso   1.000  C
  C19      1.0000 0.83990  0.76350  0.19380  Biso   1.000  C
  C20      1.0000 0.83990  0.73650  0.69380  Biso   1.000  C
  H13      1.0000 0.19100  0.28780  0.78350  Biso   1.000  H
  H14      1.0000 0.19100  0.21220  0.28350  Biso   1.000  H
  H15      1.0000 0.80900  0.71220  0.21650  Biso   1.000  H
  H16      1.0000 0.80900  0.78780  0.71650  Biso   1.000  H
  C21      1.0000 0.99970  0.99920  0.59330  Biso   1.000  C
  C22      1.0000 0.99970  0.50080  0.09330  Biso   1.000  C
  C23      1.0000 0.00030  0.00080  0.40670  Biso   1.000  C
  C24      1.0000 0.00030  0.49920  0.90670  Biso   1.000  C
  C25      1.0000 0.02170  0.88500  0.55500  Biso   1.000  C
  C26      1.0000 0.02170  0.61500  0.05500  Biso   1.000  C
  C27      1.0000 0.97830  0.11500  0.44500  Biso   1.000  C
  C28      1.0000 0.97830  0.38500  0.94500  Biso   1.000  C
  F1       1.0000 0.04490  0.76880  0.60630  Biso   1.000  F
  F2       1.0000 0.04490  0.73120  0.10630  Biso   1.000  F
  F3       1.0000 0.95510  0.23120  0.39370  Biso   1.000  F
  F4       1.0000 0.95510  0.26880  0.89370  Biso   1.000  F
  C29      1.0000 0.97720  0.11620  0.53660  Biso   1.000  C
  C30      1.0000 0.97720  0.38380  0.03660  Biso   1.000  C
  C31      1.0000 0.02280  0.88380  0.46340  Biso   1.000  C
  C32      1.0000 0.02280  0.61620  0.96340  Biso   1.000  C
  F5       1.0000 0.95480  0.23030  0.56990  Biso   1.000  F
  F6       1.0000 0.95480  0.26970  0.06990  Biso   1.000  F
  F7       1.0000 0.04520  0.76970  0.43010  Biso   1.000  F
  F8       1.0000 0.04520  0.73030  0.93010  Biso   1.000  F
  N5       1.0000 0.33360  0.39670  0.08730  Biso   1.000  N
  N6       1.0000 0.33360  0.10330  0.58730  Biso   1.000  N
  N7       1.0000 0.66640  0.60330  0.91270  Biso   1.000  N
  N8       1.0000 0.66640  0.89670  0.41270  Biso   1.000  N
  C33      1.0000 0.38820  0.44950  0.06660  Biso   1.000  C
  C34      1.0000 0.38820  0.05050  0.56660  Biso   1.000  C
  C35      1.0000 0.61180  0.55050  0.93340  Biso   1.000  C
  C36      1.0000 0.61180  0.94950  0.43340  Biso   1.000  C
  H17      1.0000 0.38860  0.44610  0.00430  Biso   1.000  H
  H18      1.0000 0.38860  0.05390  0.50430  Biso   1.000  H
  H19      1.0000 0.61140  0.55390  0.99570  Biso   1.000  H
  H20      1.0000 0.61140  0.94610  0.49570  Biso   1.000  H
  C37      1.0000 0.44310  0.50770  0.13210  Biso   1.000  C
  C38      1.0000 0.44310  0.99230  0.63210  Biso   1.000  C
  C39      1.0000 0.55690  0.49230  0.86790  Biso   1.000  C
  C40      1.0000 0.55690  0.00770  0.36790  Biso   1.000  C
  H21      1.0000 0.48020  0.54380  0.11470  Biso   1.000  H
  H22      1.0000 0.48020  0.95620  0.61470  Biso   1.000  H
  H23      1.0000 0.51980  0.45620  0.88530  Biso   1.000  H
  H24      1.0000 0.51980  0.04380  0.38530  Biso   1.000  H
  C41      1.0000 0.44360  0.51310  0.22440  Biso   1.000  C
  C42      1.0000 0.44360  0.98690  0.72440  Biso   1.000  C
  C43      1.0000 0.55640  0.48690  0.77560  Biso   1.000  C
  C44      1.0000 0.55640  0.01310  0.27560  Biso   1.000  C
  C45      1.0000 0.38940  0.45440  0.24790  Biso   1.000  C
  C46      1.0000 0.38940  0.04560  0.74790  Biso   1.000  C
  C47      1.0000 0.61060  0.54560  0.75210  Biso   1.000  C
  C48      1.0000 0.61060  0.95440  0.25210  Biso   1.000  C
  H25      1.0000 0.38900  0.45360  0.31030  Biso   1.000  H
  H26      1.0000 0.38900  0.04640  0.81030  Biso   1.000  H
  H27      1.0000 0.61100  0.54640  0.68970  Biso   1.000  H
  H28      1.0000 0.61100  0.95360  0.18970  Biso   1.000  H
  C49      1.0000 0.33600  0.39690  0.17800  Biso   1.000  C
  C50      1.0000 0.33600  0.10310  0.67800  Biso   1.000  C
  C51      1.0000 0.66400  0.60310  0.82200  Biso   1.000  C
  C52      1.0000 0.66400  0.89690  0.32200  Biso   1.000  C
  H29      1.0000 0.29950  0.35580  0.19430  Biso   1.000  H
  H30      1.0000 0.29950  0.14420  0.69430  Biso   1.000  H
  H31      1.0000 0.70050  0.64420  0.80570  Biso   1.000  H
  H32      1.0000 0.70050  0.85580  0.30570  Biso   1.000  H
  C53      1.0000 0.50430  0.54550  0.41240  Biso   1.000  C
  C54      1.0000 0.50430  0.95450  0.91240  Biso   1.000  C
  C55      1.0000 0.49570  0.45450  0.58760  Biso   1.000  C
  C56      1.0000 0.49570  0.04550  0.08760  Biso   1.000  C
  C57      1.0000 0.48830  0.63720  0.47320  Biso   1.000  C
  C58      1.0000 0.48830  0.86280  0.97320  Biso   1.000  C
  C59      1.0000 0.51170  0.36280  0.52680  Biso   1.000  C
  C60      1.0000 0.51170  0.13720  0.02680  Biso   1.000  C
  F9       1.0000 0.47700  0.77390  0.45130  Biso   1.000  F
  F10      1.0000 0.47700  0.72610  0.95130  Biso   1.000  F
  F11      1.0000 0.52300  0.22610  0.54870  Biso   1.000  F
  F12      1.0000 0.52300  0.27390  0.04870  Biso   1.000  F
  C61      1.0000 0.51610  0.40590  0.44120  Biso   1.000  C
  C62      1.0000 0.51610  0.09410  0.94120  Biso   1.000  C
  C63      1.0000 0.48390  0.59410  0.55880  Biso   1.000  C
  C64      1.0000 0.48390  0.90590  0.05880  Biso   1.000  C
  F13      1.0000 0.53100  0.31260  0.38410  Biso   1.000  F
  F14      1.0000 0.53100  0.18740  0.88410  Biso   1.000  F
  F15      1.0000 0.46900  0.68740  0.61590  Biso   1.000  F
  F16      1.0000 0.46900  0.81260  0.11590  Biso   1.000  F
  O1       1.0000 0.26510  0.49510  0.88950  Biso   1.000  O
  O2       1.0000 0.26510  0.00490  0.38950  Biso   1.000  O
  O3       1.0000 0.73490  0.50490  0.11050  Biso   1.000  O
  O4       1.0000 0.73490  0.99510  0.61050  Biso   1.000  O
  C65      1.0000 0.22290  0.58900  0.86120  Biso   1.000  C
  C66      1.0000 0.22290  0.91100  0.36120  Biso   1.000  C
  C67      1.0000 0.77710  0.41100  0.13880  Biso   1.000  C
  C68      1.0000 0.77710  0.08900  0.63880  Biso   1.000  C
  H33      1.0000 0.17680  0.56900  0.85530  Biso   1.000  H
  H34      1.0000 0.17680  0.93100  0.35530  Biso   1.000  H
  H35      1.0000 0.82320  0.43100  0.14470  Biso   1.000  H
  H36      1.0000 0.82320  0.06900  0.64470  Biso   1.000  H
  N9       1.0000 0.23790  0.71700  0.83830  Biso   1.000  N
  N10      1.0000 0.23790  0.78300  0.33830  Biso   1.000  N
  N11      1.0000 0.76210  0.28300  0.16170  Biso   1.000  N
  N12      1.0000 0.76210  0.21700  0.66170  Biso   1.000  N
  C69      1.0000 0.18410  0.82530  0.80450  Biso   1.000  C
  C70      1.0000 0.18410  0.67470  0.30450  Biso   1.000  C
  C71      1.0000 0.81590  0.17470  0.19550  Biso   1.000  C
  C72      1.0000 0.81590  0.32530  0.69550  Biso   1.000  C
  H37      1.0000 0.17880  0.84710  0.73970  Biso   1.000  H
  H38      1.0000 0.17880  0.65290  0.23970  Biso   1.000  H
  H39      1.0000 0.82120  0.15290  0.26030  Biso   1.000  H
  H40      1.0000 0.82120  0.34710  0.76030  Biso   1.000  H
  H41      1.0000 0.19730  0.90970  0.84210  Biso   1.000  H
  H42      1.0000 0.19730  0.59030  0.34210  Biso   1.000  H
  H43      1.0000 0.80270  0.09030  0.15790  Biso   1.000  H
  H44      1.0000 0.80270  0.40970  0.65790  Biso   1.000  H
  H45      1.0000 0.14100  0.79030  0.81000  Biso   1.000  H
  H46      1.0000 0.14100  0.70970  0.31000  Biso   1.000  H
  H47      1.0000 0.85900  0.20970  0.19000  Biso   1.000  H
  H48      1.0000 0.85900  0.29030  0.69000  Biso   1.000  H
  C73      1.0000 0.30810  0.75630  0.84780  Biso   1.000  C
  C74      1.0000 0.30810  0.74370  0.34780  Biso   1.000  C
  C75      1.0000 0.69190  0.24370  0.15220  Biso   1.000  C
  C76      1.0000 0.69190  0.25630  0.65220  Biso   1.000  C
  H49      1.0000 0.32180  0.83230  0.89290  Biso   1.000  H
  H50      1.0000 0.32180  0.66770  0.39290  Biso   1.000  H
  H51      1.0000 0.67820  0.16770  0.10710  Biso   1.000  H
  H52      1.0000 0.67820  0.33230  0.60710  Biso   1.000  H
  H53      1.0000 0.31100  0.78780  0.78770  Biso   1.000  H
  H54      1.0000 0.31100  0.71220  0.28770  Biso   1.000  H
  H55      1.0000 0.68900  0.21220  0.21230  Biso   1.000  H
  H56      1.0000 0.68900  0.28780  0.71230  Biso   1.000  H
  H57      1.0000 0.33830  0.67630  0.86900  Biso   1.000  H
  H58      1.0000 0.33830  0.82370  0.36900  Biso   1.000  H
  H59      1.0000 0.66170  0.32370  0.13100  Biso   1.000  H
  H60      1.0000 0.66170  0.17630  0.63100  Biso   1.000  H
  O5       1.0000 0.15100  0.00140  0.14560  Biso   1.000  O
  O6       1.0000 0.15100  0.49860  0.64560  Biso   1.000  O
  O7       1.0000 0.84900  0.99860  0.85440  Biso   1.000  O
  O8       1.0000 0.84900  0.50140  0.35440  Biso   1.000  O
  C77      1.0000 0.18280  0.91690  0.11740  Biso   1.000  C
  C78      1.0000 0.18280  0.58310  0.61740  Biso   1.000  C
  C79      1.0000 0.81720  0.08310  0.88260  Biso   1.000  C
  C80      1.0000 0.81720  0.41690  0.38260  Biso   1.000  C
  H61      1.0000 0.15860  0.84040  0.08310  Biso   1.000  H
  H62      1.0000 0.15860  0.65960  0.58310  Biso   1.000  H
  H63      1.0000 0.84140  0.15960  0.91690  Biso   1.000  H
  H64      1.0000 0.84140  0.34040  0.41690  Biso   1.000  H
  N13      1.0000 0.25040  0.92230  0.13060  Biso   1.000  N
  N14      1.0000 0.25040  0.57770  0.63060  Biso   1.000  N
  N15      1.0000 0.74960  0.07770  0.86940  Biso   1.000  N
  N16      1.0000 0.74960  0.42230  0.36940  Biso   1.000  N
  C81      1.0000 0.28200  0.81380  0.08650  Biso   1.000  C
  C82      1.0000 0.28200  0.68620  0.58650  Biso   1.000  C
  C83      1.0000 0.71800  0.18620  0.91350  Biso   1.000  C
  C84      1.0000 0.71800  0.31380  0.41350  Biso   1.000  C
  H65      1.0000 0.31780  0.76780  0.13550  Biso   1.000  H
  H66      1.0000 0.31780  0.73220  0.63550  Biso   1.000  H
  H67      1.0000 0.68220  0.23220  0.86450  Biso   1.000  H
  H68      1.0000 0.68220  0.26780  0.36450  Biso   1.000  H
  H69      1.0000 0.30210  0.85930  0.04320  Biso   1.000  H
  H70      1.0000 0.30210  0.64070  0.54320  Biso   1.000  H
  H71      1.0000 0.69790  0.14070  0.95680  Biso   1.000  H
  H72      1.0000 0.69790  0.35930  0.45680  Biso   1.000  H
  H73      1.0000 0.24870  0.74420  0.05330  Biso   1.000  H
  H74      1.0000 0.24870  0.75580  0.55330  Biso   1.000  H
  H75      1.0000 0.75130  0.25580  0.94670  Biso   1.000  H
  H76      1.0000 0.75130  0.24420  0.44670  Biso   1.000  H
  C85      1.0000 0.29360  0.04000  0.17720  Biso   1.000  C
  C86      1.0000 0.29360  0.46000  0.67720  Biso   1.000  C
  C87      1.0000 0.70640  0.96000  0.82280  Biso   1.000  C
  C88      1.0000 0.70640  0.54000  0.32280  Biso   1.000  C
  H77      1.0000 0.27710  0.07230  0.22780  Biso   1.000  H
  H78      1.0000 0.27710  0.42770  0.72780  Biso   1.000  H
  H79      1.0000 0.72290  0.92770  0.77220  Biso   1.000  H
  H80      1.0000 0.72290  0.57230  0.27220  Biso   1.000  H
  H81      1.0000 0.29030  0.11600  0.13290  Biso   1.000  H
  H82      1.0000 0.29030  0.38400  0.63290  Biso   1.000  H
  H83      1.0000 0.70970  0.88400  0.86710  Biso   1.000  H
  H84      1.0000 0.70970  0.61600  0.36710  Biso   1.000  H
  H85      1.0000 0.34110  0.01060  0.20230  Biso   1.000  H
  H86      1.0000 0.34110  0.48940  0.70230  Biso   1.000  H
  H87      1.0000 0.65890  0.98940  0.79770  Biso   1.000  H
  H88      1.0000 0.65890  0.51060  0.29770  Biso   1.000  H
  O9       1.0000 0.22720  0.11990  0.14870  Biso   1.000  O
  O10      1.0000 0.22720  0.38010  0.64870  Biso   1.000  O
  O11      1.0000 0.77280  0.88010  0.85130  Biso   1.000  O
  O12      1.0000 0.77280  0.61990  0.35130  Biso   1.000  O
  C89      1.0000 0.27090  0.03400  0.15470  Biso   1.000  C
  C90      1.0000 0.27090  0.46600  0.65470  Biso   1.000  C
  C91      1.0000 0.72910  0.96600  0.84530  Biso   1.000  C
  C92      1.0000 0.72910  0.53400  0.34530  Biso   1.000  C
  H89      1.0000 0.31650  0.05780  0.18750  Biso   1.000  H
  H90      1.0000 0.31650  0.44220  0.68750  Biso   1.000  H
  H91      1.0000 0.68350  0.94220  0.81250  Biso   1.000  H
  H92      1.0000 0.68350  0.55780  0.31250  Biso   1.000  H
  N17      1.0000 0.25800  0.90480  0.11660  Biso   1.000  N
  N18      1.0000 0.25800  0.59520  0.61660  Biso   1.000  N
  N19      1.0000 0.74200  0.09520  0.88340  Biso   1.000  N
  N20      1.0000 0.74200  0.40480  0.38340  Biso   1.000  N
  C93      1.0000 0.18740  0.86360  0.06950  Biso   1.000  C
  C94      1.0000 0.18740  0.63640  0.56950  Biso   1.000  C
  C95      1.0000 0.81260  0.13640  0.93050  Biso   1.000  C
  C96      1.0000 0.81260  0.36360  0.43050  Biso   1.000  C
  H93      1.0000 0.18210  0.76530  0.08360  Biso   1.000  H
  H94      1.0000 0.18210  0.73470  0.58360  Biso   1.000  H
  H95      1.0000 0.81790  0.23470  0.91640  Biso   1.000  H
  H96      1.0000 0.81790  0.26530  0.41640  Biso   1.000  H
  H97      1.0000 0.17670  0.87540  0.00250  Biso   1.000  H
  H98      1.0000 0.17670  0.62460  0.50250  Biso   1.000  H
  H99      1.0000 0.82330  0.12460  0.99750  Biso   1.000  H
  H100     1.0000 0.82330  0.37540  0.49750  Biso   1.000  H
  H101     1.0000 0.15640  0.92070  0.09200  Biso   1.000  H
  H102     1.0000 0.15640  0.57930  0.59200  Biso   1.000  H
  H103     1.0000 0.84360  0.07930  0.90800  Biso   1.000  H
  H104     1.0000 0.84360  0.42070  0.40800  Biso   1.000  H
  C97      1.0000 0.31400  0.81630  0.10960  Biso   1.000  C
  C98      1.0000 0.31400  0.68370  0.60960  Biso   1.000  C
  C99      1.0000 0.68600  0.18370  0.89040  Biso   1.000  C
  C100     1.0000 0.68600  0.31630  0.39040  Biso   1.000  C
  H105     1.0000 0.35420  0.83230  0.16290  Biso   1.000  H
  H106     1.0000 0.35420  0.66770  0.66290  Biso   1.000  H
  H107     1.0000 0.64580  0.16770  0.83710  Biso   1.000  H
  H108     1.0000 0.64580  0.33230  0.33710  Biso   1.000  H
  H109     1.0000 0.32480  0.83700  0.05250  Biso   1.000  H
  H110     1.0000 0.32480  0.66300  0.55250  Biso   1.000  H
  H111     1.0000 0.67520  0.16300  0.94750  Biso   1.000  H
  H112     1.0000 0.67520  0.33700  0.44750  Biso   1.000  H
  H113     1.0000 0.29980  0.71870  0.10890  Biso   1.000  H
  H114     1.0000 0.29980  0.78130  0.60890  Biso   1.000  H
  H115     1.0000 0.70020  0.28130  0.89110  Biso   1.000  H
  H116     1.0000 0.70020  0.21870  0.39110  Biso   1.000  H
