data_image0
_cell_length_a       8.693
_cell_length_b       9.98
_cell_length_c       9.98
_cell_angle_alpha    79.86
_cell_angle_beta     118.77
_cell_angle_gamma    74.34

_symmetry_space_group_name_H-M    "P 1"
_symmetry_int_tables_number       1

loop_
  _symmetry_equiv_pos_as_xyz
  'x, y, z'

loop_
  _atom_site_label
  _atom_site_occupancy
  _atom_site_fract_x
  _atom_site_fract_y
  _atom_site_fract_z
  _atom_site_thermal_displace_type
  _atom_site_B_iso_or_equiv
  _atom_site_type_symbol
  Cu1      1.0000 0.00000  0.00000  0.00000  Biso   1.000  Cu
  S1       1.0000 0.49170  0.46250  0.69860  Biso   1.000  S
  S2       1.0000 0.50830  0.53750  0.30140  Biso   1.000  S
  S3       1.0000 0.33770  0.25530  0.49340  Biso   1.000  S
  S4       1.0000 0.66230  0.74470  0.50660  Biso   1.000  S
  O1       1.0000 0.33710  0.18920  0.37640  Biso   1.000  O
  O2       1.0000 0.66290  0.81080  0.62360  Biso   1.000  O
  O3       1.0000 0.23760  0.41600  0.43420  Biso   1.000  O
  O4       1.0000 0.76240  0.58400  0.56580  Biso   1.000  O
  N1       1.0000 0.05600  0.00850  0.26710  Biso   1.000  N
  N2       1.0000 0.94400  0.99150  0.73290  Biso   1.000  N
  N3       1.0000 0.55800  0.19510  0.64430  Biso   1.000  N
  N4       1.0000 0.44200  0.80490  0.35570  Biso   1.000  N
  N5       1.0000 0.78540  0.21280  0.88220  Biso   1.000  N
  N6       1.0000 0.21460  0.78720  0.11780  Biso   1.000  N
  N7       1.0000 0.82570  0.31140  0.96310  Biso   1.000  N
  N8       1.0000 0.17430  0.68860  0.03690  Biso   1.000  N
  N9       1.0000 0.80590  0.91020  0.95360  Biso   1.000  N
  N10      1.0000 0.19410  0.08980  0.04640  Biso   1.000  N
  C1       1.0000 0.22780  0.17790  0.57320  Biso   1.000  C
  C2       1.0000 0.77220  0.82210  0.42680  Biso   1.000  C
  C3       1.0000 0.61520  0.27370  0.74000  Biso   1.000  C
  C4       1.0000 0.38480  0.72630  0.26000  Biso   1.000  C
  C5       1.0000 0.68570  0.57080  0.94160  Biso   1.000  C
  C6       1.0000 0.31430  0.42920  0.05840  Biso   1.000  C
  C7       1.0000 0.80820  0.53660  0.10710  Biso   1.000  C
  C8       1.0000 0.19180  0.46340  0.89290  Biso   1.000  C
  C9       1.0000 0.68710  0.44310  0.88350  Biso   1.000  C
  C10      1.0000 0.31290  0.55690  0.11650  Biso   1.000  C
  C11      1.0000 0.29590  0.02290  0.64000  Biso   1.000  C
  C12      1.0000 0.70410  0.97710  0.36000  Biso   1.000  C
  C13      1.0000 0.20380  0.96030  0.69550  Biso   1.000  C
  C14      1.0000 0.79620  0.03970  0.30450  Biso   1.000  C
  C15      1.0000 0.96080  0.94770  0.31930  Biso   1.000  C
  C16      1.0000 0.03920  0.05230  0.68070  Biso   1.000  C
  C17      1.0000 0.02330  0.79340  0.38190  Biso   1.000  C
  C18      1.0000 0.97670  0.20660  0.61810  Biso   1.000  C
  C19      1.0000 0.06950  0.26920  0.56460  Biso   1.000  C
  C20      1.0000 0.93050  0.73080  0.43540  Biso   1.000  C
  H1       1.0000 0.02300  0.10600  0.26700  Biso   1.000  H
  H2       1.0000 0.97700  0.89400  0.73300  Biso   1.000  H
  H3       1.0000 0.16300  0.95500  0.30400  Biso   1.000  H
  H4       1.0000 0.83700  0.04500  0.69600  Biso   1.000  H
  H5       1.0000 0.85100  0.80200  0.98000  Biso   1.000  H
  H6       1.0000 0.14900  0.19800  0.02000  Biso   1.000  H
  H7       1.0000 0.71000  0.94000  0.85100  Biso   1.000  H
  H8       1.0000 0.29000  0.06000  0.14900  Biso   1.000  H
  H9       1.0000 0.76000  0.92500  0.00900  Biso   1.000  H
  H10      1.0000 0.24000  0.07500  0.99100  Biso   1.000  H
  H11      1.0000 0.54200  0.63100  0.90900  Biso   1.000  H
  H12      1.0000 0.45800  0.36900  0.09100  Biso   1.000  H
  H13      1.0000 0.72200  0.64300  0.87900  Biso   1.000  H
  H14      1.0000 0.27800  0.35700  0.12100  Biso   1.000  H
  H15      1.0000 0.79500  0.63700  0.13500  Biso   1.000  H
  H16      1.0000 0.20500  0.36300  0.86500  Biso   1.000  H
  H17      1.0000 0.95400  0.47800  0.14300  Biso   1.000  H
  H18      1.0000 0.04600  0.52200  0.85700  Biso   1.000  H
  H19      1.0000 0.77400  0.46600  0.17300  Biso   1.000  H
  H20      1.0000 0.22600  0.53400  0.82700  Biso   1.000  H
  H21      1.0000 0.38700  0.95900  0.62800  Biso   1.000  H
  H22      1.0000 0.61300  0.04100  0.37200  Biso   1.000  H
  H23      1.0000 0.23900  0.84700  0.72900  Biso   1.000  H
  H24      1.0000 0.76100  0.15300  0.27100  Biso   1.000  H
  H25      1.0000 0.14500  0.72700  0.39200  Biso   1.000  H
  H26      1.0000 0.85500  0.27300  0.60800  Biso   1.000  H
  H27      1.0000 0.01700  0.37800  0.52200  Biso   1.000  H
  H28      1.0000 0.98300  0.62200  0.47800  Biso   1.000  H
