data_image0
_cell_length_a       7.3114
_cell_length_b       7.7572
_cell_length_c       9.0886
_cell_angle_alpha    106.409
_cell_angle_beta     99.405
_cell_angle_gamma    110.159

_symmetry_space_group_name_H-M    "P 1"
_symmetry_int_tables_number       1

loop_
  _symmetry_equiv_pos_as_xyz
  'x, y, z'

loop_
  _atom_site_label
  _atom_site_occupancy
  _atom_site_fract_x
  _atom_site_fract_y
  _atom_site_fract_z
  _atom_site_thermal_displace_type
  _atom_site_B_iso_or_equiv
  _atom_site_type_symbol
  Pt1      1.0000 0.00000  0.00000  0.00000  Biso   1.000  Pt
  Cu1      1.0000 0.00000  0.50000  0.50000  Biso   1.000  Cu
  O1       1.0000 0.84030  0.58140  0.30190  Biso   1.000  O
  O2       1.0000 0.15970  0.41860  0.69810  Biso   1.000  O
  H1       1.0000 0.73600  0.51000  0.25400  Biso   1.000  H
  H2       1.0000 0.26400  0.49000  0.74600  Biso   1.000  H
  N1       1.0000 0.45980  0.29600  0.10620  Biso   1.000  N
  N2       1.0000 0.54020  0.70400  0.89380  Biso   1.000  N
  N3       1.0000 0.03420  0.74390  0.67940  Biso   1.000  N
  N4       1.0000 0.96580  0.25610  0.32060  Biso   1.000  N
  N5       1.0000 0.22790  0.65210  0.42910  Biso   1.000  N
  N6       1.0000 0.77210  0.34790  0.57090  Biso   1.000  N
  C1       1.0000 0.29340  0.18670  0.06620  Biso   1.000  C
  C2       1.0000 0.70660  0.81330  0.93380  Biso   1.000  C
  C3       1.0000 0.02520  0.84180  0.79640  Biso   1.000  C
  C4       1.0000 0.97480  0.15820  0.20360  Biso   1.000  C
  C5       1.0000 0.18680  0.68470  0.29290  Biso   1.000  C
  C6       1.0000 0.81320  0.31530  0.70710  Biso   1.000  C
  C7       1.0000 0.34200  0.77390  0.23260  Biso   1.000  C
  C8       1.0000 0.65800  0.22610  0.76740  Biso   1.000  C
  H3       1.0000 0.31130  0.79820  0.13910  Biso   1.000  H
  H4       1.0000 0.68870  0.20180  0.86090  Biso   1.000  H
  C9       1.0000 0.54070  0.82570  0.31240  Biso   1.000  C
  C10      1.0000 0.45930  0.17430  0.68760  Biso   1.000  C
  H5       1.0000 0.64550  0.88200  0.27200  Biso   1.000  H
  H6       1.0000 0.35450  0.11800  0.72800  Biso   1.000  H
  C11      1.0000 0.58300  0.79310  0.45350  Biso   1.000  C
  C12      1.0000 0.41700  0.20690  0.54650  Biso   1.000  C
  H7       1.0000 0.71650  0.82820  0.51010  Biso   1.000  H
  H8       1.0000 0.28350  0.17180  0.48990  Biso   1.000  H
  C13      1.0000 0.42280  0.70720  0.50880  Biso   1.000  C
  C14      1.0000 0.57720  0.29280  0.49120  Biso   1.000  C
  H9       1.0000 0.45090  0.68680  0.60450  Biso   1.000  H
  H10      1.0000 0.54910  0.31320  0.39550  Biso   1.000  H
  C15      1.0000 0.96670  0.61430  0.20200  Biso   1.000  C
  C16      1.0000 0.03330  0.38570  0.79800  Biso   1.000  C
  H11      1.0000 0.95070  0.71240  0.16080  Biso   1.000  H
  H12      1.0000 0.04930  0.28760  0.83920  Biso   1.000  H
  H13      1.0000 0.92630  0.49290  0.11160  Biso   1.000  H
  H14      1.0000 0.07370  0.50710  0.88840  Biso   1.000  H
