data_image0
_cell_length_a       7.4431
_cell_length_b       8.059
_cell_length_c       8.894
_cell_angle_alpha    106.321
_cell_angle_beta     99.673
_cell_angle_gamma    111.667

_symmetry_space_group_name_H-M    "P 1"
_symmetry_int_tables_number       1

loop_
  _symmetry_equiv_pos_as_xyz
  'x, y, z'

loop_
  _atom_site_label
  _atom_site_occupancy
  _atom_site_fract_x
  _atom_site_fract_y
  _atom_site_fract_z
  _atom_site_thermal_displace_type
  _atom_site_B_iso_or_equiv
  _atom_site_type_symbol
  Pd1      1.0000 0.00000  0.00000  0.00000  Biso   1.000  Pd
  Cu1      1.0000 0.00000  0.50000  0.50000  Biso   1.000  Cu
  O1       1.0000 0.83250  0.57010  0.30250  Biso   1.000  O
  O2       1.0000 0.16750  0.42990  0.69750  Biso   1.000  O
  H1       1.0000 0.70800  0.49100  0.24100  Biso   1.000  H
  H2       1.0000 0.29200  0.50900  0.75900  Biso   1.000  H
  N1       1.0000 0.03420  0.73810  0.68130  Biso   1.000  N
  N2       1.0000 0.96580  0.26190  0.31870  Biso   1.000  N
  N3       1.0000 0.45400  0.29660  0.10650  Biso   1.000  N
  N4       1.0000 0.54600  0.70340  0.89350  Biso   1.000  N
  N5       1.0000 0.21990  0.65150  0.42380  Biso   1.000  N
  N6       1.0000 0.78010  0.34850  0.57620  Biso   1.000  N
  C1       1.0000 0.02590  0.83830  0.79690  Biso   1.000  C
  C2       1.0000 0.97410  0.16170  0.20310  Biso   1.000  C
  C3       1.0000 0.28970  0.18820  0.06690  Biso   1.000  C
  C4       1.0000 0.71030  0.81180  0.93310  Biso   1.000  C
  C5       1.0000 0.95740  0.64250  0.21450  Biso   1.000  C
  C6       1.0000 0.04260  0.35750  0.78550  Biso   1.000  C
  H3       1.0000 0.91210  0.54680  0.10430  Biso   1.000  H
  H4       1.0000 0.08790  0.45320  0.89570  Biso   1.000  H
  H5       1.0000 0.94620  0.75560  0.20510  Biso   1.000  H
  H6       1.0000 0.05380  0.24440  0.79490  Biso   1.000  H
  C7       1.0000 0.17390  0.69510  0.29380  Biso   1.000  C
  C8       1.0000 0.82610  0.30490  0.70620  Biso   1.000  C
  C9       1.0000 0.32440  0.78560  0.23100  Biso   1.000  C
  C10      1.0000 0.67560  0.21440  0.76900  Biso   1.000  C
  H7       1.0000 0.29100  0.81600  0.14010  Biso   1.000  H
  H8       1.0000 0.70900  0.18400  0.85990  Biso   1.000  H
  C11      1.0000 0.52070  0.82950  0.30350  Biso   1.000  C
  C12      1.0000 0.47930  0.17050  0.69650  Biso   1.000  C
  H9       1.0000 0.62220  0.88920  0.26190  Biso   1.000  H
  H10      1.0000 0.37780  0.11080  0.73810  Biso   1.000  H
  C13      1.0000 0.56780  0.78540  0.43760  Biso   1.000  C
  C14      1.0000 0.43220  0.21460  0.56240  Biso   1.000  C
  H11      1.0000 0.70130  0.81490  0.48910  Biso   1.000  H
  H12      1.0000 0.29870  0.18510  0.51090  Biso   1.000  H
  C15      1.0000 0.41310  0.69630  0.49460  Biso   1.000  C
  C16      1.0000 0.58690  0.30370  0.50540  Biso   1.000  C
  H13      1.0000 0.44430  0.66600  0.58600  Biso   1.000  H
  H14      1.0000 0.55570  0.33400  0.41400  Biso   1.000  H
