data_image0
_cell_length_a       9.2352
_cell_length_b       9.6952
_cell_length_c       18.744
_cell_angle_alpha    90
_cell_angle_beta     90.688
_cell_angle_gamma    90

_symmetry_space_group_name_H-M    "P 1"
_symmetry_int_tables_number       1

loop_
  _symmetry_equiv_pos_as_xyz
  'x, y, z'

loop_
  _atom_site_label
  _atom_site_occupancy
  _atom_site_fract_x
  _atom_site_fract_y
  _atom_site_fract_z
  _atom_site_thermal_displace_type
  _atom_site_B_iso_or_equiv
  _atom_site_type_symbol
  Cu1      1.0000 0.54608  0.83940  0.78661  Biso   1.000  Cu
  Cu2      1.0000 0.45392  0.33940  0.71339  Biso   1.000  Cu
  Cu3      1.0000 0.45392  0.16060  0.21339  Biso   1.000  Cu
  Cu4      1.0000 0.54608  0.66060  0.28661  Biso   1.000  Cu
  O1       1.0000 0.47020  0.11730  0.74508  Biso   1.000  O
  O2       1.0000 0.52980  0.61730  0.75492  Biso   1.000  O
  O3       1.0000 0.52980  0.88270  0.25492  Biso   1.000  O
  O4       1.0000 0.47020  0.38270  0.24508  Biso   1.000  O
  O5       1.0000 0.25040  0.39260  0.71663  Biso   1.000  O
  O6       1.0000 0.74960  0.89260  0.78337  Biso   1.000  O
  O7       1.0000 0.74960  0.60740  0.28337  Biso   1.000  O
  O8       1.0000 0.25040  0.10740  0.21663  Biso   1.000  O
  O9       1.0000 0.33880  0.84740  0.81311  Biso   1.000  O
  O10      1.0000 0.66120  0.34740  0.68689  Biso   1.000  O
  O11      1.0000 0.66120  0.15260  0.18689  Biso   1.000  O
  O12      1.0000 0.33880  0.65260  0.31311  Biso   1.000  O
  H1       1.0000 0.29340  0.77250  0.79810  Biso   1.000  H
  H2       1.0000 0.70660  0.27250  0.70190  Biso   1.000  H
  H3       1.0000 0.70660  0.22750  0.20190  Biso   1.000  H
  H4       1.0000 0.29340  0.72750  0.29810  Biso   1.000  H
  H5       1.0000 0.29730  0.91990  0.79320  Biso   1.000  H
  H6       1.0000 0.70270  0.41990  0.70680  Biso   1.000  H
  H7       1.0000 0.70270  0.08010  0.20680  Biso   1.000  H
  H8       1.0000 0.29730  0.58010  0.29320  Biso   1.000  H
  O13      1.0000 0.51520  0.91650  0.69173  Biso   1.000  O
  O14      1.0000 0.48480  0.41650  0.80827  Biso   1.000  O
  O15      1.0000 0.48480  0.08350  0.30827  Biso   1.000  O
  O16      1.0000 0.51520  0.58350  0.19173  Biso   1.000  O
  F1       1.0000 0.10290  0.89970  0.59792  Biso   1.000  F
  F2       1.0000 0.89710  0.39970  0.90208  Biso   1.000  F
  F3       1.0000 0.89710  0.10030  0.40208  Biso   1.000  F
  F4       1.0000 0.10290  0.60030  0.09792  Biso   1.000  F
  F5       1.0000 0.01450  0.84460  0.49670  Biso   1.000  F
  F6       1.0000 0.98550  0.34460  0.00330  Biso   1.000  F
  F7       1.0000 0.98550  0.15540  0.50330  Biso   1.000  F
  F8       1.0000 0.01450  0.65540  0.99670  Biso   1.000  F
  F9       1.0000 0.22350  0.94160  0.50458  Biso   1.000  F
  F10      1.0000 0.77650  0.44160  0.99542  Biso   1.000  F
  F11      1.0000 0.77650  0.05840  0.49542  Biso   1.000  F
  F12      1.0000 0.22350  0.55840  0.00458  Biso   1.000  F
  O17      1.0000 0.03770  0.34750  0.66534  Biso   1.000  O
  O18      1.0000 0.96230  0.84750  0.83466  Biso   1.000  O
  O19      1.0000 0.96230  0.65250  0.33466  Biso   1.000  O
  O20      1.0000 0.03770  0.15250  0.16534  Biso   1.000  O
  C1       1.0000 0.48710  0.04420  0.69093  Biso   1.000  C
  C2       1.0000 0.51290  0.54420  0.80907  Biso   1.000  C
  C3       1.0000 0.51290  0.95580  0.30907  Biso   1.000  C
  C4       1.0000 0.48710  0.45580  0.19093  Biso   1.000  C
  N1       1.0000 0.39780  0.24280  0.61991  Biso   1.000  N
  N2       1.0000 0.60220  0.74280  0.88009  Biso   1.000  N
  N3       1.0000 0.60220  0.75720  0.38009  Biso   1.000  N
  N4       1.0000 0.39780  0.25720  0.11991  Biso   1.000  N
  C5       1.0000 0.47790  0.11070  0.61761  Biso   1.000  C
  C6       1.0000 0.52210  0.61070  0.88239  Biso   1.000  C
  C7       1.0000 0.52210  0.88930  0.38239  Biso   1.000  C
  C8       1.0000 0.47790  0.38930  0.11761  Biso   1.000  C
  H9       1.0000 0.57690  0.12750  0.59990  Biso   1.000  H
  H10      1.0000 0.42310  0.62750  0.90010  Biso   1.000  H
  H11      1.0000 0.42310  0.87250  0.40010  Biso   1.000  H
  H12      1.0000 0.57690  0.37250  0.09990  Biso   1.000  H
  H13      1.0000 0.42850  0.04700  0.58400  Biso   1.000  H
  H14      1.0000 0.57150  0.54700  0.91600  Biso   1.000  H
  H15      1.0000 0.57150  0.95300  0.41600  Biso   1.000  H
  H16      1.0000 0.42850  0.45300  0.08400  Biso   1.000  H
  C9       1.0000 0.13680  0.84580  0.53410  Biso   1.000  C
  C10      1.0000 0.86320  0.34580  0.96590  Biso   1.000  C
  C11      1.0000 0.86320  0.15420  0.46590  Biso   1.000  C
  C12      1.0000 0.13680  0.65420  0.03410  Biso   1.000  C
  C13      1.0000 0.35060  0.45770  0.54892  Biso   1.000  C
  C14      1.0000 0.64940  0.95770  0.95108  Biso   1.000  C
  C15      1.0000 0.64940  0.54230  0.45108  Biso   1.000  C
  C16      1.0000 0.35060  0.04230  0.04892  Biso   1.000  C
  C17      1.0000 0.23920  0.47630  0.49982  Biso   1.000  C
  C18      1.0000 0.76080  0.97630  0.00018  Biso   1.000  C
  C19      1.0000 0.76080  0.52370  0.50018  Biso   1.000  C
  C20      1.0000 0.23920  0.02370  0.99982  Biso   1.000  C
  H17      1.0000 0.21080  0.40210  0.46970  Biso   1.000  H
  H18      1.0000 0.78920  0.90210  0.03030  Biso   1.000  H
  H19      1.0000 0.78920  0.59790  0.53030  Biso   1.000  H
  H20      1.0000 0.21080  0.09790  0.96970  Biso   1.000  H
  C21      1.0000 0.43000  0.32160  0.55332  Biso   1.000  C
  C22      1.0000 0.57000  0.82160  0.94668  Biso   1.000  C
  C23      1.0000 0.57000  0.67840  0.44668  Biso   1.000  C
  C24      1.0000 0.43000  0.17840  0.05332  Biso   1.000  C
  H21      1.0000 0.40280  0.26460  0.51140  Biso   1.000  H
  H22      1.0000 0.59720  0.76460  0.98860  Biso   1.000  H
  H23      1.0000 0.59720  0.73540  0.48860  Biso   1.000  H
  H24      1.0000 0.40280  0.23540  0.01140  Biso   1.000  H
  H25      1.0000 0.53550  0.33900  0.55130  Biso   1.000  H
  H26      1.0000 0.46450  0.83900  0.94870  Biso   1.000  H
  H27      1.0000 0.46450  0.66100  0.44870  Biso   1.000  H
  H28      1.0000 0.53550  0.16100  0.05130  Biso   1.000  H
  C25      1.0000 0.16810  0.32910  0.67170  Biso   1.000  C
  C26      1.0000 0.83190  0.82910  0.82830  Biso   1.000  C
  C27      1.0000 0.83190  0.67090  0.32830  Biso   1.000  C
  C28      1.0000 0.16810  0.17090  0.17170  Biso   1.000  C
  C29      1.0000 0.20800  0.70900  0.53943  Biso   1.000  C
  C30      1.0000 0.79200  0.20900  0.96057  Biso   1.000  C
  C31      1.0000 0.79200  0.29100  0.46057  Biso   1.000  C
  C32      1.0000 0.20800  0.79100  0.03943  Biso   1.000  C
  C33      1.0000 0.31970  0.69160  0.58911  Biso   1.000  C
  C34      1.0000 0.68030  0.19160  0.91089  Biso   1.000  C
  C35      1.0000 0.68030  0.30840  0.41089  Biso   1.000  C
  C36      1.0000 0.31970  0.80840  0.08911  Biso   1.000  C
  H29      1.0000 0.34590  0.76500  0.62030  Biso   1.000  H
  H30      1.0000 0.65410  0.26500  0.87970  Biso   1.000  H
  H31      1.0000 0.65410  0.23500  0.37970  Biso   1.000  H
  H32      1.0000 0.34590  0.73500  0.12030  Biso   1.000  H
  C37      1.0000 0.16840  0.60240  0.49416  Biso   1.000  C
  C38      1.0000 0.83160  0.10240  0.00584  Biso   1.000  C
  C39      1.0000 0.83160  0.39760  0.50584  Biso   1.000  C
  C40      1.0000 0.16840  0.89760  0.99416  Biso   1.000  C
  H33      1.0000 0.09360  0.61530  0.45960  Biso   1.000  H
  H34      1.0000 0.90640  0.11530  0.04040  Biso   1.000  H
  H35      1.0000 0.90640  0.38470  0.54040  Biso   1.000  H
  H36      1.0000 0.09360  0.88470  0.95960  Biso   1.000  H
  C41      1.0000 0.39200  0.56760  0.59287  Biso   1.000  C
  C42      1.0000 0.60800  0.06760  0.90713  Biso   1.000  C
  C43      1.0000 0.60800  0.43240  0.40713  Biso   1.000  C
  C44      1.0000 0.39200  0.93240  0.09287  Biso   1.000  C
  H37      1.0000 0.47050  0.55660  0.62560  Biso   1.000  H
  H38      1.0000 0.52950  0.05660  0.87440  Biso   1.000  H
  H39      1.0000 0.52950  0.44340  0.37440  Biso   1.000  H
  H40      1.0000 0.47050  0.94340  0.12560  Biso   1.000  H
  C45      1.0000 0.24000  0.21800  0.62758  Biso   1.000  C
  C46      1.0000 0.76000  0.71800  0.87242  Biso   1.000  C
  C47      1.0000 0.76000  0.78200  0.37242  Biso   1.000  C
  C48      1.0000 0.24000  0.28200  0.12758  Biso   1.000  C
  H41      1.0000 0.22490  0.12720  0.65060  Biso   1.000  H
  H42      1.0000 0.77510  0.62720  0.84940  Biso   1.000  H
  H43      1.0000 0.77510  0.87280  0.34940  Biso   1.000  H
  H44      1.0000 0.22490  0.37280  0.15060  Biso   1.000  H
  H45      1.0000 0.19380  0.21490  0.57970  Biso   1.000  H
  H46      1.0000 0.80620  0.71490  0.92030  Biso   1.000  H
  H47      1.0000 0.80620  0.78510  0.42030  Biso   1.000  H
  H48      1.0000 0.19380  0.28510  0.07970  Biso   1.000  H
  O21      1.0000 0.17800  0.61490  0.80810  Biso   1.000  O
  O22      1.0000 0.82200  0.11490  0.69190  Biso   1.000  O
  O23      1.0000 0.82200  0.38510  0.19190  Biso   1.000  O
  O24      1.0000 0.17800  0.88510  0.30810  Biso   1.000  O
  H49      1.0000 0.08910  0.64430  0.80510  Biso   1.000  H
  H50      1.0000 0.91090  0.14430  0.69490  Biso   1.000  H
  H51      1.0000 0.91090  0.35570  0.19490  Biso   1.000  H
  H52      1.0000 0.08910  0.85570  0.30510  Biso   1.000  H
  H53      1.0000 0.19070  0.54900  0.77730  Biso   1.000  H
  H54      1.0000 0.80930  0.04900  0.72270  Biso   1.000  H
  H55      1.0000 0.80930  0.45100  0.22270  Biso   1.000  H
  H56      1.0000 0.19070  0.95100  0.27730  Biso   1.000  H
  O25      1.0000 0.14490  0.05140  0.78288  Biso   1.000  O
  O26      1.0000 0.85510  0.55140  0.71712  Biso   1.000  O
  O27      1.0000 0.85510  0.94860  0.21712  Biso   1.000  O
  O28      1.0000 0.14490  0.44860  0.28288  Biso   1.000  O
  H57      1.0000 0.15960  0.11890  0.81270  Biso   1.000  H
  H58      1.0000 0.84040  0.61890  0.68730  Biso   1.000  H
  H59      1.0000 0.84040  0.88110  0.18730  Biso   1.000  H
  H60      1.0000 0.15960  0.38110  0.31270  Biso   1.000  H
  H61      1.0000 0.07490  0.99960  0.79820  Biso   1.000  H
  H62      1.0000 0.92510  0.49960  0.70180  Biso   1.000  H
  H63      1.0000 0.92510  0.00040  0.20180  Biso   1.000  H
  H64      1.0000 0.07490  0.50040  0.29820  Biso   1.000  H
  O29      1.0000 0.76900  0.78550  0.62240  Biso   1.000  O
  O30      1.0000 0.23100  0.28550  0.87760  Biso   1.000  O
  O31      1.0000 0.23100  0.21450  0.37760  Biso   1.000  O
  O32      1.0000 0.76900  0.71450  0.12240  Biso   1.000  O
  H65      1.0000 0.69930  0.81030  0.65040  Biso   1.000  H
  H66      1.0000 0.30070  0.31030  0.84960  Biso   1.000  H
  H67      1.0000 0.30070  0.18970  0.34960  Biso   1.000  H
  H68      1.0000 0.69930  0.68970  0.15040  Biso   1.000  H
  H69      1.0000 0.81270  0.86370  0.62280  Biso   1.000  H
  H70      1.0000 0.18730  0.36370  0.87720  Biso   1.000  H
  H71      1.0000 0.18730  0.13630  0.37720  Biso   1.000  H
  H72      1.0000 0.81270  0.63630  0.12280  Biso   1.000  H
