data_image0
_cell_length_a       18.627
_cell_length_b       7.89
_cell_length_c       4.96
_cell_angle_alpha    90
_cell_angle_beta     89.96
_cell_angle_gamma    90

_symmetry_space_group_name_H-M    "P 1"
_symmetry_int_tables_number       1

loop_
  _symmetry_equiv_pos_as_xyz
  'x, y, z'

loop_
  _atom_site_label
  _atom_site_occupancy
  _atom_site_fract_x
  _atom_site_fract_y
  _atom_site_fract_z
  _atom_site_thermal_displace_type
  _atom_site_B_iso_or_equiv
  _atom_site_type_symbol
  Cu1      1.0000 0.00000  0.00000  0.00000  Biso   1.000  Cu
  Cu2      1.0000 0.50000  0.50000  0.50000  Biso   1.000  Cu
  S1       1.0000 0.10660  0.08820  0.56910  Biso   1.000  S
  S2       1.0000 0.60660  0.41180  0.06910  Biso   1.000  S
  S3       1.0000 0.89340  0.91180  0.43090  Biso   1.000  S
  S4       1.0000 0.39340  0.58820  0.93090  Biso   1.000  S
  O1       1.0000 0.04050  0.14600  0.71000  Biso   1.000  O
  O2       1.0000 0.54050  0.35400  0.21000  Biso   1.000  O
  O3       1.0000 0.95950  0.85400  0.29000  Biso   1.000  O
  O4       1.0000 0.45950  0.64600  0.79000  Biso   1.000  O
  O5       1.0000 0.17160  0.16700  0.66800  Biso   1.000  O
  O6       1.0000 0.67160  0.33300  0.16800  Biso   1.000  O
  O7       1.0000 0.82840  0.83300  0.33200  Biso   1.000  O
  O8       1.0000 0.32840  0.66700  0.83200  Biso   1.000  O
  O9       1.0000 0.09860  0.09400  0.28700  Biso   1.000  O
  O10      1.0000 0.59860  0.40600  0.78700  Biso   1.000  O
  O11      1.0000 0.90140  0.90600  0.71300  Biso   1.000  O
  O12      1.0000 0.40140  0.59400  0.21300  Biso   1.000  O
  N1       1.0000 0.06480  0.82200  0.86300  Biso   1.000  N
  N2       1.0000 0.56480  0.67800  0.36300  Biso   1.000  N
  N3       1.0000 0.93520  0.17800  0.13700  Biso   1.000  N
  N4       1.0000 0.43520  0.32200  0.63700  Biso   1.000  N
  C1       1.0000 0.11170  0.86800  0.67300  Biso   1.000  C
  C2       1.0000 0.61170  0.63200  0.17300  Biso   1.000  C
  C3       1.0000 0.88830  0.13200  0.32700  Biso   1.000  C
  C4       1.0000 0.38830  0.36800  0.82700  Biso   1.000  C
  C5       1.0000 0.16360  0.76000  0.55000  Biso   1.000  C
  C6       1.0000 0.66360  0.74000  0.05000  Biso   1.000  C
  C7       1.0000 0.83640  0.24000  0.45000  Biso   1.000  C
  C8       1.0000 0.33640  0.26000  0.95000  Biso   1.000  C
  C9       1.0000 0.16240  0.59100  0.66900  Biso   1.000  C
  C10      1.0000 0.66240  0.90900  0.16900  Biso   1.000  C
  C11      1.0000 0.83760  0.40900  0.33100  Biso   1.000  C
  C12      1.0000 0.33760  0.09100  0.83100  Biso   1.000  C
  C13      1.0000 0.11410  0.54500  0.85200  Biso   1.000  C
  C14      1.0000 0.61410  0.95500  0.35200  Biso   1.000  C
  C15      1.0000 0.88590  0.45500  0.14800  Biso   1.000  C
  C16      1.0000 0.38590  0.04500  0.64800  Biso   1.000  C
  C17      1.0000 0.06590  0.66600  0.95500  Biso   1.000  C
  C18      1.0000 0.56590  0.83400  0.45500  Biso   1.000  C
  C19      1.0000 0.93410  0.33400  0.04500  Biso   1.000  C
  C20      1.0000 0.43410  0.16600  0.54500  Biso   1.000  C
  C21      1.0000 0.21850  0.81400  0.34900  Biso   1.000  C
  C22      1.0000 0.71850  0.68600  0.84900  Biso   1.000  C
  C23      1.0000 0.78150  0.18600  0.65100  Biso   1.000  C
  C24      1.0000 0.28150  0.31400  0.15100  Biso   1.000  C
  H1       1.0000 0.19760  0.51230  0.60750  Biso   1.000  H
  H2       1.0000 0.69760  0.98770  0.10750  Biso   1.000  H
  H3       1.0000 0.80240  0.48770  0.39250  Biso   1.000  H
  H4       1.0000 0.30240  0.01230  0.89250  Biso   1.000  H
  H5       1.0000 0.11280  0.43010  0.91640  Biso   1.000  H
  H6       1.0000 0.61280  0.06990  0.41640  Biso   1.000  H
  H7       1.0000 0.88720  0.56990  0.08360  Biso   1.000  H
  H8       1.0000 0.38720  0.93010  0.58360  Biso   1.000  H
  H9       1.0000 0.03230  0.63360  0.09270  Biso   1.000  H
  H10      1.0000 0.53230  0.86640  0.59270  Biso   1.000  H
  H11      1.0000 0.96770  0.36640  0.90730  Biso   1.000  H
  H12      1.0000 0.46770  0.13360  0.40730  Biso   1.000  H
  H13      1.0000 0.21020  0.92660  0.29510  Biso   1.000  H
  H14      1.0000 0.71020  0.57340  0.79510  Biso   1.000  H
  H15      1.0000 0.78980  0.07340  0.70490  Biso   1.000  H
  H16      1.0000 0.28980  0.42660  0.20490  Biso   1.000  H
  H17      1.0000 0.21620  0.74120  0.19340  Biso   1.000  H
  H18      1.0000 0.71620  0.75880  0.69340  Biso   1.000  H
  H19      1.0000 0.78380  0.25880  0.80660  Biso   1.000  H
  H20      1.0000 0.28380  0.24120  0.30660  Biso   1.000  H
  H21      1.0000 0.26550  0.80410  0.42470  Biso   1.000  H
  H22      1.0000 0.76550  0.69590  0.92470  Biso   1.000  H
  H23      1.0000 0.73450  0.19590  0.57530  Biso   1.000  H
  H24      1.0000 0.23450  0.30410  0.07530  Biso   1.000  H
