data_image0
_cell_length_a       7.7242
_cell_length_b       9.7417
_cell_length_c       4.9584
_cell_angle_alpha    103.837
_cell_angle_beta     98.12
_cell_angle_gamma    93.227

_symmetry_space_group_name_H-M    "P 1"
_symmetry_int_tables_number       1

loop_
  _symmetry_equiv_pos_as_xyz
  'x, y, z'

loop_
  _atom_site_label
  _atom_site_occupancy
  _atom_site_fract_x
  _atom_site_fract_y
  _atom_site_fract_z
  _atom_site_thermal_displace_type
  _atom_site_B_iso_or_equiv
  _atom_site_type_symbol
  Cu1      1.0000 0.00000  0.00000  0.00000  Biso   1.000  Cu
  S1       1.0000 0.08044  0.78997  0.34520  Biso   1.000  S
  S2       1.0000 0.91956  0.21003  0.65480  Biso   1.000  S
  O1       1.0000 0.14810  0.92220  0.27620  Biso   1.000  O
  O2       1.0000 0.85190  0.07780  0.72380  Biso   1.000  O
  O3       1.0000 0.09070  0.81180  0.64830  Biso   1.000  O
  O4       1.0000 0.90930  0.18820  0.35170  Biso   1.000  O
  O5       1.0000 0.14760  0.66550  0.20550  Biso   1.000  O
  O6       1.0000 0.85240  0.33450  0.79450  Biso   1.000  O
  N1       1.0000 0.80820  0.86680  0.04420  Biso   1.000  N
  N2       1.0000 0.19180  0.13320  0.95580  Biso   1.000  N
  C1       1.0000 0.84960  0.77620  0.20390  Biso   1.000  C
  C2       1.0000 0.15040  0.22380  0.79610  Biso   1.000  C
  C3       1.0000 0.72720  0.67950  0.25610  Biso   1.000  C
  C4       1.0000 0.27280  0.32050  0.74390  Biso   1.000  C
  C5       1.0000 0.55240  0.68510  0.14320  Biso   1.000  C
  C6       1.0000 0.44760  0.31490  0.85680  Biso   1.000  C
  C7       1.0000 0.50840  0.77830  0.97980  Biso   1.000  C
  C8       1.0000 0.49160  0.22170  0.02020  Biso   1.000  C
  C9       1.0000 0.63950  0.86660  0.93050  Biso   1.000  C
  C10      1.0000 0.36050  0.13340  0.06950  Biso   1.000  C
  C11      1.0000 0.77610  0.57200  0.42020  Biso   1.000  C
  C12      1.0000 0.22390  0.42800  0.57980  Biso   1.000  C
  H1       1.0000 0.46390  0.62600  0.19580  Biso   1.000  H
  H2       1.0000 0.53610  0.37400  0.80420  Biso   1.000  H
  H3       1.0000 0.38590  0.77380  0.87790  Biso   1.000  H
  H4       1.0000 0.61410  0.22620  0.12210  Biso   1.000  H
  H5       1.0000 0.61490  0.93190  0.81530  Biso   1.000  H
  H6       1.0000 0.38510  0.06810  0.18470  Biso   1.000  H
  H7       1.0000 0.85910  0.60500  0.57210  Biso   1.000  H
  H8       1.0000 0.14090  0.39500  0.42790  Biso   1.000  H
  H9       1.0000 0.83090  0.50620  0.31640  Biso   1.000  H
  H10      1.0000 0.16910  0.49380  0.68360  Biso   1.000  H
  H11      1.0000 0.67840  0.53450  0.48720  Biso   1.000  H
  H12      1.0000 0.32160  0.46550  0.51280  Biso   1.000  H
