data_image0
_cell_length_a       8.4137
_cell_length_b       14.8125
_cell_length_c       19.3346
_cell_angle_alpha    90
_cell_angle_beta     111.712
_cell_angle_gamma    90

_symmetry_space_group_name_H-M    "P 1"
_symmetry_int_tables_number       1

loop_
  _symmetry_equiv_pos_as_xyz
  'x, y, z'

loop_
  _atom_site_label
  _atom_site_occupancy
  _atom_site_fract_x
  _atom_site_fract_y
  _atom_site_fract_z
  _atom_site_thermal_displace_type
  _atom_site_B_iso_or_equiv
  _atom_site_type_symbol
  Cu1      1.0000 0.50000  0.00000  0.50000  Biso   1.000  Cu
  Cu2      1.0000 0.50000  0.50000  0.00000  Biso   1.000  Cu
  Cu3      1.0000 0.50000  0.00000  0.00000  Biso   1.000  Cu
  Cu4      1.0000 0.50000  0.50000  0.50000  Biso   1.000  Cu
  O1       1.0000 0.50570  0.07261  0.58747  Biso   1.000  O
  O2       1.0000 0.49430  0.57261  0.91253  Biso   1.000  O
  O3       1.0000 0.49430  0.92739  0.41253  Biso   1.000  O
  O4       1.0000 0.50570  0.42739  0.08747  Biso   1.000  O
  O5       1.0000 0.65830  0.99299  0.68902  Biso   1.000  O
  O6       1.0000 0.34170  0.49299  0.81098  Biso   1.000  O
  O7       1.0000 0.34170  0.00701  0.31098  Biso   1.000  O
  O8       1.0000 0.65830  0.50701  0.18902  Biso   1.000  O
  O9       1.0000 0.49012  0.06117  0.90708  Biso   1.000  O
  O10      1.0000 0.50988  0.56117  0.59292  Biso   1.000  O
  O11      1.0000 0.50988  0.93883  0.09292  Biso   1.000  O
  O12      1.0000 0.49012  0.43883  0.40708  Biso   1.000  O
  O13      1.0000 0.43330  0.20369  0.92816  Biso   1.000  O
  O14      1.0000 0.56670  0.70369  0.57184  Biso   1.000  O
  O15      1.0000 0.56670  0.79631  0.07184  Biso   1.000  O
  O16      1.0000 0.43330  0.29631  0.42816  Biso   1.000  O
  O17      1.0000 0.68170  0.88491  0.57668  Biso   1.000  O
  O18      1.0000 0.31830  0.38491  0.92332  Biso   1.000  O
  O19      1.0000 0.31830  0.11509  0.42332  Biso   1.000  O
  O20      1.0000 0.68170  0.61509  0.07668  Biso   1.000  O
  H1       1.0000 0.70040  0.91050  0.61830  Biso   1.000  H
  H2       1.0000 0.29960  0.41050  0.88170  Biso   1.000  H
  H3       1.0000 0.29960  0.08950  0.38170  Biso   1.000  H
  H4       1.0000 0.70040  0.58950  0.11830  Biso   1.000  H
  H5       1.0000 0.64670  0.83070  0.57330  Biso   1.000  H
  H6       1.0000 0.35330  0.33070  0.92670  Biso   1.000  H
  H7       1.0000 0.35330  0.16930  0.42670  Biso   1.000  H
  H8       1.0000 0.64670  0.66930  0.07330  Biso   1.000  H
  O21      1.0000 0.68860  0.88355  0.97606  Biso   1.000  O
  O22      1.0000 0.31140  0.38355  0.52394  Biso   1.000  O
  O23      1.0000 0.31140  0.11645  0.02394  Biso   1.000  O
  O24      1.0000 0.68860  0.61645  0.47606  Biso   1.000  O
  H9       1.0000 0.79110  0.89950  0.00070  Biso   1.000  H
  H10      1.0000 0.20890  0.39950  0.49930  Biso   1.000  H
  H11      1.0000 0.20890  0.10050  0.99930  Biso   1.000  H
  H12      1.0000 0.79110  0.60050  0.50070  Biso   1.000  H
  H13      1.0000 0.64690  0.84730  0.99900  Biso   1.000  H
  H14      1.0000 0.35310  0.34730  0.50100  Biso   1.000  H
  H15      1.0000 0.35310  0.15270  0.00100  Biso   1.000  H
  H16      1.0000 0.64690  0.65270  0.49900  Biso   1.000  H
  N1       1.0000 0.28180  0.93675  0.49896  Biso   1.000  N
  N2       1.0000 0.71820  0.43675  0.00104  Biso   1.000  N
  N3       1.0000 0.71820  0.06325  0.50104  Biso   1.000  N
  N4       1.0000 0.28180  0.56325  0.99896  Biso   1.000  N
  N5       1.0000 0.04900  0.75146  0.64096  Biso   1.000  N
  N6       1.0000 0.95100  0.25146  0.85904  Biso   1.000  N
  N7       1.0000 0.95100  0.24854  0.35904  Biso   1.000  N
  N8       1.0000 0.04900  0.74854  0.14096  Biso   1.000  N
  N9       1.0000 0.05650  0.74585  0.71353  Biso   1.000  N
  N10      1.0000 0.94350  0.24585  0.78647  Biso   1.000  N
  N11      1.0000 0.94350  0.25415  0.28647  Biso   1.000  N
  N12      1.0000 0.05650  0.75415  0.21353  Biso   1.000  N
  N13      1.0000 0.16930  0.87458  0.69996  Biso   1.000  N
  N14      1.0000 0.83070  0.37458  0.80004  Biso   1.000  N
  N15      1.0000 0.83070  0.12542  0.30004  Biso   1.000  N
  N16      1.0000 0.16930  0.62542  0.19996  Biso   1.000  N
  N17      1.0000 0.24070  0.96173  0.70976  Biso   1.000  N
  N18      1.0000 0.75930  0.46173  0.79024  Biso   1.000  N
  N19      1.0000 0.75930  0.03827  0.29024  Biso   1.000  N
  N20      1.0000 0.24070  0.53827  0.20976  Biso   1.000  N
  H17      1.0000 0.34940  0.95830  0.74070  Biso   1.000  H
  H18      1.0000 0.65060  0.45830  0.75930  Biso   1.000  H
  H19      1.0000 0.65060  0.04170  0.25930  Biso   1.000  H
  H20      1.0000 0.34940  0.54170  0.24070  Biso   1.000  H
  H21      1.0000 0.18170  0.99750  0.72850  Biso   1.000  H
  H22      1.0000 0.81830  0.49750  0.77150  Biso   1.000  H
  H23      1.0000 0.81830  0.00250  0.27150  Biso   1.000  H
  H24      1.0000 0.18170  0.50250  0.22850  Biso   1.000  H
  N21      1.0000 0.30080  0.92131  0.93909  Biso   1.000  N
  N22      1.0000 0.69920  0.42131  0.56091  Biso   1.000  N
  N23      1.0000 0.69920  0.07869  0.06091  Biso   1.000  N
  N24      1.0000 0.30080  0.57869  0.43909  Biso   1.000  N
  N25      1.0000 0.38790  0.36886  0.69054  Biso   1.000  N
  N26      1.0000 0.61210  0.86886  0.80946  Biso   1.000  N
  N27      1.0000 0.61210  0.63114  0.30946  Biso   1.000  N
  N28      1.0000 0.38790  0.13114  0.19054  Biso   1.000  N
  H25      1.0000 0.33200  0.40390  0.71130  Biso   1.000  H
  H26      1.0000 0.66800  0.90390  0.78870  Biso   1.000  H
  H27      1.0000 0.66800  0.59610  0.28870  Biso   1.000  H
  H28      1.0000 0.33200  0.09610  0.21130  Biso   1.000  H
  H29      1.0000 0.34240  0.37450  0.64120  Biso   1.000  H
  H30      1.0000 0.65760  0.87450  0.85880  Biso   1.000  H
  H31      1.0000 0.65760  0.62550  0.35880  Biso   1.000  H
  H32      1.0000 0.34240  0.12550  0.14120  Biso   1.000  H
  C1       1.0000 0.13960  0.93350  0.43672  Biso   1.000  C
  C2       1.0000 0.86040  0.43350  0.06328  Biso   1.000  C
  C3       1.0000 0.86040  0.06650  0.56328  Biso   1.000  C
  C4       1.0000 0.13960  0.56650  0.93672  Biso   1.000  C
  H33      1.0000 0.14520  0.95650  0.39290  Biso   1.000  H
  H34      1.0000 0.85480  0.45650  0.10710  Biso   1.000  H
  H35      1.0000 0.85480  0.04350  0.60710  Biso   1.000  H
  H36      1.0000 0.14520  0.54350  0.89290  Biso   1.000  H
  C5       1.0000 0.98710  0.89822  0.43450  Biso   1.000  C
  C6       1.0000 0.01290  0.39822  0.06550  Biso   1.000  C
  C7       1.0000 0.01290  0.10178  0.56550  Biso   1.000  C
  C8       1.0000 0.98710  0.60178  0.93450  Biso   1.000  C
  H37      1.0000 0.89210  0.89770  0.39030  Biso   1.000  H
  H38      1.0000 0.10790  0.39770  0.10970  Biso   1.000  H
  H39      1.0000 0.10790  0.10230  0.60970  Biso   1.000  H
  H40      1.0000 0.89210  0.60230  0.89030  Biso   1.000  H
  C9       1.0000 0.97730  0.86339  0.49933  Biso   1.000  C
  C10      1.0000 0.02270  0.36339  0.00067  Biso   1.000  C
  C11      1.0000 0.02270  0.13661  0.50067  Biso   1.000  C
  C12      1.0000 0.97730  0.63661  0.99933  Biso   1.000  C
  H41      1.0000 0.87530  0.83930  0.49940  Biso   1.000  H
  H42      1.0000 0.12470  0.33930  0.00060  Biso   1.000  H
  H43      1.0000 0.12470  0.16070  0.50060  Biso   1.000  H
  H44      1.0000 0.87530  0.66070  0.99940  Biso   1.000  H
  C13      1.0000 0.12260  0.86504  0.56427  Biso   1.000  C
  C14      1.0000 0.87740  0.36504  0.93573  Biso   1.000  C
  C15      1.0000 0.87740  0.13496  0.43573  Biso   1.000  C
  C16      1.0000 0.12260  0.63496  0.06427  Biso   1.000  C
  C17      1.0000 0.27150  0.90281  0.56137  Biso   1.000  C
  C18      1.0000 0.72850  0.40281  0.93863  Biso   1.000  C
  C19      1.0000 0.72850  0.09719  0.43863  Biso   1.000  C
  C20      1.0000 0.27150  0.59719  0.06137  Biso   1.000  C
  H45      1.0000 0.36840  0.90460  0.60480  Biso   1.000  H
  H46      1.0000 0.63160  0.40460  0.89520  Biso   1.000  H
  H47      1.0000 0.63160  0.09540  0.39520  Biso   1.000  H
  H48      1.0000 0.36840  0.59540  0.10480  Biso   1.000  H
  C21      1.0000 0.11530  0.82965  0.63385  Biso   1.000  C
  C22      1.0000 0.88470  0.32965  0.86615  Biso   1.000  C
  C23      1.0000 0.88470  0.17035  0.36615  Biso   1.000  C
  C24      1.0000 0.11530  0.67035  0.13385  Biso   1.000  C
  C25      1.0000 0.12900  0.82020  0.74841  Biso   1.000  C
  C26      1.0000 0.87100  0.32020  0.75159  Biso   1.000  C
  C27      1.0000 0.87100  0.17980  0.25159  Biso   1.000  C
  C28      1.0000 0.12900  0.67980  0.24841  Biso   1.000  C
  C29      1.0000 0.15070  0.84314  0.82532  Biso   1.000  C
  C30      1.0000 0.84930  0.34314  0.67468  Biso   1.000  C
  C31      1.0000 0.84930  0.15686  0.17468  Biso   1.000  C
  C32      1.0000 0.15070  0.65686  0.32532  Biso   1.000  C
  C33      1.0000 0.03150  0.81193  0.85395  Biso   1.000  C
  C34      1.0000 0.96850  0.31193  0.64605  Biso   1.000  C
  C35      1.0000 0.96850  0.18807  0.14605  Biso   1.000  C
  C36      1.0000 0.03150  0.68807  0.35395  Biso   1.000  C
  H49      1.0000 0.94240  0.77430  0.82600  Biso   1.000  H
  H50      1.0000 0.05760  0.27430  0.67400  Biso   1.000  H
  H51      1.0000 0.05760  0.22570  0.17400  Biso   1.000  H
  H52      1.0000 0.94240  0.72570  0.32600  Biso   1.000  H
  C37      1.0000 0.04880  0.83820  0.92528  Biso   1.000  C
  C38      1.0000 0.95120  0.33820  0.57472  Biso   1.000  C
  C39      1.0000 0.95120  0.16180  0.07472  Biso   1.000  C
  C40      1.0000 0.04880  0.66180  0.42528  Biso   1.000  C
  H53      1.0000 0.97040  0.81880  0.94560  Biso   1.000  H
  H54      1.0000 0.02960  0.31880  0.55440  Biso   1.000  H
  H55      1.0000 0.02960  0.18120  0.05440  Biso   1.000  H
  H56      1.0000 0.97040  0.68120  0.44560  Biso   1.000  H
  C41      1.0000 0.18300  0.89329  0.96577  Biso   1.000  C
  C42      1.0000 0.81700  0.39329  0.53423  Biso   1.000  C
  C43      1.0000 0.81700  0.10671  0.03423  Biso   1.000  C
  C44      1.0000 0.18300  0.60671  0.46577  Biso   1.000  C
  H57      1.0000 0.19220  0.91160  0.01310  Biso   1.000  H
  H58      1.0000 0.80780  0.41160  0.48690  Biso   1.000  H
  H59      1.0000 0.80780  0.08840  0.98690  Biso   1.000  H
  H60      1.0000 0.19220  0.58840  0.51310  Biso   1.000  H
  C45      1.0000 0.28380  0.89706  0.87016  Biso   1.000  C
  C46      1.0000 0.71620  0.39706  0.62984  Biso   1.000  C
  C47      1.0000 0.71620  0.10294  0.12984  Biso   1.000  C
  C48      1.0000 0.28380  0.60294  0.37016  Biso   1.000  C
  H61      1.0000 0.36460  0.91720  0.85140  Biso   1.000  H
  H62      1.0000 0.63540  0.41720  0.64860  Biso   1.000  H
  H63      1.0000 0.63540  0.08280  0.14860  Biso   1.000  H
  H64      1.0000 0.36460  0.58280  0.35140  Biso   1.000  H
  C49      1.0000 0.56660  0.05936  0.65706  Biso   1.000  C
  C50      1.0000 0.43340  0.55936  0.84294  Biso   1.000  C
  C51      1.0000 0.43340  0.94064  0.34294  Biso   1.000  C
  C52      1.0000 0.56660  0.44064  0.15706  Biso   1.000  C
  C53      1.0000 0.52280  0.12962  0.70364  Biso   1.000  C
  C54      1.0000 0.47720  0.62962  0.79636  Biso   1.000  C
  C55      1.0000 0.47720  0.87038  0.29636  Biso   1.000  C
  C56      1.0000 0.52280  0.37038  0.20364  Biso   1.000  C
  C57      1.0000 0.46840  0.21494  0.67419  Biso   1.000  C
  C58      1.0000 0.53160  0.71494  0.82581  Biso   1.000  C
  C59      1.0000 0.53160  0.78506  0.32581  Biso   1.000  C
  C60      1.0000 0.46840  0.28506  0.17419  Biso   1.000  C
  H65      1.0000 0.46100  0.22860  0.62610  Biso   1.000  H
  H66      1.0000 0.53900  0.72860  0.87390  Biso   1.000  H
  H67      1.0000 0.53900  0.77140  0.37390  Biso   1.000  H
  H68      1.0000 0.46100  0.27140  0.12610  Biso   1.000  H
  C61      1.0000 0.42500  0.28021  0.71626  Biso   1.000  C
  C62      1.0000 0.57500  0.78021  0.78374  Biso   1.000  C
  C63      1.0000 0.57500  0.71979  0.28374  Biso   1.000  C
  C64      1.0000 0.42500  0.21979  0.21626  Biso   1.000  C
  C65      1.0000 0.42360  0.25549  0.78618  Biso   1.000  C
  C66      1.0000 0.57640  0.75549  0.71382  Biso   1.000  C
  C67      1.0000 0.57640  0.74451  0.21382  Biso   1.000  C
  C68      1.0000 0.42360  0.24451  0.28618  Biso   1.000  C
  H69      1.0000 0.38760  0.29700  0.81340  Biso   1.000  H
  H70      1.0000 0.61240  0.79700  0.68660  Biso   1.000  H
  H71      1.0000 0.61240  0.70300  0.18660  Biso   1.000  H
  H72      1.0000 0.38760  0.20300  0.31340  Biso   1.000  H
  C69      1.0000 0.47520  0.16992  0.81538  Biso   1.000  C
  C70      1.0000 0.52480  0.66992  0.68462  Biso   1.000  C
  C71      1.0000 0.52480  0.83008  0.18462  Biso   1.000  C
  C72      1.0000 0.47520  0.33008  0.31538  Biso   1.000  C
  C73      1.0000 0.53190  0.10785  0.77564  Biso   1.000  C
  C74      1.0000 0.46810  0.60785  0.72436  Biso   1.000  C
  C75      1.0000 0.46810  0.89215  0.22436  Biso   1.000  C
  C76      1.0000 0.53190  0.39215  0.27564  Biso   1.000  C
  H73      1.0000 0.57550  0.05230  0.79660  Biso   1.000  H
  H74      1.0000 0.42450  0.55230  0.70340  Biso   1.000  H
  H75      1.0000 0.42450  0.94770  0.20340  Biso   1.000  H
  H76      1.0000 0.57550  0.44770  0.29660  Biso   1.000  H
  C77      1.0000 0.46540  0.14428  0.88964  Biso   1.000  C
  C78      1.0000 0.53460  0.64428  0.61036  Biso   1.000  C
  C79      1.0000 0.53460  0.85572  0.11036  Biso   1.000  C
  C80      1.0000 0.46540  0.35572  0.38964  Biso   1.000  C
  O25      1.0000 0.99860  0.55700  0.73606  Biso   1.000  O
  O26      1.0000 0.00140  0.05700  0.76394  Biso   1.000  O
  O27      1.0000 0.00140  0.44300  0.26394  Biso   1.000  O
  O28      1.0000 0.99860  0.94300  0.23606  Biso   1.000  O
  H77      1.0000 0.99740  0.61420  0.73230  Biso   1.000  H
  H78      1.0000 0.00260  0.11420  0.76770  Biso   1.000  H
  H79      1.0000 0.00260  0.38580  0.26770  Biso   1.000  H
  H80      1.0000 0.99740  0.88580  0.23230  Biso   1.000  H
  H81      1.0000 0.09650  0.53210  0.75010  Biso   1.000  H
  H82      1.0000 0.90350  0.03210  0.74990  Biso   1.000  H
  H83      1.0000 0.90350  0.46790  0.24990  Biso   1.000  H
  H84      1.0000 0.09650  0.96790  0.25010  Biso   1.000  H
  O29      1.0000 0.00640  0.57618  0.58375  Biso   1.000  O
  O30      1.0000 0.99360  0.07618  0.91625  Biso   1.000  O
  O31      1.0000 0.99360  0.42382  0.41625  Biso   1.000  O
  O32      1.0000 0.00640  0.92382  0.08375  Biso   1.000  O
  H85      1.0000 0.02390  0.63200  0.59410  Biso   1.000  H
  H86      1.0000 0.97610  0.13200  0.90590  Biso   1.000  H
  H87      1.0000 0.97610  0.36800  0.40590  Biso   1.000  H
  H88      1.0000 0.02390  0.86800  0.09410  Biso   1.000  H
  H89      1.0000 0.99170  0.54370  0.61720  Biso   1.000  H
  H90      1.0000 0.00830  0.04370  0.88280  Biso   1.000  H
  H91      1.0000 0.00830  0.45630  0.38280  Biso   1.000  H
  H92      1.0000 0.99170  0.95630  0.11720  Biso   1.000  H
