data_image0
_cell_length_a       5.808
_cell_length_b       8.628
_cell_length_c       10.256
_cell_angle_alpha    81.77
_cell_angle_beta     75.25
_cell_angle_gamma    88.09

_symmetry_space_group_name_H-M    "P 1"
_symmetry_int_tables_number       1

loop_
  _symmetry_equiv_pos_as_xyz
  'x, y, z'

loop_
  _atom_site_label
  _atom_site_occupancy
  _atom_site_fract_x
  _atom_site_fract_y
  _atom_site_fract_z
  _atom_site_thermal_displace_type
  _atom_site_B_iso_or_equiv
  _atom_site_type_symbol
  Br1      1.0000 0.16327  0.45902  0.15335  Biso   1.000  Br
  Br2      1.0000 0.83673  0.54098  0.84665  Biso   1.000  Br
  Cu1      1.0000 0.78604  0.46960  0.43919  Biso   1.000  Cu
  Cu2      1.0000 0.21396  0.53040  0.56081  Biso   1.000  Cu
  N1       1.0000 0.75910  0.30698  0.31292  Biso   1.000  N
  N2       1.0000 0.24090  0.69302  0.68708  Biso   1.000  N
  N3       1.0000 0.02900  0.35290  0.52106  Biso   1.000  N
  N4       1.0000 0.97100  0.64710  0.47894  Biso   1.000  N
  N5       1.0000 0.01260  0.21930  0.57890  Biso   1.000  N
  N6       1.0000 0.98740  0.78070  0.42110  Biso   1.000  N
  N7       1.0000 0.00180  0.09350  0.63270  Biso   1.000  N
  N8       1.0000 0.99820  0.90650  0.36730  Biso   1.000  N
  N9       1.0000 0.53840  0.61261  0.37945  Biso   1.000  N
  N10      1.0000 0.46160  0.38739  0.62055  Biso   1.000  N
  N11      1.0000 0.54670  0.66387  0.26770  Biso   1.000  N
  N12      1.0000 0.45330  0.33613  0.73230  Biso   1.000  N
  N13      1.0000 0.54410  0.71960  0.16030  Biso   1.000  N
  N14      1.0000 0.45590  0.28040  0.83970  Biso   1.000  N
  C1       1.0000 0.91600  0.30830  0.19330  Biso   1.000  C
  C2       1.0000 0.08400  0.69170  0.80670  Biso   1.000  C
  C3       1.0000 0.90370  0.21190  0.09850  Biso   1.000  C
  C4       1.0000 0.09630  0.78810  0.90150  Biso   1.000  C
  C5       1.0000 0.71290  0.10360  0.12830  Biso   1.000  C
  C6       1.0000 0.28710  0.89640  0.87170  Biso   1.000  C
  C7       1.0000 0.55000  0.10010  0.25550  Biso   1.000  C
  C8       1.0000 0.45000  0.89990  0.74450  Biso   1.000  C
  C9       1.0000 0.57990  0.20010  0.34390  Biso   1.000  C
  C10      1.0000 0.42010  0.79990  0.65610  Biso   1.000  C
  H1       1.0000 0.03810  0.21880  0.00320  Biso   1.000  H
  H2       1.0000 0.96190  0.78120  0.99680  Biso   1.000  H
  H3       1.0000 0.69400  0.02790  0.05630  Biso   1.000  H
  H4       1.0000 0.30600  0.97210  0.94370  Biso   1.000  H
  H5       1.0000 0.40130  0.01960  0.28430  Biso   1.000  H
  H6       1.0000 0.59870  0.98040  0.71570  Biso   1.000  H
  H7       1.0000 0.45500  0.19250  0.44270  Biso   1.000  H
  H8       1.0000 0.54500  0.80750  0.55730  Biso   1.000  H
