data_image0
_cell_length_a       11.366
_cell_length_b       13.902
_cell_length_c       14.462
_cell_angle_alpha    90
_cell_angle_beta     109.34
_cell_angle_gamma    90

_symmetry_space_group_name_H-M    "P 1"
_symmetry_int_tables_number       1

loop_
  _symmetry_equiv_pos_as_xyz
  'x, y, z'

loop_
  _atom_site_label
  _atom_site_occupancy
  _atom_site_fract_x
  _atom_site_fract_y
  _atom_site_fract_z
  _atom_site_thermal_displace_type
  _atom_site_B_iso_or_equiv
  _atom_site_type_symbol
  Cu1      1.0000 0.50000  0.50000  0.50000  Biso   1.000  Cu
  Cu2      1.0000 0.00000  0.00000  0.00000  Biso   1.000  Cu
  Cu3      1.0000 0.48336  0.51169  0.11712  Biso   1.000  Cu
  Cu4      1.0000 0.01664  0.01169  0.38288  Biso   1.000  Cu
  Cu5      1.0000 0.51664  0.48831  0.88288  Biso   1.000  Cu
  Cu6      1.0000 0.98336  0.98831  0.61712  Biso   1.000  Cu
  N1       1.0000 0.54125  0.35933  0.52033  Biso   1.000  N
  N2       1.0000 0.95875  0.85933  0.97967  Biso   1.000  N
  N3       1.0000 0.45875  0.64067  0.47967  Biso   1.000  N
  N4       1.0000 0.04125  0.14067  0.02033  Biso   1.000  N
  N5       1.0000 0.42869  0.64785  0.08573  Biso   1.000  N
  N6       1.0000 0.07131  0.14785  0.41427  Biso   1.000  N
  N7       1.0000 0.57131  0.35215  0.91427  Biso   1.000  N
  N8       1.0000 0.92869  0.85215  0.58573  Biso   1.000  N
  N9       1.0000 0.53220  0.37345  0.15684  Biso   1.000  N
  N10      1.0000 0.96780  0.87345  0.34316  Biso   1.000  N
  N11      1.0000 0.46780  0.62655  0.84316  Biso   1.000  N
  N12      1.0000 0.03220  0.12655  0.65684  Biso   1.000  N
  N13      1.0000 0.35951  0.46540  0.38204  Biso   1.000  N
  N14      1.0000 0.14049  0.96540  0.11796  Biso   1.000  N
  N15      1.0000 0.64049  0.53460  0.61796  Biso   1.000  N
  N16      1.0000 0.85951  0.03460  0.88204  Biso   1.000  N
  N17      1.0000 0.34822  0.48569  0.29990  Biso   1.000  N
  N18      1.0000 0.15178  0.98569  0.20010  Biso   1.000  N
  N19      1.0000 0.65178  0.51431  0.70010  Biso   1.000  N
  N20      1.0000 0.84822  0.01431  0.79990  Biso   1.000  N
  N21      1.0000 0.33045  0.50196  0.21873  Biso   1.000  N
  N22      1.0000 0.16955  0.00196  0.28127  Biso   1.000  N
  N23      1.0000 0.66955  0.49804  0.78127  Biso   1.000  N
  N24      1.0000 0.83045  0.99804  0.71873  Biso   1.000  N
  N25      1.0000 0.64759  0.51129  0.39238  Biso   1.000  N
  N26      1.0000 0.85241  0.01129  0.10762  Biso   1.000  N
  N27      1.0000 0.35241  0.48871  0.60762  Biso   1.000  N
  N28      1.0000 0.14759  0.98871  0.89238  Biso   1.000  N
  N29      1.0000 0.63328  0.53231  0.31293  Biso   1.000  N
  N30      1.0000 0.86672  0.03231  0.18707  Biso   1.000  N
  N31      1.0000 0.36672  0.46769  0.68707  Biso   1.000  N
  N32      1.0000 0.13328  0.96769  0.81293  Biso   1.000  N
  N33      1.0000 0.62369  0.55893  0.23211  Biso   1.000  N
  N34      1.0000 0.87631  0.05893  0.26789  Biso   1.000  N
  N35      1.0000 0.37631  0.44107  0.76789  Biso   1.000  N
  N36      1.0000 0.12369  0.94107  0.73211  Biso   1.000  N
  N37      1.0000 0.36772  0.46510  0.99116  Biso   1.000  N
  N38      1.0000 0.13228  0.96510  0.50884  Biso   1.000  N
  N39      1.0000 0.63228  0.53490  0.00884  Biso   1.000  N
  N40      1.0000 0.86772  0.03490  0.49116  Biso   1.000  N
  N41      1.0000 0.26190  0.48626  0.95036  Biso   1.000  N
  N42      1.0000 0.23810  0.98626  0.54964  Biso   1.000  N
  N43      1.0000 0.73810  0.51374  0.04964  Biso   1.000  N
  N44      1.0000 0.76190  0.01374  0.45036  Biso   1.000  N
  N45      1.0000 0.16276  0.50380  0.90489  Biso   1.000  N
  N46      1.0000 0.33724  0.00380  0.59511  Biso   1.000  N
  N47      1.0000 0.83724  0.49620  0.09511  Biso   1.000  N
  N48      1.0000 0.66276  0.99620  0.40489  Biso   1.000  N
  C1       1.0000 0.54283  0.31389  0.60045  Biso   1.000  C
  C2       1.0000 0.95717  0.81389  0.89955  Biso   1.000  C
  C3       1.0000 0.45717  0.68611  0.39955  Biso   1.000  C
  C4       1.0000 0.04283  0.18611  0.10045  Biso   1.000  C
  C5       1.0000 0.56241  0.21559  0.61603  Biso   1.000  C
  C6       1.0000 0.93759  0.71559  0.88397  Biso   1.000  C
  C7       1.0000 0.43759  0.78441  0.38397  Biso   1.000  C
  C8       1.0000 0.06241  0.28441  0.11603  Biso   1.000  C
  C9       1.0000 0.58210  0.16459  0.54400  Biso   1.000  C
  C10      1.0000 0.91790  0.66459  0.95600  Biso   1.000  C
  C11      1.0000 0.41790  0.83541  0.45600  Biso   1.000  C
  C12      1.0000 0.08210  0.33541  0.04400  Biso   1.000  C
  C13      1.0000 0.58210  0.20896  0.45949  Biso   1.000  C
  C14      1.0000 0.91790  0.70896  0.04051  Biso   1.000  C
  C15      1.0000 0.41790  0.79104  0.54051  Biso   1.000  C
  C16      1.0000 0.08210  0.29104  0.95949  Biso   1.000  C
  C17      1.0000 0.56228  0.30921  0.44909  Biso   1.000  C
  C18      1.0000 0.93772  0.80921  0.05091  Biso   1.000  C
  C19      1.0000 0.43772  0.69079  0.55091  Biso   1.000  C
  C20      1.0000 0.06228  0.19079  0.94909  Biso   1.000  C
  C21      1.0000 0.56030  0.16816  0.70921  Biso   1.000  C
  C22      1.0000 0.93970  0.66816  0.79079  Biso   1.000  C
  C23      1.0000 0.43970  0.83184  0.29079  Biso   1.000  C
  C24      1.0000 0.06030  0.33184  0.20921  Biso   1.000  C
  C25      1.0000 0.51231  0.71330  0.08050  Biso   1.000  C
  C26      1.0000 0.98769  0.21330  0.41950  Biso   1.000  C
  C27      1.0000 0.48769  0.28670  0.91950  Biso   1.000  C
  C28      1.0000 0.01231  0.78670  0.58050  Biso   1.000  C
  C29      1.0000 0.48658  0.80947  0.05961  Biso   1.000  C
  C30      1.0000 0.01342  0.30947  0.44039  Biso   1.000  C
  C31      1.0000 0.51342  0.19053  0.94039  Biso   1.000  C
  C32      1.0000 0.98658  0.69053  0.55961  Biso   1.000  C
  C33      1.0000 0.36226  0.83646  0.04316  Biso   1.000  C
  C34      1.0000 0.13774  0.33646  0.45684  Biso   1.000  C
  C35      1.0000 0.63774  0.16354  0.95684  Biso   1.000  C
  C36      1.0000 0.86226  0.66354  0.54316  Biso   1.000  C
  C37      1.0000 0.27619  0.77010  0.04676  Biso   1.000  C
  C38      1.0000 0.22381  0.27010  0.45324  Biso   1.000  C
  C39      1.0000 0.72381  0.22990  0.95324  Biso   1.000  C
  C40      1.0000 0.77619  0.72990  0.54676  Biso   1.000  C
  C41      1.0000 0.31255  0.67673  0.06826  Biso   1.000  C
  C42      1.0000 0.18745  0.17673  0.43174  Biso   1.000  C
  C43      1.0000 0.68745  0.32327  0.93174  Biso   1.000  C
  C44      1.0000 0.81255  0.82327  0.56826  Biso   1.000  C
  C45      1.0000 0.58758  0.87874  0.05985  Biso   1.000  C
  C46      1.0000 0.91242  0.37874  0.44015  Biso   1.000  C
  C47      1.0000 0.41242  0.12126  0.94015  Biso   1.000  C
  C48      1.0000 0.08758  0.62126  0.55985  Biso   1.000  C
  C49      1.0000 0.44857  0.30909  0.16292  Biso   1.000  C
  C50      1.0000 0.05143  0.80909  0.33708  Biso   1.000  C
  C51      1.0000 0.55143  0.69091  0.83708  Biso   1.000  C
  C52      1.0000 0.94857  0.19091  0.66292  Biso   1.000  C
  C53      1.0000 0.47593  0.21455  0.19179  Biso   1.000  C
  C54      1.0000 0.02407  0.71455  0.30821  Biso   1.000  C
  C55      1.0000 0.52407  0.78545  0.80821  Biso   1.000  C
  C56      1.0000 0.97593  0.28545  0.69179  Biso   1.000  C
  C57      1.0000 0.60054  0.18649  0.21026  Biso   1.000  C
  C58      1.0000 0.89946  0.68649  0.28974  Biso   1.000  C
  C59      1.0000 0.39946  0.81351  0.78974  Biso   1.000  C
  C60      1.0000 0.10054  0.31351  0.71026  Biso   1.000  C
  C61      1.0000 0.68686  0.25171  0.20385  Biso   1.000  C
  C62      1.0000 0.81314  0.75171  0.29615  Biso   1.000  C
  C63      1.0000 0.31314  0.74829  0.79615  Biso   1.000  C
  C64      1.0000 0.18686  0.24829  0.70385  Biso   1.000  C
  C65      1.0000 0.65206  0.34505  0.17751  Biso   1.000  C
  C66      1.0000 0.84794  0.84505  0.32249  Biso   1.000  C
  C67      1.0000 0.34794  0.65495  0.82249  Biso   1.000  C
  C68      1.0000 0.15206  0.15495  0.67751  Biso   1.000  C
  C69      1.0000 0.38155  0.14546  0.19680  Biso   1.000  C
  C70      1.0000 0.11845  0.64546  0.30320  Biso   1.000  C
  C71      1.0000 0.61845  0.85454  0.80320  Biso   1.000  C
  C72      1.0000 0.88155  0.35454  0.69680  Biso   1.000  C
  H1       1.0000 0.52937  0.35623  0.65876  Biso   1.000  H
  H2       1.0000 0.97063  0.85623  0.84124  Biso   1.000  H
  H3       1.0000 0.47063  0.64377  0.34124  Biso   1.000  H
  H4       1.0000 0.02937  0.14377  0.15876  Biso   1.000  H
  H5       1.0000 0.59704  0.08795  0.55302  Biso   1.000  H
  H6       1.0000 0.90296  0.58795  0.94698  Biso   1.000  H
  H7       1.0000 0.40296  0.91205  0.44698  Biso   1.000  H
  H8       1.0000 0.09704  0.41205  0.05302  Biso   1.000  H
  H9       1.0000 0.59750  0.16670  0.40189  Biso   1.000  H
  H10      1.0000 0.90250  0.66670  0.09811  Biso   1.000  H
  H11      1.0000 0.40250  0.83330  0.59811  Biso   1.000  H
  H12      1.0000 0.09750  0.33330  0.90189  Biso   1.000  H
  H13      1.0000 0.56226  0.34505  0.38283  Biso   1.000  H
  H14      1.0000 0.93774  0.84505  0.11717  Biso   1.000  H
  H15      1.0000 0.43774  0.65495  0.61717  Biso   1.000  H
  H16      1.0000 0.06226  0.15495  0.88283  Biso   1.000  H
  H17      1.0000 0.54390  0.22263  0.75679  Biso   1.000  H
  H18      1.0000 0.95610  0.72263  0.74321  Biso   1.000  H
  H19      1.0000 0.45610  0.77737  0.24321  Biso   1.000  H
  H20      1.0000 0.04390  0.27737  0.25679  Biso   1.000  H
  H21      1.0000 0.64930  0.13428  0.74490  Biso   1.000  H
  H22      1.0000 0.85070  0.63428  0.75510  Biso   1.000  H
  H23      1.0000 0.35070  0.86572  0.25510  Biso   1.000  H
  H24      1.0000 0.14930  0.36572  0.24490  Biso   1.000  H
  H25      1.0000 0.48730  0.11474  0.69356  Biso   1.000  H
  H26      1.0000 0.01270  0.61474  0.80644  Biso   1.000  H
  H27      1.0000 0.51270  0.88526  0.30644  Biso   1.000  H
  H28      1.0000 0.98730  0.38526  0.19356  Biso   1.000  H
  H29      1.0000 0.60767  0.68994  0.09680  Biso   1.000  H
  H30      1.0000 0.89233  0.18994  0.40320  Biso   1.000  H
  H31      1.0000 0.39233  0.31006  0.90320  Biso   1.000  H
  H32      1.0000 0.10767  0.81006  0.59680  Biso   1.000  H
  H33      1.0000 0.33478  0.91079  0.02853  Biso   1.000  H
  H34      1.0000 0.16522  0.41079  0.47147  Biso   1.000  H
  H35      1.0000 0.66522  0.08921  0.97147  Biso   1.000  H
  H36      1.0000 0.83478  0.58921  0.52853  Biso   1.000  H
  H37      1.0000 0.17975  0.79071  0.03005  Biso   1.000  H
  H38      1.0000 0.32025  0.29071  0.46995  Biso   1.000  H
  H39      1.0000 0.82025  0.20929  0.96995  Biso   1.000  H
  H40      1.0000 0.67975  0.70929  0.53005  Biso   1.000  H
  H41      1.0000 0.24352  0.62489  0.07203  Biso   1.000  H
  H42      1.0000 0.25648  0.12489  0.42797  Biso   1.000  H
  H43      1.0000 0.75648  0.37511  0.92797  Biso   1.000  H
  H44      1.0000 0.74352  0.87511  0.57203  Biso   1.000  H
  H45      1.0000 0.55143  0.95056  0.04085  Biso   1.000  H
  H46      1.0000 0.94857  0.45056  0.45915  Biso   1.000  H
  H47      1.0000 0.44857  0.04944  0.95915  Biso   1.000  H
  H48      1.0000 0.05143  0.54944  0.54085  Biso   1.000  H
  H49      1.0000 0.62607  0.85296  0.00546  Biso   1.000  H
  H50      1.0000 0.87393  0.35296  0.49454  Biso   1.000  H
  H51      1.0000 0.37393  0.14704  0.99454  Biso   1.000  H
  H52      1.0000 0.12607  0.64704  0.50546  Biso   1.000  H
  H53      1.0000 0.65965  0.87985  0.13075  Biso   1.000  H
  H54      1.0000 0.84035  0.37985  0.36925  Biso   1.000  H
  H55      1.0000 0.34035  0.12015  0.86925  Biso   1.000  H
  H56      1.0000 0.15965  0.62015  0.63075  Biso   1.000  H
  H57      1.0000 0.35251  0.33215  0.14129  Biso   1.000  H
  H58      1.0000 0.14749  0.83215  0.35871  Biso   1.000  H
  H59      1.0000 0.64749  0.66785  0.85871  Biso   1.000  H
  H60      1.0000 0.85251  0.16785  0.64129  Biso   1.000  H
  H61      1.0000 0.62802  0.11289  0.22992  Biso   1.000  H
  H62      1.0000 0.87198  0.61289  0.27008  Biso   1.000  H
  H63      1.0000 0.37198  0.88711  0.77008  Biso   1.000  H
  H64      1.0000 0.12802  0.38711  0.72992  Biso   1.000  H
  H65      1.0000 0.78277  0.23008  0.21956  Biso   1.000  H
  H66      1.0000 0.71723  0.73008  0.28044  Biso   1.000  H
  H67      1.0000 0.21723  0.76992  0.78044  Biso   1.000  H
  H68      1.0000 0.28277  0.26992  0.71956  Biso   1.000  H
  H69      1.0000 0.72090  0.39738  0.17444  Biso   1.000  H
  H70      1.0000 0.77910  0.89738  0.32556  Biso   1.000  H
  H71      1.0000 0.27910  0.60262  0.82556  Biso   1.000  H
  H72      1.0000 0.22090  0.10262  0.67444  Biso   1.000  H
  H73      1.0000 0.42442  0.07696  0.22320  Biso   1.000  H
  H74      1.0000 0.07558  0.57696  0.27680  Biso   1.000  H
  H75      1.0000 0.57558  0.92304  0.77680  Biso   1.000  H
  H76      1.0000 0.92442  0.42304  0.72320  Biso   1.000  H
  H77      1.0000 0.31388  0.13652  0.12460  Biso   1.000  H
  H78      1.0000 0.18612  0.63652  0.37540  Biso   1.000  H
  H79      1.0000 0.68612  0.86348  0.87540  Biso   1.000  H
  H80      1.0000 0.81388  0.36348  0.62460  Biso   1.000  H
  H81      1.0000 0.33566  0.17241  0.24610  Biso   1.000  H
  H82      1.0000 0.16434  0.67241  0.25390  Biso   1.000  H
  H83      1.0000 0.66434  0.82759  0.75390  Biso   1.000  H
  H84      1.0000 0.83566  0.32759  0.74610  Biso   1.000  H
