data_image0
_cell_length_a       7.5094
_cell_length_b       6.5131
_cell_length_c       33.081
_cell_angle_alpha    90
_cell_angle_beta     90
_cell_angle_gamma    90

_symmetry_space_group_name_H-M    "P 1"
_symmetry_int_tables_number       1

loop_
  _symmetry_equiv_pos_as_xyz
  'x, y, z'

loop_
  _atom_site_label
  _atom_site_occupancy
  _atom_site_fract_x
  _atom_site_fract_y
  _atom_site_fract_z
  _atom_site_thermal_displace_type
  _atom_site_B_iso_or_equiv
  _atom_site_type_symbol
  Cu1      1.0000 0.00000  0.00000  0.00000  Biso   1.000  Cu
  Cu2      1.0000 0.50000  0.00000  0.50000  Biso   1.000  Cu
  Cu3      1.0000 0.50000  0.50000  0.00000  Biso   1.000  Cu
  Cu4      1.0000 0.00000  0.50000  0.50000  Biso   1.000  Cu
  N1       1.0000 0.10010  0.25050  0.02218  Biso   1.000  N
  N2       1.0000 0.39990  0.74950  0.52218  Biso   1.000  N
  N3       1.0000 0.60010  0.24950  0.97782  Biso   1.000  N
  N4       1.0000 0.89990  0.75050  0.47782  Biso   1.000  N
  N5       1.0000 0.89990  0.74950  0.97782  Biso   1.000  N
  N6       1.0000 0.60010  0.25050  0.47782  Biso   1.000  N
  N7       1.0000 0.39990  0.75050  0.02218  Biso   1.000  N
  N8       1.0000 0.10010  0.24950  0.52218  Biso   1.000  N
  O1       1.0000 0.95530  0.89230  0.05288  Biso   1.000  O
  O2       1.0000 0.54470  0.10770  0.55288  Biso   1.000  O
  O3       1.0000 0.45530  0.60770  0.94712  Biso   1.000  O
  O4       1.0000 0.04470  0.39230  0.44712  Biso   1.000  O
  O5       1.0000 0.04470  0.10770  0.94712  Biso   1.000  O
  O6       1.0000 0.45530  0.89230  0.44712  Biso   1.000  O
  O7       1.0000 0.54470  0.39230  0.05288  Biso   1.000  O
  O8       1.0000 0.95530  0.60770  0.55288  Biso   1.000  O
  O9       1.0000 0.00040  0.24990  0.20378  Biso   1.000  O
  O10      1.0000 0.49960  0.75010  0.70378  Biso   1.000  O
  O11      1.0000 0.50040  0.25010  0.79622  Biso   1.000  O
  O12      1.0000 0.99960  0.74990  0.29622  Biso   1.000  O
  O13      1.0000 0.99960  0.75010  0.79622  Biso   1.000  O
  O14      1.0000 0.50040  0.24990  0.29622  Biso   1.000  O
  O15      1.0000 0.49960  0.74990  0.20378  Biso   1.000  O
  O16      1.0000 0.00040  0.25010  0.70378  Biso   1.000  O
  O17      1.0000 0.17390  0.38690  0.99439  Biso   1.000  O
  O18      1.0000 0.32610  0.61310  0.49439  Biso   1.000  O
  O19      1.0000 0.67390  0.11310  0.00561  Biso   1.000  O
  O20      1.0000 0.82610  0.88690  0.50561  Biso   1.000  O
  O21      1.0000 0.82610  0.61310  0.00561  Biso   1.000  O
  O22      1.0000 0.67390  0.38690  0.50561  Biso   1.000  O
  O23      1.0000 0.32610  0.88690  0.99439  Biso   1.000  O
  O24      1.0000 0.17390  0.11310  0.49439  Biso   1.000  O
  H1       1.0000 0.15620  0.34460  0.97140  Biso   1.000  H
  H2       1.0000 0.34380  0.65540  0.47140  Biso   1.000  H
  H3       1.0000 0.65620  0.15540  0.02860  Biso   1.000  H
  H4       1.0000 0.84380  0.84460  0.52860  Biso   1.000  H
  H5       1.0000 0.84380  0.65540  0.02860  Biso   1.000  H
  H6       1.0000 0.65620  0.34460  0.52860  Biso   1.000  H
  H7       1.0000 0.34380  0.84460  0.97140  Biso   1.000  H
  H8       1.0000 0.15620  0.15540  0.47140  Biso   1.000  H
  C1       1.0000 0.04220  0.18790  0.09247  Biso   1.000  C
  C2       1.0000 0.45780  0.81210  0.59247  Biso   1.000  C
  C3       1.0000 0.54220  0.31210  0.90753  Biso   1.000  C
  C4       1.0000 0.95780  0.68790  0.40753  Biso   1.000  C
  C5       1.0000 0.95780  0.81210  0.90753  Biso   1.000  C
  C6       1.0000 0.54220  0.18790  0.40753  Biso   1.000  C
  C7       1.0000 0.45780  0.68790  0.09247  Biso   1.000  C
  C8       1.0000 0.04220  0.31210  0.59247  Biso   1.000  C
  C9       1.0000 0.96970  0.98980  0.08801  Biso   1.000  C
  C10      1.0000 0.53030  0.01020  0.58801  Biso   1.000  C
  C11      1.0000 0.46970  0.51020  0.91199  Biso   1.000  C
  C12      1.0000 0.03030  0.48980  0.41199  Biso   1.000  C
  C13      1.0000 0.03030  0.01020  0.91199  Biso   1.000  C
  C14      1.0000 0.46970  0.98980  0.41199  Biso   1.000  C
  C15      1.0000 0.53030  0.48980  0.08801  Biso   1.000  C
  C16      1.0000 0.96970  0.51020  0.58801  Biso   1.000  C
  C17      1.0000 0.90760  0.89040  0.12300  Biso   1.000  C
  C18      1.0000 0.59240  0.10960  0.62300  Biso   1.000  C
  C19      1.0000 0.40760  0.60960  0.87700  Biso   1.000  C
  C20      1.0000 0.09240  0.39040  0.37700  Biso   1.000  C
  C21      1.0000 0.09240  0.10960  0.87700  Biso   1.000  C
  C22      1.0000 0.40760  0.89040  0.37700  Biso   1.000  C
  C23      1.0000 0.59240  0.39040  0.12300  Biso   1.000  C
  C24      1.0000 0.90760  0.60960  0.62300  Biso   1.000  C
  H9       1.0000 0.85630  0.76090  0.12070  Biso   1.000  H
  H10      1.0000 0.64370  0.23910  0.62070  Biso   1.000  H
  H11      1.0000 0.35630  0.73910  0.87930  Biso   1.000  H
  H12      1.0000 0.14370  0.26090  0.37930  Biso   1.000  H
  H13      1.0000 0.14370  0.23910  0.87930  Biso   1.000  H
  H14      1.0000 0.35630  0.76090  0.37930  Biso   1.000  H
  H15      1.0000 0.64370  0.26090  0.12070  Biso   1.000  H
  H16      1.0000 0.85630  0.73910  0.62070  Biso   1.000  H
  C25      1.0000 0.92090  0.97970  0.16029  Biso   1.000  C
  C26      1.0000 0.57910  0.02030  0.66029  Biso   1.000  C
  C27      1.0000 0.42090  0.52030  0.83971  Biso   1.000  C
  C28      1.0000 0.07910  0.47970  0.33971  Biso   1.000  C
  C29      1.0000 0.07910  0.02030  0.83971  Biso   1.000  C
  C30      1.0000 0.42090  0.97970  0.33971  Biso   1.000  C
  C31      1.0000 0.57910  0.47970  0.16029  Biso   1.000  C
  C32      1.0000 0.92090  0.52030  0.66029  Biso   1.000  C
  H17      1.0000 0.87850  0.91050  0.18290  Biso   1.000  H
  H18      1.0000 0.62150  0.08950  0.68290  Biso   1.000  H
  H19      1.0000 0.37850  0.58950  0.81710  Biso   1.000  H
  H20      1.0000 0.12150  0.41050  0.31710  Biso   1.000  H
  H21      1.0000 0.12150  0.08950  0.81710  Biso   1.000  H
  H22      1.0000 0.37850  0.91050  0.31710  Biso   1.000  H
  H23      1.0000 0.62150  0.41050  0.18290  Biso   1.000  H
  H24      1.0000 0.87850  0.58950  0.68290  Biso   1.000  H
  C33      1.0000 0.99810  0.17540  0.16470  Biso   1.000  C
  C34      1.0000 0.50190  0.82460  0.66470  Biso   1.000  C
  C35      1.0000 0.49810  0.32460  0.83530  Biso   1.000  C
  C36      1.0000 0.00190  0.67540  0.33530  Biso   1.000  C
  C37      1.0000 0.00190  0.82460  0.83530  Biso   1.000  C
  C38      1.0000 0.49810  0.17540  0.33530  Biso   1.000  C
  C39      1.0000 0.50190  0.67540  0.16470  Biso   1.000  C
  C40      1.0000 0.99810  0.32460  0.66470  Biso   1.000  C
  C41      1.0000 0.05870  0.27610  0.13115  Biso   1.000  C
  C42      1.0000 0.44130  0.72390  0.63115  Biso   1.000  C
  C43      1.0000 0.55870  0.22390  0.86885  Biso   1.000  C
  C44      1.0000 0.94130  0.77610  0.36885  Biso   1.000  C
  C45      1.0000 0.94130  0.72390  0.86885  Biso   1.000  C
  C46      1.0000 0.55870  0.27610  0.36885  Biso   1.000  C
  C47      1.0000 0.44130  0.77610  0.13115  Biso   1.000  C
  C48      1.0000 0.05870  0.22390  0.63115  Biso   1.000  C
  H25      1.0000 0.11140  0.40460  0.13390  Biso   1.000  H
  H26      1.0000 0.38860  0.59540  0.63390  Biso   1.000  H
  H27      1.0000 0.61140  0.09540  0.86610  Biso   1.000  H
  H28      1.0000 0.88860  0.90460  0.36610  Biso   1.000  H
  H29      1.0000 0.88860  0.59540  0.86610  Biso   1.000  H
  H30      1.0000 0.61140  0.40460  0.36610  Biso   1.000  H
  H31      1.0000 0.38860  0.90460  0.13390  Biso   1.000  H
  H32      1.0000 0.11140  0.09540  0.63390  Biso   1.000  H
  C49      1.0000 0.10860  0.30860  0.05895  Biso   1.000  C
  C50      1.0000 0.39140  0.69140  0.55895  Biso   1.000  C
  C51      1.0000 0.60860  0.19140  0.94105  Biso   1.000  C
  C52      1.0000 0.89140  0.80860  0.44105  Biso   1.000  C
  C53      1.0000 0.89140  0.69140  0.94105  Biso   1.000  C
  C54      1.0000 0.60860  0.30860  0.44105  Biso   1.000  C
  C55      1.0000 0.39140  0.80860  0.05895  Biso   1.000  C
  C56      1.0000 0.10860  0.19140  0.55895  Biso   1.000  C
  H33      1.0000 0.16020  0.43520  0.06450  Biso   1.000  H
  H34      1.0000 0.33980  0.56480  0.56450  Biso   1.000  H
  H35      1.0000 0.66020  0.06480  0.93550  Biso   1.000  H
  H36      1.0000 0.83980  0.93520  0.43550  Biso   1.000  H
  H37      1.0000 0.83980  0.56480  0.93550  Biso   1.000  H
  H38      1.0000 0.66020  0.43520  0.43550  Biso   1.000  H
  H39      1.0000 0.33980  0.93520  0.06450  Biso   1.000  H
  H40      1.0000 0.16020  0.06480  0.56450  Biso   1.000  H
  C57      1.0000 0.08160  0.44220  0.20990  Biso   1.000  C
  C58      1.0000 0.41840  0.55780  0.70990  Biso   1.000  C
  C59      1.0000 0.58160  0.05780  0.79010  Biso   1.000  C
  C60      1.0000 0.91840  0.94220  0.29010  Biso   1.000  C
  C61      1.0000 0.91840  0.55780  0.79010  Biso   1.000  C
  C62      1.0000 0.58160  0.44220  0.29010  Biso   1.000  C
  C63      1.0000 0.41840  0.94220  0.20990  Biso   1.000  C
  C64      1.0000 0.08160  0.05780  0.70990  Biso   1.000  C
  H41      1.0000 0.20440  0.43490  0.20200  Biso   1.000  H
  H42      1.0000 0.29560  0.56510  0.70200  Biso   1.000  H
  H43      1.0000 0.70440  0.06510  0.79800  Biso   1.000  H
  H44      1.0000 0.79560  0.93490  0.29800  Biso   1.000  H
  H45      1.0000 0.79560  0.56510  0.79800  Biso   1.000  H
  H46      1.0000 0.70440  0.43490  0.29800  Biso   1.000  H
  H47      1.0000 0.29560  0.93490  0.20200  Biso   1.000  H
  H48      1.0000 0.20440  0.06510  0.70200  Biso   1.000  H
  H49      1.0000 0.07390  0.47860  0.23800  Biso   1.000  H
  H50      1.0000 0.42610  0.52140  0.73800  Biso   1.000  H
  H51      1.0000 0.57390  0.02140  0.76200  Biso   1.000  H
  H52      1.0000 0.92610  0.97860  0.26200  Biso   1.000  H
  H53      1.0000 0.92610  0.52140  0.76200  Biso   1.000  H
  H54      1.0000 0.57390  0.47860  0.26200  Biso   1.000  H
  H55      1.0000 0.42610  0.97860  0.23800  Biso   1.000  H
  H56      1.0000 0.07390  0.02140  0.73800  Biso   1.000  H
  H57      1.0000 0.02180  0.54410  0.19390  Biso   1.000  H
  H58      1.0000 0.47820  0.45590  0.69390  Biso   1.000  H
  H59      1.0000 0.52180  0.95590  0.80610  Biso   1.000  H
  H60      1.0000 0.97820  0.04410  0.30610  Biso   1.000  H
  H61      1.0000 0.97820  0.45590  0.80610  Biso   1.000  H
  H62      1.0000 0.52180  0.54410  0.30610  Biso   1.000  H
  H63      1.0000 0.47820  0.04410  0.19390  Biso   1.000  H
  H64      1.0000 0.02180  0.95590  0.69390  Biso   1.000  H
