data_image0
_cell_length_a       7.2703
_cell_length_b       14.6512
_cell_length_c       13.8246
_cell_angle_alpha    90
_cell_angle_beta     90
_cell_angle_gamma    90

_symmetry_space_group_name_H-M    "P 1"
_symmetry_int_tables_number       1

loop_
  _symmetry_equiv_pos_as_xyz
  'x, y, z'

loop_
  _atom_site_label
  _atom_site_occupancy
  _atom_site_fract_x
  _atom_site_fract_y
  _atom_site_fract_z
  _atom_site_thermal_displace_type
  _atom_site_B_iso_or_equiv
  _atom_site_type_symbol
  Co1      1.0000 0.77574  0.75000  0.50000  Biso   1.000  Co
  Co2      1.0000 0.22426  0.25000  0.00000  Biso   1.000  Co
  Co3      1.0000 0.22426  0.25000  0.50000  Biso   1.000  Co
  Co4      1.0000 0.77574  0.75000  0.00000  Biso   1.000  Co
  Cu1      1.0000 0.27248  0.80801  0.25000  Biso   1.000  Cu
  Cu2      1.0000 0.72752  0.19199  0.75000  Biso   1.000  Cu
  Cu3      1.0000 0.27248  0.69199  0.75000  Biso   1.000  Cu
  Cu4      1.0000 0.72752  0.30801  0.25000  Biso   1.000  Cu
  N1       1.0000 0.47780  0.80273  0.35675  Biso   1.000  N
  N2       1.0000 0.52220  0.19727  0.85675  Biso   1.000  N
  N3       1.0000 0.47780  0.69727  0.64325  Biso   1.000  N
  N4       1.0000 0.52220  0.30273  0.14325  Biso   1.000  N
  N5       1.0000 0.52220  0.19727  0.64325  Biso   1.000  N
  N6       1.0000 0.47780  0.80273  0.14325  Biso   1.000  N
  N7       1.0000 0.52220  0.30273  0.35675  Biso   1.000  N
  N8       1.0000 0.47780  0.69727  0.85675  Biso   1.000  N
  O1       1.0000 0.31610  0.95230  0.25000  Biso   1.000  O
  O2       1.0000 0.68390  0.04770  0.75000  Biso   1.000  O
  O3       1.0000 0.31610  0.54770  0.75000  Biso   1.000  O
  O4       1.0000 0.68390  0.45230  0.25000  Biso   1.000  O
  H1       1.0000 0.28870  0.97670  0.30670  Biso   1.000  H
  H2       1.0000 0.71130  0.02330  0.80670  Biso   1.000  H
  H3       1.0000 0.28870  0.52330  0.69330  Biso   1.000  H
  H4       1.0000 0.71130  0.47670  0.19330  Biso   1.000  H
  H5       1.0000 0.71130  0.02330  0.69330  Biso   1.000  H
  H6       1.0000 0.28870  0.97670  0.19330  Biso   1.000  H
  H7       1.0000 0.71130  0.47670  0.30670  Biso   1.000  H
  H8       1.0000 0.28870  0.52330  0.80670  Biso   1.000  H
  N9       1.0000 0.22250  0.65720  0.25000  Biso   1.000  N
  N10      1.0000 0.77750  0.34280  0.75000  Biso   1.000  N
  N11      1.0000 0.22250  0.84280  0.75000  Biso   1.000  N
  N12      1.0000 0.77750  0.15720  0.25000  Biso   1.000  N
  H9       1.0000 0.09800  0.65100  0.25000  Biso   1.000  H
  H10      1.0000 0.90200  0.34900  0.75000  Biso   1.000  H
  H11      1.0000 0.09800  0.84900  0.75000  Biso   1.000  H
  H12      1.0000 0.90200  0.15100  0.25000  Biso   1.000  H
  N13      1.0000 0.06620  0.81306  0.35690  Biso   1.000  N
  N14      1.0000 0.93380  0.18694  0.85690  Biso   1.000  N
  N15      1.0000 0.06620  0.68694  0.64310  Biso   1.000  N
  N16      1.0000 0.93380  0.31306  0.14310  Biso   1.000  N
  N17      1.0000 0.93380  0.18694  0.64310  Biso   1.000  N
  N18      1.0000 0.06620  0.81306  0.14310  Biso   1.000  N
  N19      1.0000 0.93380  0.31306  0.35690  Biso   1.000  N
  N20      1.0000 0.06620  0.68694  0.85690  Biso   1.000  N
  N21      1.0000 0.28760  0.46020  0.25000  Biso   1.000  N
  N22      1.0000 0.71240  0.53980  0.75000  Biso   1.000  N
  N23      1.0000 0.28760  0.03980  0.75000  Biso   1.000  N
  N24      1.0000 0.71240  0.96020  0.25000  Biso   1.000  N
  H13      1.0000 0.41110  0.45600  0.25000  Biso   1.000  H
  H14      1.0000 0.58890  0.54400  0.75000  Biso   1.000  H
  H15      1.0000 0.41110  0.04400  0.75000  Biso   1.000  H
  H16      1.0000 0.58890  0.95600  0.25000  Biso   1.000  H
  H17      1.0000 0.24160  0.40310  0.25000  Biso   1.000  H
  H18      1.0000 0.75840  0.59690  0.75000  Biso   1.000  H
  H19      1.0000 0.24160  0.09690  0.75000  Biso   1.000  H
  H20      1.0000 0.75840  0.90310  0.25000  Biso   1.000  H
  N25      1.0000 0.77770  0.93560  0.59950  Biso   1.000  N
  N26      1.0000 0.22230  0.06440  0.09950  Biso   1.000  N
  N27      1.0000 0.77770  0.56440  0.40050  Biso   1.000  N
  N28      1.0000 0.22230  0.43560  0.90050  Biso   1.000  N
  N29      1.0000 0.22230  0.06440  0.40050  Biso   1.000  N
  N30      1.0000 0.77770  0.93560  0.90050  Biso   1.000  N
  N31      1.0000 0.22230  0.43560  0.59950  Biso   1.000  N
  N32      1.0000 0.77770  0.56440  0.09950  Biso   1.000  N
  C1       1.0000 0.77750  0.86620  0.56100  Biso   1.000  C
  C2       1.0000 0.22250  0.13380  0.06100  Biso   1.000  C
  C3       1.0000 0.77750  0.63380  0.43900  Biso   1.000  C
  C4       1.0000 0.22250  0.36620  0.93900  Biso   1.000  C
  C5       1.0000 0.22250  0.13380  0.43900  Biso   1.000  C
  C6       1.0000 0.77750  0.86620  0.93900  Biso   1.000  C
  C7       1.0000 0.22250  0.36620  0.56100  Biso   1.000  C
  C8       1.0000 0.77750  0.63380  0.06100  Biso   1.000  C
  C9       1.0000 0.59030  0.78631  0.41200  Biso   1.000  C
  C10      1.0000 0.40970  0.21369  0.91200  Biso   1.000  C
  C11      1.0000 0.59030  0.71369  0.58800  Biso   1.000  C
  C12      1.0000 0.40970  0.28631  0.08800  Biso   1.000  C
  C13      1.0000 0.40970  0.21369  0.58800  Biso   1.000  C
  C14      1.0000 0.59030  0.78631  0.08800  Biso   1.000  C
  C15      1.0000 0.40970  0.28631  0.41200  Biso   1.000  C
  C16      1.0000 0.59030  0.71369  0.91200  Biso   1.000  C
  C17      1.0000 0.22620  0.50870  0.33940  Biso   1.000  C
  C18      1.0000 0.77380  0.49130  0.83940  Biso   1.000  C
  C19      1.0000 0.22620  0.99130  0.66060  Biso   1.000  C
  C20      1.0000 0.77380  0.00870  0.16060  Biso   1.000  C
  C21      1.0000 0.77380  0.49130  0.66060  Biso   1.000  C
  C22      1.0000 0.22620  0.50870  0.16060  Biso   1.000  C
  C23      1.0000 0.77380  0.00870  0.33940  Biso   1.000  C
  C24      1.0000 0.22620  0.99130  0.83940  Biso   1.000  C
  H21      1.0000 0.27870  0.47900  0.39580  Biso   1.000  H
  H22      1.0000 0.72130  0.52100  0.89580  Biso   1.000  H
  H23      1.0000 0.27870  0.02100  0.60420  Biso   1.000  H
  H24      1.0000 0.72130  0.97900  0.10420  Biso   1.000  H
  H25      1.0000 0.72130  0.52100  0.60420  Biso   1.000  H
  H26      1.0000 0.27870  0.47900  0.10420  Biso   1.000  H
  H27      1.0000 0.72130  0.97900  0.39580  Biso   1.000  H
  H28      1.0000 0.27870  0.02100  0.89580  Biso   1.000  H
  H29      1.0000 0.09330  0.50530  0.34460  Biso   1.000  H
  H30      1.0000 0.90670  0.49470  0.84460  Biso   1.000  H
  H31      1.0000 0.09330  0.99470  0.65540  Biso   1.000  H
  H32      1.0000 0.90670  0.00530  0.15540  Biso   1.000  H
  H33      1.0000 0.90670  0.49470  0.65540  Biso   1.000  H
  H34      1.0000 0.09330  0.50530  0.15540  Biso   1.000  H
  H35      1.0000 0.90670  0.00530  0.34460  Biso   1.000  H
  H36      1.0000 0.09330  0.99470  0.84460  Biso   1.000  H
  C25      1.0000 0.95780  0.79049  0.41220  Biso   1.000  C
  C26      1.0000 0.04220  0.20951  0.91220  Biso   1.000  C
  C27      1.0000 0.95780  0.70951  0.58780  Biso   1.000  C
  C28      1.0000 0.04220  0.29049  0.08780  Biso   1.000  C
  C29      1.0000 0.04220  0.20951  0.58780  Biso   1.000  C
  C30      1.0000 0.95780  0.79049  0.08780  Biso   1.000  C
  C31      1.0000 0.04220  0.29049  0.41220  Biso   1.000  C
  C32      1.0000 0.95780  0.70951  0.91220  Biso   1.000  C
  C33      1.0000 0.28590  0.60810  0.33710  Biso   1.000  C
  C34      1.0000 0.71410  0.39190  0.83710  Biso   1.000  C
  C35      1.0000 0.28590  0.89190  0.66290  Biso   1.000  C
  C36      1.0000 0.71410  0.10810  0.16290  Biso   1.000  C
  C37      1.0000 0.71410  0.39190  0.66290  Biso   1.000  C
  C38      1.0000 0.28590  0.60810  0.16290  Biso   1.000  C
  C39      1.0000 0.71410  0.10810  0.33710  Biso   1.000  C
  C40      1.0000 0.28590  0.89190  0.83710  Biso   1.000  C
  H37      1.0000 0.23820  0.63880  0.39400  Biso   1.000  H
  H38      1.0000 0.76180  0.36120  0.89400  Biso   1.000  H
  H39      1.0000 0.23820  0.86120  0.60600  Biso   1.000  H
  H40      1.0000 0.76180  0.13880  0.10600  Biso   1.000  H
  H41      1.0000 0.76180  0.36120  0.60600  Biso   1.000  H
  H42      1.0000 0.23820  0.63880  0.10600  Biso   1.000  H
  H43      1.0000 0.76180  0.13880  0.39400  Biso   1.000  H
  H44      1.0000 0.23820  0.86120  0.89400  Biso   1.000  H
  H45      1.0000 0.41910  0.61090  0.33990  Biso   1.000  H
  H46      1.0000 0.58090  0.38910  0.83990  Biso   1.000  H
  H47      1.0000 0.41910  0.88910  0.66010  Biso   1.000  H
  H48      1.0000 0.58090  0.11090  0.16010  Biso   1.000  H
  H49      1.0000 0.58090  0.38910  0.66010  Biso   1.000  H
  H50      1.0000 0.41910  0.61090  0.16010  Biso   1.000  H
  H51      1.0000 0.58090  0.11090  0.33990  Biso   1.000  H
  H52      1.0000 0.41910  0.88910  0.83990  Biso   1.000  H
  H53      1.0000 0.23960  0.98040  0.21060  Biso   1.000  H
  H54      1.0000 0.76040  0.01960  0.71060  Biso   1.000  H
  H55      1.0000 0.23960  0.51960  0.78940  Biso   1.000  H
  H56      1.0000 0.76040  0.48040  0.28940  Biso   1.000  H
  H57      1.0000 0.76040  0.01960  0.78940  Biso   1.000  H
  H58      1.0000 0.23960  0.98040  0.28940  Biso   1.000  H
  H59      1.0000 0.76040  0.48040  0.21060  Biso   1.000  H
  H60      1.0000 0.23960  0.51960  0.71060  Biso   1.000  H
