data_image0
_cell_length_a       7.062
_cell_length_b       11.14
_cell_length_c       9.583
_cell_angle_alpha    90
_cell_angle_beta     107.67
_cell_angle_gamma    90

_symmetry_space_group_name_H-M    "P 1"
_symmetry_int_tables_number       1

loop_
  _symmetry_equiv_pos_as_xyz
  'x, y, z'

loop_
  _atom_site_label
  _atom_site_occupancy
  _atom_site_fract_x
  _atom_site_fract_y
  _atom_site_fract_z
  _atom_site_thermal_displace_type
  _atom_site_B_iso_or_equiv
  _atom_site_type_symbol
  Cu1      1.0000 0.50000  0.50000  0.50000  Biso   1.000  Cu
  Cu2      1.0000 0.50000  0.00000  0.00000  Biso   1.000  Cu
  O1       1.0000 0.33200  0.70263  0.12133  Biso   1.000  O
  O2       1.0000 0.66800  0.20263  0.37867  Biso   1.000  O
  O3       1.0000 0.66800  0.29737  0.87867  Biso   1.000  O
  O4       1.0000 0.33200  0.79737  0.62133  Biso   1.000  O
  O5       1.0000 0.66397  0.50198  0.36970  Biso   1.000  O
  O6       1.0000 0.33603  0.00198  0.13030  Biso   1.000  O
  O7       1.0000 0.33603  0.49802  0.63030  Biso   1.000  O
  O8       1.0000 0.66397  0.99802  0.86970  Biso   1.000  O
  O9       1.0000 0.27590  0.49671  0.32618  Biso   1.000  O
  O10      1.0000 0.72410  0.99671  0.17382  Biso   1.000  O
  O11      1.0000 0.72410  0.50329  0.67382  Biso   1.000  O
  O12      1.0000 0.27590  0.00329  0.82618  Biso   1.000  O
  O13      1.0000 0.98930  0.36653  0.60010  Biso   1.000  O
  O14      1.0000 0.01070  0.86653  0.89990  Biso   1.000  O
  O15      1.0000 0.01070  0.63347  0.39990  Biso   1.000  O
  O16      1.0000 0.98930  0.13347  0.10010  Biso   1.000  O
  O17      1.0000 0.98770  0.33370  0.28060  Biso   1.000  O
  O18      1.0000 0.01230  0.83370  0.21940  Biso   1.000  O
  O19      1.0000 0.01230  0.66630  0.71940  Biso   1.000  O
  O20      1.0000 0.98770  0.16630  0.78060  Biso   1.000  O
  C1       1.0000 0.52170  0.67770  0.22180  Biso   1.000  C
  C2       1.0000 0.47830  0.17770  0.27820  Biso   1.000  C
  C3       1.0000 0.47830  0.32230  0.77820  Biso   1.000  C
  C4       1.0000 0.52170  0.82230  0.72180  Biso   1.000  C
  C5       1.0000 0.54620  0.54160  0.23130  Biso   1.000  C
  C6       1.0000 0.45380  0.04160  0.26870  Biso   1.000  C
  C7       1.0000 0.45380  0.45840  0.76870  Biso   1.000  C
  C8       1.0000 0.54620  0.95840  0.73130  Biso   1.000  C
  C9       1.0000 0.32880  0.49980  0.19600  Biso   1.000  C
  C10      1.0000 0.67120  0.99980  0.30400  Biso   1.000  C
  C11      1.0000 0.67120  0.50020  0.80400  Biso   1.000  C
  C12      1.0000 0.32880  0.00020  0.69600  Biso   1.000  C
  C13      1.0000 0.21700  0.59360  0.08860  Biso   1.000  C
  C14      1.0000 0.78300  0.09360  0.41140  Biso   1.000  C
  C15      1.0000 0.78300  0.40640  0.91140  Biso   1.000  C
  C16      1.0000 0.21700  0.90640  0.58860  Biso   1.000  C
  Li1      1.0000 0.81780  0.35310  0.39630  Biso   1.000  Li
  Li2      1.0000 0.18220  0.85310  0.10370  Biso   1.000  Li
  Li3      1.0000 0.18220  0.64690  0.60370  Biso   1.000  Li
  Li4      1.0000 0.81780  0.14690  0.89630  Biso   1.000  Li
  H1       1.0000 0.52500  0.70600  0.31700  Biso   1.000  H
  H2       1.0000 0.47500  0.20600  0.18300  Biso   1.000  H
  H3       1.0000 0.47500  0.29400  0.68300  Biso   1.000  H
  H4       1.0000 0.52500  0.79400  0.81700  Biso   1.000  H
  H5       1.0000 0.62000  0.71800  0.19400  Biso   1.000  H
  H6       1.0000 0.38000  0.21800  0.30600  Biso   1.000  H
  H7       1.0000 0.38000  0.28200  0.80600  Biso   1.000  H
  H8       1.0000 0.62000  0.78200  0.69400  Biso   1.000  H
  H9       1.0000 0.60100  0.51600  0.15900  Biso   1.000  H
  H10      1.0000 0.39900  0.01600  0.34100  Biso   1.000  H
  H11      1.0000 0.39900  0.48400  0.84100  Biso   1.000  H
  H12      1.0000 0.60100  0.98400  0.65900  Biso   1.000  H
  H13      1.0000 0.30900  0.42460  0.15200  Biso   1.000  H
  H14      1.0000 0.69100  0.92460  0.34800  Biso   1.000  H
  H15      1.0000 0.69100  0.57540  0.84800  Biso   1.000  H
  H16      1.0000 0.30900  0.07540  0.65200  Biso   1.000  H
  H17      1.0000 0.20400  0.57000  0.98900  Biso   1.000  H
  H18      1.0000 0.79600  0.07000  0.51100  Biso   1.000  H
  H19      1.0000 0.79600  0.43000  0.01100  Biso   1.000  H
  H20      1.0000 0.20400  0.93000  0.48900  Biso   1.000  H
  H21      1.0000 0.09500  0.61200  0.09800  Biso   1.000  H
  H22      1.0000 0.90500  0.11200  0.40200  Biso   1.000  H
  H23      1.0000 0.90500  0.38800  0.90200  Biso   1.000  H
  H24      1.0000 0.09500  0.88800  0.59800  Biso   1.000  H
  H25      1.0000 0.91700  0.40900  0.63900  Biso   1.000  H
  H26      1.0000 0.08300  0.90900  0.86100  Biso   1.000  H
  H27      1.0000 0.08300  0.59100  0.36100  Biso   1.000  H
  H28      1.0000 0.91700  0.09100  0.13900  Biso   1.000  H
  H29      1.0000 0.07300  0.40300  0.60100  Biso   1.000  H
  H30      1.0000 0.92700  0.90300  0.89900  Biso   1.000  H
  H31      1.0000 0.92700  0.59700  0.39900  Biso   1.000  H
  H32      1.0000 0.07300  0.09700  0.10100  Biso   1.000  H
  H33      1.0000 0.99500  0.28500  0.23300  Biso   1.000  H
  H34      1.0000 0.00500  0.78500  0.26700  Biso   1.000  H
  H35      1.0000 0.00500  0.71500  0.76700  Biso   1.000  H
  H36      1.0000 0.99500  0.21500  0.73300  Biso   1.000  H
  H37      1.0000 0.08300  0.37100  0.29400  Biso   1.000  H
  H38      1.0000 0.91700  0.87100  0.20600  Biso   1.000  H
  H39      1.0000 0.91700  0.62900  0.70600  Biso   1.000  H
  H40      1.0000 0.08300  0.12900  0.79400  Biso   1.000  H
