data_image0
_cell_length_a       5.5102
_cell_length_b       10.576
_cell_length_c       28.344
_cell_angle_alpha    90
_cell_angle_beta     90
_cell_angle_gamma    90

_symmetry_space_group_name_H-M    "P 1"
_symmetry_int_tables_number       1

loop_
  _symmetry_equiv_pos_as_xyz
  'x, y, z'

loop_
  _atom_site_label
  _atom_site_occupancy
  _atom_site_fract_x
  _atom_site_fract_y
  _atom_site_fract_z
  _atom_site_thermal_displace_type
  _atom_site_B_iso_or_equiv
  _atom_site_type_symbol
  Cu1      1.0000 0.73165  0.52103  0.75975  Biso   1.000  Cu
  Cu2      1.0000 0.76835  0.47897  0.25975  Biso   1.000  Cu
  Cu3      1.0000 0.26835  0.02103  0.74025  Biso   1.000  Cu
  Cu4      1.0000 0.23165  0.97897  0.24025  Biso   1.000  Cu
  S1       1.0000 0.16060  0.71187  0.78756  Biso   1.000  S
  S2       1.0000 0.33940  0.28813  0.28756  Biso   1.000  S
  S3       1.0000 0.83940  0.21187  0.71244  Biso   1.000  S
  S4       1.0000 0.66060  0.78813  0.21244  Biso   1.000  S
  N1       1.0000 0.77600  0.47160  0.82813  Biso   1.000  N
  N2       1.0000 0.72400  0.52840  0.32813  Biso   1.000  N
  N3       1.0000 0.22400  0.97160  0.67187  Biso   1.000  N
  N4       1.0000 0.27600  0.02840  0.17187  Biso   1.000  N
  O1       1.0000 0.84780  0.43260  0.00876  Biso   1.000  O
  O2       1.0000 0.65220  0.56740  0.50876  Biso   1.000  O
  O3       1.0000 0.15220  0.93260  0.49124  Biso   1.000  O
  O4       1.0000 0.34780  0.06740  0.99124  Biso   1.000  O
  O5       1.0000 0.05800  0.59980  0.76067  Biso   1.000  O
  O6       1.0000 0.44200  0.40020  0.26067  Biso   1.000  O
  O7       1.0000 0.94200  0.09980  0.73933  Biso   1.000  O
  O8       1.0000 0.55800  0.90020  0.23933  Biso   1.000  O
  O9       1.0000 0.08920  0.70610  0.83681  Biso   1.000  O
  O10      1.0000 0.41080  0.29390  0.33681  Biso   1.000  O
  O11      1.0000 0.91080  0.20610  0.66319  Biso   1.000  O
  O12      1.0000 0.58920  0.79390  0.16319  Biso   1.000  O
  O13      1.0000 0.43120  0.70000  0.78290  Biso   1.000  O
  O14      1.0000 0.06880  0.30000  0.28290  Biso   1.000  O
  O15      1.0000 0.56880  0.20000  0.71710  Biso   1.000  O
  O16      1.0000 0.93120  0.80000  0.21710  Biso   1.000  O
  O17      1.0000 0.07370  0.82860  0.76491  Biso   1.000  O
  O18      1.0000 0.42630  0.17140  0.26491  Biso   1.000  O
  O19      1.0000 0.92630  0.32860  0.73509  Biso   1.000  O
  O20      1.0000 0.57370  0.67140  0.23509  Biso   1.000  O
  O21      1.0000 0.42550  0.42050  0.75771  Biso   1.000  O
  O22      1.0000 0.07450  0.57950  0.25771  Biso   1.000  O
  O23      1.0000 0.57450  0.92050  0.74229  Biso   1.000  O
  O24      1.0000 0.92550  0.07950  0.24229  Biso   1.000  O
  C1       1.0000 0.97870  0.40590  0.83998  Biso   1.000  C
  C2       1.0000 0.52130  0.59410  0.33998  Biso   1.000  C
  C3       1.0000 0.02130  0.90590  0.66002  Biso   1.000  C
  C4       1.0000 0.47870  0.09410  0.16002  Biso   1.000  C
  H1       1.0000 0.07430  0.37370  0.81580  Biso   1.000  H
  H2       1.0000 0.42570  0.62630  0.31580  Biso   1.000  H
  H3       1.0000 0.92570  0.87370  0.68420  Biso   1.000  H
  H4       1.0000 0.57430  0.12630  0.18420  Biso   1.000  H
  C5       1.0000 0.04990  0.38440  0.88518  Biso   1.000  C
  C6       1.0000 0.45010  0.61560  0.38518  Biso   1.000  C
  C7       1.0000 0.95010  0.88440  0.61482  Biso   1.000  C
  C8       1.0000 0.54990  0.11560  0.11482  Biso   1.000  C
  H5       1.0000 0.19320  0.34110  0.89150  Biso   1.000  H
  H6       1.0000 0.30680  0.65890  0.39150  Biso   1.000  H
  H7       1.0000 0.80680  0.84110  0.60850  Biso   1.000  H
  H8       1.0000 0.69320  0.15890  0.10850  Biso   1.000  H
  C9       1.0000 0.90340  0.42860  0.92212  Biso   1.000  C
  C10      1.0000 0.59660  0.57140  0.42212  Biso   1.000  C
  C11      1.0000 0.09660  0.92860  0.57788  Biso   1.000  C
  C12      1.0000 0.40340  0.07140  0.07788  Biso   1.000  C
  C13      1.0000 0.69010  0.49190  0.91114  Biso   1.000  C
  C14      1.0000 0.80990  0.50810  0.41114  Biso   1.000  C
  C15      1.0000 0.30990  0.99190  0.58886  Biso   1.000  C
  C16      1.0000 0.19010  0.00810  0.08886  Biso   1.000  C
  H9       1.0000 0.58690  0.52030  0.93480  Biso   1.000  H
  H10      1.0000 0.91310  0.47970  0.43480  Biso   1.000  H
  H11      1.0000 0.41310  0.02030  0.56520  Biso   1.000  H
  H12      1.0000 0.08690  0.97970  0.06520  Biso   1.000  H
  C17      1.0000 0.63420  0.51200  0.86358  Biso   1.000  C
  C18      1.0000 0.86580  0.48800  0.36358  Biso   1.000  C
  C19      1.0000 0.36580  0.01200  0.63642  Biso   1.000  C
  C20      1.0000 0.13420  0.98800  0.13642  Biso   1.000  C
  H13      1.0000 0.49230  0.55540  0.85620  Biso   1.000  H
  H14      1.0000 0.00770  0.44460  0.35620  Biso   1.000  H
  H15      1.0000 0.50770  0.05540  0.64380  Biso   1.000  H
  H16      1.0000 0.99230  0.94460  0.14380  Biso   1.000  H
  C21      1.0000 0.99040  0.40640  0.97039  Biso   1.000  C
  C22      1.0000 0.50960  0.59360  0.47039  Biso   1.000  C
  C23      1.0000 0.00960  0.90640  0.52961  Biso   1.000  C
  C24      1.0000 0.49040  0.09360  0.02961  Biso   1.000  C
  N5       1.0000 0.19970  0.35930  0.98225  Biso   1.000  N
  N6       1.0000 0.30030  0.64070  0.48225  Biso   1.000  N
  N7       1.0000 0.80030  0.85930  0.51775  Biso   1.000  N
  N8       1.0000 0.69970  0.14070  0.01775  Biso   1.000  N
  N9       1.0000 0.20080  0.35160  0.03124  Biso   1.000  N
  N10      1.0000 0.29920  0.64840  0.53124  Biso   1.000  N
  N11      1.0000 0.79920  0.85160  0.46876  Biso   1.000  N
  N12      1.0000 0.70080  0.14840  0.96876  Biso   1.000  N
  C25      1.0000 0.99240  0.39540  0.04557  Biso   1.000  C
  C26      1.0000 0.50760  0.60460  0.54557  Biso   1.000  C
  C27      1.0000 0.00760  0.89540  0.45443  Biso   1.000  C
  C28      1.0000 0.49240  0.10460  0.95443  Biso   1.000  C
  N13      1.0000 0.80900  0.43010  0.19038  Biso   1.000  N
  N14      1.0000 0.69100  0.56990  0.69038  Biso   1.000  N
  N15      1.0000 0.19100  0.93010  0.30962  Biso   1.000  N
  N16      1.0000 0.30900  0.06990  0.80962  Biso   1.000  N
  C29      1.0000 0.91520  0.40520  0.09408  Biso   1.000  C
  C30      1.0000 0.58480  0.59480  0.59408  Biso   1.000  C
  C31      1.0000 0.08480  0.90520  0.40592  Biso   1.000  C
  C32      1.0000 0.41520  0.09480  0.90592  Biso   1.000  C
  C33      1.0000 0.70110  0.46350  0.10883  Biso   1.000  C
  C34      1.0000 0.79890  0.53650  0.60883  Biso   1.000  C
  C35      1.0000 0.29890  0.96350  0.39117  Biso   1.000  C
  C36      1.0000 0.20110  0.03650  0.89117  Biso   1.000  C
  H17      1.0000 0.59030  0.49410  0.08690  Biso   1.000  H
  H18      1.0000 0.90970  0.50590  0.58690  Biso   1.000  H
  H19      1.0000 0.40970  0.99410  0.41310  Biso   1.000  H
  H20      1.0000 0.09030  0.00590  0.91310  Biso   1.000  H
  C37      1.0000 0.65630  0.47510  0.15684  Biso   1.000  C
  C38      1.0000 0.84370  0.52490  0.65684  Biso   1.000  C
  C39      1.0000 0.34370  0.97510  0.34316  Biso   1.000  C
  C40      1.0000 0.15630  0.02490  0.84316  Biso   1.000  C
  H21      1.0000 0.51490  0.51560  0.16640  Biso   1.000  H
  H22      1.0000 0.98510  0.48440  0.66640  Biso   1.000  H
  H23      1.0000 0.48510  0.01560  0.33360  Biso   1.000  H
  H24      1.0000 0.01490  0.98440  0.83360  Biso   1.000  H
  C41      1.0000 0.01150  0.37020  0.17548  Biso   1.000  C
  C42      1.0000 0.48850  0.62980  0.67548  Biso   1.000  C
  C43      1.0000 0.98850  0.87020  0.32452  Biso   1.000  C
  C44      1.0000 0.51150  0.12980  0.82452  Biso   1.000  C
  H25      1.0000 0.11710  0.33710  0.19790  Biso   1.000  H
  H26      1.0000 0.38290  0.66290  0.69790  Biso   1.000  H
  H27      1.0000 0.88290  0.83710  0.30210  Biso   1.000  H
  H28      1.0000 0.61710  0.16290  0.80210  Biso   1.000  H
  C45      1.0000 0.06770  0.35620  0.12860  Biso   1.000  C
  C46      1.0000 0.43230  0.64380  0.62860  Biso   1.000  C
  C47      1.0000 0.93230  0.85620  0.37140  Biso   1.000  C
  C48      1.0000 0.56770  0.14380  0.87140  Biso   1.000  C
  H29      1.0000 0.20860  0.31370  0.11990  Biso   1.000  H
  H30      1.0000 0.29140  0.68630  0.61990  Biso   1.000  H
  H31      1.0000 0.79140  0.81370  0.38010  Biso   1.000  H
  H32      1.0000 0.70860  0.18630  0.88010  Biso   1.000  H
  O25      1.0000 0.68170  0.82400  0.88000  Biso   1.000  O
  O26      1.0000 0.81830  0.17600  0.38000  Biso   1.000  O
  O27      1.0000 0.31830  0.32400  0.62000  Biso   1.000  O
  O28      1.0000 0.18170  0.67600  0.12000  Biso   1.000  O
  O29      1.0000 0.25500  0.72430  0.93110  Biso   1.000  O
  O30      1.0000 0.24500  0.27570  0.43110  Biso   1.000  O
  O31      1.0000 0.74500  0.22430  0.56890  Biso   1.000  O
  O32      1.0000 0.75500  0.77570  0.06890  Biso   1.000  O
  O33      1.0000 0.68200  0.80790  0.97860  Biso   1.000  O
  O34      1.0000 0.81800  0.19210  0.47860  Biso   1.000  O
  O35      1.0000 0.31800  0.30790  0.52140  Biso   1.000  O
  O36      1.0000 0.18200  0.69210  0.02140  Biso   1.000  O
