data_image0
_cell_length_a       12.4658
_cell_length_b       12.1314
_cell_length_c       17.8301
_cell_angle_alpha    90
_cell_angle_beta     100.182
_cell_angle_gamma    90

_symmetry_space_group_name_H-M    "P 1"
_symmetry_int_tables_number       1

loop_
  _symmetry_equiv_pos_as_xyz
  'x, y, z'

loop_
  _atom_site_label
  _atom_site_occupancy
  _atom_site_fract_x
  _atom_site_fract_y
  _atom_site_fract_z
  _atom_site_thermal_displace_type
  _atom_site_B_iso_or_equiv
  _atom_site_type_symbol
  Cu1      1.0000 0.00000  0.00000  0.50000  Biso   1.000  Cu
  Cu2      1.0000 0.50000  0.50000  0.00000  Biso   1.000  Cu
  C1       1.0000 0.89817  0.13553  0.36575  Biso   1.000  C
  C2       1.0000 0.39817  0.36447  0.86575  Biso   1.000  C
  C3       1.0000 0.10183  0.86447  0.63425  Biso   1.000  C
  C4       1.0000 0.60183  0.63553  0.13425  Biso   1.000  C
  H1       1.0000 0.83170  0.10450  0.37500  Biso   1.000  H
  H2       1.0000 0.33170  0.39550  0.87500  Biso   1.000  H
  H3       1.0000 0.16830  0.89550  0.62500  Biso   1.000  H
  H4       1.0000 0.66830  0.60450  0.12500  Biso   1.000  H
  C5       1.0000 0.89550  0.20208  0.30237  Biso   1.000  C
  C6       1.0000 0.39550  0.29792  0.80237  Biso   1.000  C
  C7       1.0000 0.10450  0.79792  0.69763  Biso   1.000  C
  C8       1.0000 0.60450  0.70208  0.19763  Biso   1.000  C
  H5       1.0000 0.82850  0.21800  0.26960  Biso   1.000  H
  H6       1.0000 0.32850  0.28200  0.76960  Biso   1.000  H
  H7       1.0000 0.17150  0.78200  0.73040  Biso   1.000  H
  H8       1.0000 0.67150  0.71800  0.23040  Biso   1.000  H
  C9       1.0000 0.99329  0.24522  0.28769  Biso   1.000  C
  C10      1.0000 0.49329  0.25478  0.78769  Biso   1.000  C
  C11      1.0000 0.00671  0.75478  0.71231  Biso   1.000  C
  C12      1.0000 0.50671  0.74522  0.21231  Biso   1.000  C
  C13      1.0000 0.08796  0.22740  0.34045  Biso   1.000  C
  C14      1.0000 0.58796  0.27260  0.84045  Biso   1.000  C
  C15      1.0000 0.91204  0.77260  0.65955  Biso   1.000  C
  C16      1.0000 0.41204  0.72740  0.15955  Biso   1.000  C
  H9       1.0000 0.15500  0.25960  0.33350  Biso   1.000  H
  H10      1.0000 0.65500  0.24040  0.83350  Biso   1.000  H
  H11      1.0000 0.84500  0.74040  0.66650  Biso   1.000  H
  H12      1.0000 0.34500  0.75960  0.16650  Biso   1.000  H
  C17      1.0000 0.08286  0.16221  0.40298  Biso   1.000  C
  C18      1.0000 0.58286  0.33779  0.90298  Biso   1.000  C
  C19      1.0000 0.91714  0.83779  0.59702  Biso   1.000  C
  C20      1.0000 0.41714  0.66221  0.09702  Biso   1.000  C
  H13      1.0000 0.14750  0.15170  0.43940  Biso   1.000  H
  H14      1.0000 0.64750  0.34830  0.93940  Biso   1.000  H
  H15      1.0000 0.85250  0.84830  0.56060  Biso   1.000  H
  H16      1.0000 0.35250  0.65170  0.06060  Biso   1.000  H
  C21      1.0000 0.00046  0.30396  0.21692  Biso   1.000  C
  C22      1.0000 0.50046  0.19604  0.71692  Biso   1.000  C
  C23      1.0000 0.99954  0.69604  0.78308  Biso   1.000  C
  C24      1.0000 0.49954  0.80396  0.28308  Biso   1.000  C
  C25      1.0000 0.08189  0.36709  0.13180  Biso   1.000  C
  C26      1.0000 0.58189  0.13291  0.63180  Biso   1.000  C
  C27      1.0000 0.91811  0.63291  0.86820  Biso   1.000  C
  C28      1.0000 0.41811  0.86709  0.36820  Biso   1.000  C
  C29      1.0000 0.36390  0.37100  0.08796  Biso   1.000  C
  C30      1.0000 0.86390  0.12900  0.58796  Biso   1.000  C
  C31      1.0000 0.63610  0.62900  0.91204  Biso   1.000  C
  C32      1.0000 0.13610  0.87100  0.41204  Biso   1.000  C
  H17      1.0000 0.43260  0.33820  0.10680  Biso   1.000  H
  H18      1.0000 0.93260  0.16180  0.60680  Biso   1.000  H
  H19      1.0000 0.56740  0.66180  0.89320  Biso   1.000  H
  H20      1.0000 0.06740  0.83820  0.39320  Biso   1.000  H
  C33      1.0000 0.27703  0.34420  0.12266  Biso   1.000  C
  C34      1.0000 0.77703  0.15580  0.62266  Biso   1.000  C
  C35      1.0000 0.72297  0.65580  0.87734  Biso   1.000  C
  C36      1.0000 0.22297  0.84420  0.37734  Biso   1.000  C
  H21      1.0000 0.28600  0.29460  0.16460  Biso   1.000  H
  H22      1.0000 0.78600  0.20540  0.66460  Biso   1.000  H
  H23      1.0000 0.71400  0.70540  0.83540  Biso   1.000  H
  H24      1.0000 0.21400  0.79460  0.33540  Biso   1.000  H
  C37      1.0000 0.17592  0.39111  0.09512  Biso   1.000  C
  C38      1.0000 0.67592  0.10889  0.59512  Biso   1.000  C
  C39      1.0000 0.82408  0.60889  0.90488  Biso   1.000  C
  C40      1.0000 0.32408  0.89111  0.40488  Biso   1.000  C
  C41      1.0000 0.16572  0.46065  0.03215  Biso   1.000  C
  C42      1.0000 0.66572  0.03935  0.53215  Biso   1.000  C
  C43      1.0000 0.83428  0.53935  0.96785  Biso   1.000  C
  C44      1.0000 0.33428  0.96065  0.46785  Biso   1.000  C
  H25      1.0000 0.09710  0.49190  0.01100  Biso   1.000  H
  H26      1.0000 0.59710  0.00810  0.51100  Biso   1.000  H
  H27      1.0000 0.90290  0.50810  0.98900  Biso   1.000  H
  H28      1.0000 0.40290  0.99190  0.48900  Biso   1.000  H
  C45      1.0000 0.25695  0.48338  0.00098  Biso   1.000  C
  C46      1.0000 0.75695  0.01662  0.50098  Biso   1.000  C
  C47      1.0000 0.74305  0.51662  0.99902  Biso   1.000  C
  C48      1.0000 0.24305  0.98338  0.49902  Biso   1.000  C
  H29      1.0000 0.24960  0.53080  0.95800  Biso   1.000  H
  H30      1.0000 0.74960  0.96920  0.45800  Biso   1.000  H
  H31      1.0000 0.75040  0.46920  0.04200  Biso   1.000  H
  H32      1.0000 0.25040  0.03080  0.54200  Biso   1.000  H
  N1       1.0000 0.99052  0.11260  0.41499  Biso   1.000  N
  N2       1.0000 0.49052  0.38740  0.91499  Biso   1.000  N
  N3       1.0000 0.00948  0.88740  0.58501  Biso   1.000  N
  N4       1.0000 0.50948  0.61260  0.08501  Biso   1.000  N
  N5       1.0000 0.92572  0.34789  0.16637  Biso   1.000  N
  N6       1.0000 0.42572  0.15211  0.66637  Biso   1.000  N
  N7       1.0000 0.07428  0.65211  0.83363  Biso   1.000  N
  N8       1.0000 0.57428  0.84789  0.33363  Biso   1.000  N
  N9       1.0000 0.98006  0.39069  0.10965  Biso   1.000  N
  N10      1.0000 0.48006  0.10931  0.60965  Biso   1.000  N
  N11      1.0000 0.01994  0.60931  0.89035  Biso   1.000  N
  N12      1.0000 0.51994  0.89069  0.39035  Biso   1.000  N
  N13      1.0000 0.35681  0.44097  0.02909  Biso   1.000  N
  N14      1.0000 0.85681  0.05903  0.52909  Biso   1.000  N
  N15      1.0000 0.64319  0.55903  0.97091  Biso   1.000  N
  N16      1.0000 0.14319  0.94097  0.47091  Biso   1.000  N
  O1       1.0000 0.10147  0.31228  0.19896  Biso   1.000  O
  O2       1.0000 0.60147  0.18772  0.69896  Biso   1.000  O
  O3       1.0000 0.89853  0.68772  0.80104  Biso   1.000  O
  O4       1.0000 0.39853  0.81228  0.30104  Biso   1.000  O
  C49      1.0000 0.44100  0.55640  0.73016  Biso   1.000  C
  C50      1.0000 0.94100  0.94360  0.23016  Biso   1.000  C
  C51      1.0000 0.55900  0.44360  0.26984  Biso   1.000  C
  C52      1.0000 0.05900  0.05640  0.76984  Biso   1.000  C
  H33      1.0000 0.50780  0.58780  0.75480  Biso   1.000  H
  H34      1.0000 0.00780  0.91220  0.25480  Biso   1.000  H
  H35      1.0000 0.49220  0.41220  0.24520  Biso   1.000  H
  H36      1.0000 0.99220  0.08780  0.74520  Biso   1.000  H
  C53      1.0000 0.44250  0.49280  0.66596  Biso   1.000  C
  C54      1.0000 0.94250  0.00720  0.16596  Biso   1.000  C
  C55      1.0000 0.55750  0.50720  0.33404  Biso   1.000  C
  C56      1.0000 0.05750  0.99280  0.83404  Biso   1.000  C
  H37      1.0000 0.50830  0.48090  0.64720  Biso   1.000  H
  H38      1.0000 0.00830  0.01910  0.14720  Biso   1.000  H
  H39      1.0000 0.49170  0.51910  0.35280  Biso   1.000  H
  H40      1.0000 0.99170  0.98090  0.85280  Biso   1.000  H
  C57      1.0000 0.34414  0.44660  0.62934  Biso   1.000  C
  C58      1.0000 0.84414  0.05340  0.12934  Biso   1.000  C
  C59      1.0000 0.65586  0.55340  0.37066  Biso   1.000  C
  C60      1.0000 0.15586  0.94660  0.87066  Biso   1.000  C
  C61      1.0000 0.24970  0.46740  0.65832  Biso   1.000  C
  C62      1.0000 0.74970  0.03260  0.15832  Biso   1.000  C
  C63      1.0000 0.75030  0.53260  0.34168  Biso   1.000  C
  C64      1.0000 0.25030  0.96740  0.84168  Biso   1.000  C
  H41      1.0000 0.18160  0.43820  0.63420  Biso   1.000  H
  H42      1.0000 0.68160  0.06180  0.13420  Biso   1.000  H
  H43      1.0000 0.81840  0.56180  0.36580  Biso   1.000  H
  H44      1.0000 0.31840  0.93820  0.86580  Biso   1.000  H
  C65      1.0000 0.25740  0.53160  0.72320  Biso   1.000  C
  C66      1.0000 0.75740  0.96840  0.22320  Biso   1.000  C
  C67      1.0000 0.74260  0.46840  0.27680  Biso   1.000  C
  C68      1.0000 0.24260  0.03160  0.77680  Biso   1.000  C
  H45      1.0000 0.19280  0.54490  0.74320  Biso   1.000  H
  H46      1.0000 0.69280  0.95510  0.24320  Biso   1.000  H
  H47      1.0000 0.80720  0.45510  0.25680  Biso   1.000  H
  H48      1.0000 0.30720  0.04490  0.75680  Biso   1.000  H
  C69      1.0000 0.34192  0.37590  0.56302  Biso   1.000  C
  C70      1.0000 0.84192  0.12410  0.06302  Biso   1.000  C
  C71      1.0000 0.65808  0.62410  0.43698  Biso   1.000  C
  C72      1.0000 0.15808  0.87590  0.93698  Biso   1.000  C
  C73      1.0000 0.40513  0.29260  0.47527  Biso   1.000  C
  C74      1.0000 0.90513  0.20740  0.97527  Biso   1.000  C
  C75      1.0000 0.59487  0.70740  0.52473  Biso   1.000  C
  C76      1.0000 0.09487  0.79260  0.02473  Biso   1.000  C
  C77      1.0000 0.66770  0.25480  0.40534  Biso   1.000  C
  C78      1.0000 0.16770  0.24520  0.90534  Biso   1.000  C
  C79      1.0000 0.33230  0.74520  0.59466  Biso   1.000  C
  C80      1.0000 0.83230  0.75480  0.09466  Biso   1.000  C
  H49      1.0000 0.74150  0.27780  0.41890  Biso   1.000  H
  H50      1.0000 0.24150  0.22220  0.91890  Biso   1.000  H
  H51      1.0000 0.25850  0.72220  0.58110  Biso   1.000  H
  H52      1.0000 0.75850  0.77780  0.08110  Biso   1.000  H
  C81      1.0000 0.59418  0.29270  0.44942  Biso   1.000  C
  C82      1.0000 0.09418  0.20730  0.94942  Biso   1.000  C
  C83      1.0000 0.40582  0.70730  0.55058  Biso   1.000  C
  C84      1.0000 0.90582  0.79270  0.05058  Biso   1.000  C
  H53      1.0000 0.61680  0.34010  0.49170  Biso   1.000  H
  H54      1.0000 0.11680  0.15990  0.99170  Biso   1.000  H
  H55      1.0000 0.38320  0.65990  0.50830  Biso   1.000  H
  H56      1.0000 0.88320  0.84010  0.00830  Biso   1.000  H
  C85      1.0000 0.48624  0.25920  0.42963  Biso   1.000  C
  C86      1.0000 0.98624  0.24080  0.92963  Biso   1.000  C
  C87      1.0000 0.51376  0.74080  0.57037  Biso   1.000  C
  C88      1.0000 0.01376  0.75920  0.07037  Biso   1.000  C
  C89      1.0000 0.45670  0.19200  0.36611  Biso   1.000  C
  C90      1.0000 0.95670  0.30800  0.86611  Biso   1.000  C
  C91      1.0000 0.54330  0.80800  0.63389  Biso   1.000  C
  C92      1.0000 0.04330  0.69200  0.13389  Biso   1.000  C
  H57      1.0000 0.38320  0.16950  0.35040  Biso   1.000  H
  H58      1.0000 0.88320  0.33050  0.85040  Biso   1.000  H
  H59      1.0000 0.61680  0.83050  0.64960  Biso   1.000  H
  H60      1.0000 0.11680  0.66950  0.14960  Biso   1.000  H
  C93      1.0000 0.53690  0.15860  0.32634  Biso   1.000  C
  C94      1.0000 0.03690  0.34140  0.82634  Biso   1.000  C
  C95      1.0000 0.46310  0.84140  0.67366  Biso   1.000  C
  C96      1.0000 0.96310  0.65860  0.17366  Biso   1.000  C
  H61      1.0000 0.51630  0.11210  0.28330  Biso   1.000  H
  H62      1.0000 0.01630  0.38790  0.78330  Biso   1.000  H
  H63      1.0000 0.48370  0.88790  0.71670  Biso   1.000  H
  H64      1.0000 0.98370  0.61210  0.21670  Biso   1.000  H
  N17      1.0000 0.35161  0.57639  0.75973  Biso   1.000  N
  N18      1.0000 0.85161  0.92361  0.25973  Biso   1.000  N
  N19      1.0000 0.64839  0.42361  0.24027  Biso   1.000  N
  N20      1.0000 0.14839  0.07639  0.74027  Biso   1.000  N
  N21      1.0000 0.26430  0.31345  0.52906  Biso   1.000  N
  N22      1.0000 0.76430  0.18655  0.02906  Biso   1.000  N
  N23      1.0000 0.73570  0.68655  0.47094  Biso   1.000  N
  N24      1.0000 0.23570  0.81345  0.97094  Biso   1.000  N
  N25      1.0000 0.30631  0.25847  0.47081  Biso   1.000  N
  N26      1.0000 0.80631  0.24153  0.97081  Biso   1.000  N
  N27      1.0000 0.69369  0.74153  0.52919  Biso   1.000  N
  N28      1.0000 0.19369  0.75847  0.02919  Biso   1.000  N
  N29      1.0000 0.64207  0.18791  0.34494  Biso   1.000  N
  N30      1.0000 0.14207  0.31209  0.84494  Biso   1.000  N
  N31      1.0000 0.35793  0.81209  0.65506  Biso   1.000  N
  N32      1.0000 0.85793  0.68791  0.15506  Biso   1.000  N
  O5       1.0000 0.43441  0.36713  0.53241  Biso   1.000  O
  O6       1.0000 0.93441  0.13287  0.03241  Biso   1.000  O
  O7       1.0000 0.56559  0.63287  0.46759  Biso   1.000  O
  O8       1.0000 0.06559  0.86713  0.96759  Biso   1.000  O
  O9       1.0000 0.11153  0.13634  0.58594  Biso   1.000  O
  O10      1.0000 0.61153  0.36366  0.08594  Biso   1.000  O
  O11      1.0000 0.88847  0.86366  0.41406  Biso   1.000  O
  O12      1.0000 0.38847  0.63634  0.91406  Biso   1.000  O
  H65      1.0000 0.12700  0.13100  0.63270  Biso   1.000  H
  H66      1.0000 0.62700  0.36900  0.13270  Biso   1.000  H
  H67      1.0000 0.87300  0.86900  0.36730  Biso   1.000  H
  H68      1.0000 0.37300  0.63100  0.86730  Biso   1.000  H
  H69      1.0000 0.13000  0.19900  0.57400  Biso   1.000  H
  H70      1.0000 0.63000  0.30100  0.07400  Biso   1.000  H
  H71      1.0000 0.87000  0.80100  0.42600  Biso   1.000  H
  H72      1.0000 0.37000  0.69900  0.92600  Biso   1.000  H
  Cl1      1.0000 0.75991  0.48290  0.67467  Biso   1.000  Cl
  Cl2      1.0000 0.25991  0.01710  0.17467  Biso   1.000  Cl
  Cl3      1.0000 0.24009  0.51710  0.32533  Biso   1.000  Cl
  Cl4      1.0000 0.74009  0.98290  0.82533  Biso   1.000  Cl
  O13      1.0000 0.74950  0.40520  0.73171  Biso   1.000  O
  O14      1.0000 0.24950  0.09480  0.23171  Biso   1.000  O
  O15      1.0000 0.25050  0.59480  0.26829  Biso   1.000  O
  O16      1.0000 0.75050  0.90520  0.76829  Biso   1.000  O
  O17      1.0000 0.71210  0.43850  0.60447  Biso   1.000  O
  O18      1.0000 0.21210  0.06150  0.10447  Biso   1.000  O
  O19      1.0000 0.28790  0.56150  0.39553  Biso   1.000  O
  O20      1.0000 0.78790  0.93850  0.89553  Biso   1.000  O
  O21      1.0000 0.87379  0.50343  0.67856  Biso   1.000  O
  O22      1.0000 0.37379  0.99657  0.17856  Biso   1.000  O
  O23      1.0000 0.12621  0.49657  0.32144  Biso   1.000  O
  O24      1.0000 0.62621  0.00343  0.82144  Biso   1.000  O
  O25      1.0000 0.70601  0.58322  0.68735  Biso   1.000  O
  O26      1.0000 0.20601  0.91678  0.18735  Biso   1.000  O
  O27      1.0000 0.29399  0.41678  0.31265  Biso   1.000  O
  O28      1.0000 0.79399  0.08322  0.81265  Biso   1.000  O
  O29      1.0000 0.98230  0.49670  0.55050  Biso   1.000  O
  O30      1.0000 0.48230  0.00330  0.05050  Biso   1.000  O
  O31      1.0000 0.01770  0.50330  0.44950  Biso   1.000  O
  O32      1.0000 0.51770  0.99670  0.94950  Biso   1.000  O
  H73      1.0000 0.96760  0.49640  0.59470  Biso   1.000  H
  H74      1.0000 0.46760  0.00360  0.09470  Biso   1.000  H
  H75      1.0000 0.03240  0.50360  0.40530  Biso   1.000  H
  H76      1.0000 0.53240  0.99640  0.90530  Biso   1.000  H
  C97      1.0000 0.94530  0.39430  0.51220  Biso   1.000  C
  C98      1.0000 0.44530  0.10570  0.01220  Biso   1.000  C
  C99      1.0000 0.05470  0.60570  0.48780  Biso   1.000  C
  C100     1.0000 0.55470  0.89430  0.98780  Biso   1.000  C
  H77      1.0000 0.96480  0.33240  0.54730  Biso   1.000  H
  H78      1.0000 0.46480  0.16760  0.04730  Biso   1.000  H
  H79      1.0000 0.03520  0.66760  0.45270  Biso   1.000  H
  H80      1.0000 0.53520  0.83240  0.95270  Biso   1.000  H
  H81      1.0000 0.98020  0.38470  0.46750  Biso   1.000  H
  H82      1.0000 0.48020  0.11530  0.96750  Biso   1.000  H
  H83      1.0000 0.01980  0.61530  0.53250  Biso   1.000  H
  H84      1.0000 0.51980  0.88470  0.03250  Biso   1.000  H
  H85      1.0000 0.86600  0.39660  0.49610  Biso   1.000  H
  H86      1.0000 0.36600  0.10340  0.99610  Biso   1.000  H
  H87      1.0000 0.13400  0.60340  0.50390  Biso   1.000  H
  H88      1.0000 0.63400  0.89660  0.00390  Biso   1.000  H
  O33      1.0000 0.00230  0.36080  0.57480  Biso   1.000  O
  O34      1.0000 0.50230  0.13920  0.07480  Biso   1.000  O
  O35      1.0000 0.99770  0.63920  0.42520  Biso   1.000  O
  O36      1.0000 0.49770  0.86080  0.92520  Biso   1.000  O
  H89      1.0000 0.96800  0.39910  0.60270  Biso   1.000  H
  H90      1.0000 0.46800  0.10090  0.10270  Biso   1.000  H
  H91      1.0000 0.03200  0.60090  0.39730  Biso   1.000  H
  H92      1.0000 0.53200  0.89910  0.89730  Biso   1.000  H
  H93      1.0000 0.96410  0.33250  0.53660  Biso   1.000  H
  H94      1.0000 0.46410  0.16750  0.03660  Biso   1.000  H
  H95      1.0000 0.03590  0.66750  0.46340  Biso   1.000  H
  H96      1.0000 0.53590  0.83250  0.96340  Biso   1.000  H
