data_image0
_cell_length_a       8.6787
_cell_length_b       7.8137
_cell_length_c       10.317
_cell_angle_alpha    90
_cell_angle_beta     107.917
_cell_angle_gamma    90

_symmetry_space_group_name_H-M    "P 1"
_symmetry_int_tables_number       1

loop_
  _symmetry_equiv_pos_as_xyz
  'x, y, z'

loop_
  _atom_site_label
  _atom_site_occupancy
  _atom_site_fract_x
  _atom_site_fract_y
  _atom_site_fract_z
  _atom_site_thermal_displace_type
  _atom_site_B_iso_or_equiv
  _atom_site_type_symbol
  C1       1.0000 0.20510  0.51380  0.81000  Biso   1.000  C
  C2       1.0000 0.79490  0.01380  0.19000  Biso   1.000  C
  C3       1.0000 0.36480  0.56130  0.87160  Biso   1.000  C
  C4       1.0000 0.63520  0.06130  0.12840  Biso   1.000  C
  H1       1.0000 0.42480  0.60380  0.81800  Biso   1.000  H
  H2       1.0000 0.57520  0.10380  0.18200  Biso   1.000  H
  C5       1.0000 0.43730  0.54720  0.01060  Biso   1.000  C
  C6       1.0000 0.56270  0.04720  0.98940  Biso   1.000  C
  C7       1.0000 0.34870  0.48530  0.09160  Biso   1.000  C
  C8       1.0000 0.65130  0.98530  0.90840  Biso   1.000  C
  H3       1.0000 0.39710  0.47160  0.18490  Biso   1.000  H
  H4       1.0000 0.60290  0.97160  0.81510  Biso   1.000  H
  C9       1.0000 0.18910  0.44470  0.03270  Biso   1.000  C
  C10      1.0000 0.81090  0.94470  0.96730  Biso   1.000  C
  H5       1.0000 0.13000  0.40590  0.08830  Biso   1.000  H
  H6       1.0000 0.87000  0.90590  0.91170  Biso   1.000  H
  C11      1.0000 0.11010  0.45900  0.89140  Biso   1.000  C
  C12      1.0000 0.88990  0.95900  0.10860  Biso   1.000  C
  C13      1.0000 0.93610  0.41430  0.83820  Biso   1.000  C
  C14      1.0000 0.06390  0.91430  0.16180  Biso   1.000  C
  C15      1.0000 0.67610  0.58050  0.19820  Biso   1.000  C
  C16      1.0000 0.32390  0.08050  0.80180  Biso   1.000  C
  H7       1.0000 0.63050  0.65970  0.24740  Biso   1.000  H
  H8       1.0000 0.36950  0.15970  0.75260  Biso   1.000  H
  H9       1.0000 0.78910  0.60530  0.21570  Biso   1.000  H
  H10      1.0000 0.21090  0.10530  0.78430  Biso   1.000  H
  H11      1.0000 0.66400  0.46590  0.22710  Biso   1.000  H
  H12      1.0000 0.33600  0.96590  0.77290  Biso   1.000  H
  C17      1.0000 0.83580  0.42960  0.93310  Biso   1.000  C
  C18      1.0000 0.16420  0.92960  0.06690  Biso   1.000  C
  H13      1.0000 0.73040  0.47270  0.88410  Biso   1.000  H
  H14      1.0000 0.26960  0.97270  0.11590  Biso   1.000  H
  H15      1.0000 0.88760  0.50680  0.00590  Biso   1.000  H
  H16      1.0000 0.11240  0.00680  0.99410  Biso   1.000  H
  H17      1.0000 0.82520  0.31910  0.97020  Biso   1.000  H
  H18      1.0000 0.17480  0.81910  0.02980  Biso   1.000  H
  C19      1.0000 0.69680  0.34540  0.65330  Biso   1.000  C
  C20      1.0000 0.30320  0.84540  0.34670  Biso   1.000  C
  H19      1.0000 0.63990  0.45090  0.61890  Biso   1.000  H
  H20      1.0000 0.36010  0.95090  0.38110  Biso   1.000  H
  H21      1.0000 0.65370  0.29920  0.72230  Biso   1.000  H
  H22      1.0000 0.34630  0.79920  0.27770  Biso   1.000  H
  C21      1.0000 0.67500  0.21810  0.53860  Biso   1.000  C
  C22      1.0000 0.32500  0.71810  0.46140  Biso   1.000  C
  H23      1.0000 0.70900  0.10510  0.57530  Biso   1.000  H
  H24      1.0000 0.29100  0.60510  0.42470  Biso   1.000  H
  H25      1.0000 0.56190  0.21230  0.48430  Biso   1.000  H
  H26      1.0000 0.43810  0.71230  0.51570  Biso   1.000  H
  Cu1      1.0000 0.96736  0.39790  0.56694  Biso   1.000  Cu
  Cu2      1.0000 0.03264  0.89790  0.43306  Biso   1.000  Cu
  N1       1.0000 0.87100  0.37830  0.71160  Biso   1.000  N
  N2       1.0000 0.12900  0.87830  0.28840  Biso   1.000  N
  N3       1.0000 0.15110  0.28770  0.41650  Biso   1.000  N
  N4       1.0000 0.84890  0.78770  0.58350  Biso   1.000  N
  O1       1.0000 0.14720  0.52570  0.67360  Biso   1.000  O
  O2       1.0000 0.85280  0.02570  0.32640  Biso   1.000  O
  O3       1.0000 0.77260  0.27410  0.45510  Biso   1.000  O
  O4       1.0000 0.22740  0.77410  0.54490  Biso   1.000  O
  O5       1.0000 0.04970  0.41080  0.40680  Biso   1.000  O
  O6       1.0000 0.95030  0.91080  0.59320  Biso   1.000  O
  O7       1.0000 0.59500  0.59610  0.05710  Biso   1.000  O
  O8       1.0000 0.40500  0.09610  0.94290  Biso   1.000  O
  O9       1.0000 0.22560  0.27920  0.33400  Biso   1.000  O
  O10      1.0000 0.77440  0.77920  0.66600  Biso   1.000  O
  O11      1.0000 0.16540  0.18090  0.50890  Biso   1.000  O
  O12      1.0000 0.83460  0.68090  0.49110  Biso   1.000  O
