data_image0
_cell_length_a       9.362
_cell_length_b       12.469
_cell_length_c       17.57
_cell_angle_alpha    90
_cell_angle_beta     92.208
_cell_angle_gamma    90

_symmetry_space_group_name_H-M    "P 1"
_symmetry_int_tables_number       1

loop_
  _symmetry_equiv_pos_as_xyz
  'x, y, z'

loop_
  _atom_site_label
  _atom_site_occupancy
  _atom_site_fract_x
  _atom_site_fract_y
  _atom_site_fract_z
  _atom_site_thermal_displace_type
  _atom_site_B_iso_or_equiv
  _atom_site_type_symbol
  Cu1      1.0000 0.50000  0.50000  0.00000  Biso   1.000  Cu
  Cu2      1.0000 0.50000  0.00000  0.50000  Biso   1.000  Cu
  Cu3      1.0000 0.48050  0.62596  0.71483  Biso   1.000  Cu
  Cu4      1.0000 0.48050  0.87404  0.21483  Biso   1.000  Cu
  Cu5      1.0000 0.51950  0.37404  0.28517  Biso   1.000  Cu
  Cu6      1.0000 0.51950  0.12596  0.78517  Biso   1.000  Cu
  N1       1.0000 0.35620  0.56570  0.93110  Biso   1.000  N
  N2       1.0000 0.35620  0.93430  0.43110  Biso   1.000  N
  N3       1.0000 0.64380  0.43430  0.06890  Biso   1.000  N
  N4       1.0000 0.64380  0.06570  0.56890  Biso   1.000  N
  H1       1.0000 0.27330  0.57660  0.94900  Biso   1.000  H
  H2       1.0000 0.27330  0.92340  0.44900  Biso   1.000  H
  H3       1.0000 0.72670  0.42340  0.05100  Biso   1.000  H
  H4       1.0000 0.72670  0.07660  0.55100  Biso   1.000  H
  N5       1.0000 0.49020  0.58130  0.82170  Biso   1.000  N
  N6       1.0000 0.49020  0.91870  0.32170  Biso   1.000  N
  N7       1.0000 0.50980  0.41870  0.17830  Biso   1.000  N
  N8       1.0000 0.50980  0.08130  0.67830  Biso   1.000  N
  N9       1.0000 0.63290  0.49940  0.91730  Biso   1.000  N
  N10      1.0000 0.63290  0.00060  0.41730  Biso   1.000  N
  N11      1.0000 0.36710  0.50060  0.08270  Biso   1.000  N
  N12      1.0000 0.36710  0.99940  0.58270  Biso   1.000  N
  H5       1.0000 0.71620  0.47260  0.92720  Biso   1.000  H
  H6       1.0000 0.71620  0.02740  0.42720  Biso   1.000  H
  H7       1.0000 0.28380  0.52740  0.07280  Biso   1.000  H
  H8       1.0000 0.28380  0.97260  0.57280  Biso   1.000  H
  N13      1.0000 0.28690  0.66980  0.74330  Biso   1.000  N
  N14      1.0000 0.28690  0.83020  0.24330  Biso   1.000  N
  N15      1.0000 0.71310  0.33020  0.25670  Biso   1.000  N
  N16      1.0000 0.71310  0.16980  0.75670  Biso   1.000  N
  N17      1.0000 0.26410  0.64680  0.81870  Biso   1.000  N
  N18      1.0000 0.26410  0.85320  0.31870  Biso   1.000  N
  N19      1.0000 0.73590  0.35320  0.18130  Biso   1.000  N
  N20      1.0000 0.73590  0.14680  0.68130  Biso   1.000  N
  N21      1.0000 0.67680  0.56680  0.72180  Biso   1.000  N
  N22      1.0000 0.67680  0.93320  0.22180  Biso   1.000  N
  N23      1.0000 0.32320  0.43320  0.27820  Biso   1.000  N
  N24      1.0000 0.32320  0.06680  0.77820  Biso   1.000  N
  N25      1.0000 0.71320  0.53000  0.79380  Biso   1.000  N
  N26      1.0000 0.71320  0.97000  0.29380  Biso   1.000  N
  N27      1.0000 0.28680  0.47000  0.20620  Biso   1.000  N
  N28      1.0000 0.28680  0.03000  0.70620  Biso   1.000  N
  N29      1.0000 0.47650  0.66740  0.60730  Biso   1.000  N
  N30      1.0000 0.47650  0.83260  0.10730  Biso   1.000  N
  N31      1.0000 0.52350  0.33260  0.39270  Biso   1.000  N
  N32      1.0000 0.52350  0.16740  0.89270  Biso   1.000  N
  N33      1.0000 0.40150  0.62340  0.55030  Biso   1.000  N
  N34      1.0000 0.40150  0.87660  0.05030  Biso   1.000  N
  N35      1.0000 0.59850  0.37660  0.44970  Biso   1.000  N
  N36      1.0000 0.59850  0.12340  0.94970  Biso   1.000  N
  H9       1.0000 0.33030  0.58070  0.55500  Biso   1.000  H
  H10      1.0000 0.33030  0.91930  0.05500  Biso   1.000  H
  H11      1.0000 0.66970  0.41930  0.44500  Biso   1.000  H
  H12      1.0000 0.66970  0.08070  0.94500  Biso   1.000  H
  C1       1.0000 0.37310  0.59390  0.86230  Biso   1.000  C
  C2       1.0000 0.37310  0.90610  0.36230  Biso   1.000  C
  C3       1.0000 0.62690  0.40610  0.13770  Biso   1.000  C
  C4       1.0000 0.62690  0.09390  0.63770  Biso   1.000  C
  C5       1.0000 0.60860  0.53490  0.84950  Biso   1.000  C
  C6       1.0000 0.60860  0.96510  0.34950  Biso   1.000  C
  C7       1.0000 0.39140  0.46510  0.15050  Biso   1.000  C
  C8       1.0000 0.39140  0.03490  0.65050  Biso   1.000  C
  C9       1.0000 0.17260  0.71680  0.71640  Biso   1.000  C
  C10      1.0000 0.17260  0.78320  0.21640  Biso   1.000  C
  C11      1.0000 0.82740  0.28320  0.28360  Biso   1.000  C
  C12      1.0000 0.82740  0.21680  0.78360  Biso   1.000  C
  H13      1.0000 0.15950  0.74050  0.66640  Biso   1.000  H
  H14      1.0000 0.15950  0.75950  0.16640  Biso   1.000  H
  H15      1.0000 0.84050  0.25950  0.33360  Biso   1.000  H
  H16      1.0000 0.84050  0.24050  0.83360  Biso   1.000  H
  C13      1.0000 0.07060  0.72720  0.77300  Biso   1.000  C
  C14      1.0000 0.07060  0.77280  0.27300  Biso   1.000  C
  C15      1.0000 0.92940  0.27280  0.22700  Biso   1.000  C
  C16      1.0000 0.92940  0.22720  0.72700  Biso   1.000  C
  H17      1.0000 0.98010  0.75760  0.76760  Biso   1.000  H
  H18      1.0000 0.98010  0.74240  0.26760  Biso   1.000  H
  H19      1.0000 0.01990  0.24240  0.23240  Biso   1.000  H
  H20      1.0000 0.01990  0.25760  0.73240  Biso   1.000  H
  C17      1.0000 0.13180  0.68380  0.83650  Biso   1.000  C
  C18      1.0000 0.13180  0.81620  0.33650  Biso   1.000  C
  C19      1.0000 0.86820  0.31620  0.16350  Biso   1.000  C
  C20      1.0000 0.86820  0.18380  0.66350  Biso   1.000  C
  H21      1.0000 0.09140  0.67960  0.88390  Biso   1.000  H
  H22      1.0000 0.09140  0.82040  0.38390  Biso   1.000  H
  H23      1.0000 0.90860  0.32040  0.11610  Biso   1.000  H
  H24      1.0000 0.90860  0.17960  0.61610  Biso   1.000  H
  C21      1.0000 0.79030  0.55190  0.68220  Biso   1.000  C
  C22      1.0000 0.79030  0.94810  0.18220  Biso   1.000  C
  C23      1.0000 0.20970  0.44810  0.31780  Biso   1.000  C
  C24      1.0000 0.20970  0.05190  0.81780  Biso   1.000  C
  H25      1.0000 0.79670  0.57070  0.63120  Biso   1.000  H
  H26      1.0000 0.79670  0.92930  0.13120  Biso   1.000  H
  H27      1.0000 0.20330  0.42930  0.36880  Biso   1.000  H
  H28      1.0000 0.20330  0.07070  0.86880  Biso   1.000  H
  C25      1.0000 0.89890  0.50520  0.72510  Biso   1.000  C
  C26      1.0000 0.89890  0.99480  0.22510  Biso   1.000  C
  C27      1.0000 0.10110  0.49480  0.27490  Biso   1.000  C
  C28      1.0000 0.10110  0.00520  0.77490  Biso   1.000  C
  H29      1.0000 0.98880  0.48640  0.70880  Biso   1.000  H
  H30      1.0000 0.98880  0.01360  0.20880  Biso   1.000  H
  H31      1.0000 0.01120  0.51360  0.29120  Biso   1.000  H
  H32      1.0000 0.01120  0.98640  0.79120  Biso   1.000  H
  C29      1.0000 0.84850  0.49170  0.79660  Biso   1.000  C
  C30      1.0000 0.84850  0.00830  0.29660  Biso   1.000  C
  C31      1.0000 0.15150  0.50830  0.20340  Biso   1.000  C
  C32      1.0000 0.15150  0.99170  0.70340  Biso   1.000  C
  H33      1.0000 0.89750  0.46210  0.83860  Biso   1.000  H
  H34      1.0000 0.89750  0.03790  0.33860  Biso   1.000  H
  H35      1.0000 0.10250  0.53790  0.16140  Biso   1.000  H
  H36      1.0000 0.10250  0.96210  0.66140  Biso   1.000  H
  C33      1.0000 0.57890  0.72660  0.57490  Biso   1.000  C
  C34      1.0000 0.57890  0.77340  0.07490  Biso   1.000  C
  C35      1.0000 0.42110  0.27340  0.42510  Biso   1.000  C
  C36      1.0000 0.42110  0.22660  0.92510  Biso   1.000  C
  H37      1.0000 0.64900  0.76570  0.60160  Biso   1.000  H
  H38      1.0000 0.64900  0.73430  0.10160  Biso   1.000  H
  H39      1.0000 0.35100  0.23430  0.39840  Biso   1.000  H
  H40      1.0000 0.35100  0.26570  0.89840  Biso   1.000  H
  C37      1.0000 0.56470  0.72070  0.49820  Biso   1.000  C
  C38      1.0000 0.56470  0.77930  0.99820  Biso   1.000  C
  C39      1.0000 0.43530  0.27930  0.50180  Biso   1.000  C
  C40      1.0000 0.43530  0.22070  0.00180  Biso   1.000  C
  H41      1.0000 0.62100  0.75510  0.46320  Biso   1.000  H
  H42      1.0000 0.62100  0.74490  0.96320  Biso   1.000  H
  H43      1.0000 0.37900  0.24490  0.53680  Biso   1.000  H
  H44      1.0000 0.37900  0.25510  0.03680  Biso   1.000  H
  C41      1.0000 0.45470  0.65610  0.48240  Biso   1.000  C
  C42      1.0000 0.45470  0.84390  0.98240  Biso   1.000  C
  C43      1.0000 0.54530  0.34390  0.51760  Biso   1.000  C
  C44      1.0000 0.54530  0.15610  0.01760  Biso   1.000  C
  H45      1.0000 0.41990  0.63660  0.43400  Biso   1.000  H
  H46      1.0000 0.41990  0.86340  0.93400  Biso   1.000  H
  H47      1.0000 0.58010  0.36340  0.56600  Biso   1.000  H
  H48      1.0000 0.58010  0.13660  0.06600  Biso   1.000  H
  Cl1      1.0000 0.33818  0.36205  0.71518  Biso   1.000  Cl
  Cl2      1.0000 0.33818  0.13795  0.21518  Biso   1.000  Cl
  Cl3      1.0000 0.66182  0.63795  0.28482  Biso   1.000  Cl
  Cl4      1.0000 0.66182  0.86205  0.78482  Biso   1.000  Cl
  O1       1.0000 0.27590  0.27910  0.66950  Biso   1.000  O
  O2       1.0000 0.27590  0.22090  0.16950  Biso   1.000  O
  O3       1.0000 0.72410  0.72090  0.33050  Biso   1.000  O
  O4       1.0000 0.72410  0.77910  0.83050  Biso   1.000  O
  O5       1.0000 0.38190  0.44800  0.66990  Biso   1.000  O
  O6       1.0000 0.38190  0.05200  0.16990  Biso   1.000  O
  O7       1.0000 0.61810  0.55200  0.33010  Biso   1.000  O
  O8       1.0000 0.61810  0.94800  0.83010  Biso   1.000  O
  O9       1.0000 0.24230  0.40060  0.76670  Biso   1.000  O
  O10      1.0000 0.24230  0.09940  0.26670  Biso   1.000  O
  O11      1.0000 0.75770  0.59940  0.23330  Biso   1.000  O
  O12      1.0000 0.75770  0.90060  0.73330  Biso   1.000  O
  O13      1.0000 0.45910  0.32210  0.75490  Biso   1.000  O
  O14      1.0000 0.45910  0.17790  0.25490  Biso   1.000  O
  O15      1.0000 0.54090  0.67790  0.24510  Biso   1.000  O
  O16      1.0000 0.54090  0.82210  0.74510  Biso   1.000  O
  Cl5      1.0000 0.03942  0.16201  0.46312  Biso   1.000  Cl
  Cl6      1.0000 0.03942  0.33799  0.96312  Biso   1.000  Cl
  Cl7      1.0000 0.96058  0.83799  0.53688  Biso   1.000  Cl
  Cl8      1.0000 0.96058  0.66201  0.03688  Biso   1.000  Cl
  O17      1.0000 0.88590  0.15460  0.46490  Biso   1.000  O
  O18      1.0000 0.88590  0.34540  0.96490  Biso   1.000  O
  O19      1.0000 0.11410  0.84540  0.53510  Biso   1.000  O
  O20      1.0000 0.11410  0.65460  0.03510  Biso   1.000  O
  O21      1.0000 0.07940  0.24310  0.41410  Biso   1.000  O
  O22      1.0000 0.07940  0.25690  0.91410  Biso   1.000  O
  O23      1.0000 0.92060  0.75690  0.58590  Biso   1.000  O
  O24      1.0000 0.92060  0.74310  0.08590  Biso   1.000  O
  O25      1.0000 0.10120  0.16110  0.53520  Biso   1.000  O
  O26      1.0000 0.10120  0.33890  0.03520  Biso   1.000  O
  O27      1.0000 0.89880  0.83890  0.46480  Biso   1.000  O
  O28      1.0000 0.89880  0.66110  0.96480  Biso   1.000  O
  O29      1.0000 0.09120  0.06390  0.42780  Biso   1.000  O
  O30      1.0000 0.09120  0.43610  0.92780  Biso   1.000  O
  O31      1.0000 0.90880  0.93610  0.57220  Biso   1.000  O
  O32      1.0000 0.90880  0.56390  0.07220  Biso   1.000  O
  O33      1.0000 0.10600  0.49600  0.51970  Biso   1.000  O
  O34      1.0000 0.10600  0.00400  0.01970  Biso   1.000  O
  O35      1.0000 0.89400  0.50400  0.48030  Biso   1.000  O
  O36      1.0000 0.89400  0.99600  0.98030  Biso   1.000  O
  H49      1.0000 0.19700  0.45470  0.51710  Biso   1.000  H
  H50      1.0000 0.19700  0.04530  0.01710  Biso   1.000  H
  H51      1.0000 0.80300  0.54530  0.48290  Biso   1.000  H
  H52      1.0000 0.80300  0.95470  0.98290  Biso   1.000  H
  H53      1.0000 0.03980  0.45070  0.52750  Biso   1.000  H
  H54      1.0000 0.03980  0.04930  0.02750  Biso   1.000  H
  H55      1.0000 0.96020  0.54930  0.47250  Biso   1.000  H
  H56      1.0000 0.96020  0.95070  0.97250  Biso   1.000  H
