data_image0
_cell_length_a       6.95
_cell_length_b       17.6
_cell_length_c       10
_cell_angle_alpha    90
_cell_angle_beta     90
_cell_angle_gamma    112.5

_symmetry_space_group_name_H-M    "P 1"
_symmetry_int_tables_number       1

loop_
  _symmetry_equiv_pos_as_xyz
  'x, y, z'

loop_
  _atom_site_label
  _atom_site_occupancy
  _atom_site_fract_x
  _atom_site_fract_y
  _atom_site_fract_z
  _atom_site_thermal_displace_type
  _atom_site_B_iso_or_equiv
  _atom_site_type_symbol
  Cu1      1.0000 0.14800  0.28850  0.15580  Biso   1.000  Cu
  Cu2      1.0000 0.85200  0.21150  0.65580  Biso   1.000  Cu
  Cu3      1.0000 0.85200  0.71150  0.84420  Biso   1.000  Cu
  Cu4      1.0000 0.14800  0.78850  0.34420  Biso   1.000  Cu
  K1       1.0000 0.26180  0.39440  0.53850  Biso   1.000  K
  K2       1.0000 0.73820  0.10560  0.03850  Biso   1.000  K
  K3       1.0000 0.73820  0.60560  0.46150  Biso   1.000  K
  K4       1.0000 0.26180  0.89440  0.96150  Biso   1.000  K
  O1       1.0000 0.18600  0.18300  0.17300  Biso   1.000  O
  O2       1.0000 0.81400  0.31700  0.67300  Biso   1.000  O
  O3       1.0000 0.81400  0.81700  0.82700  Biso   1.000  O
  O4       1.0000 0.18600  0.68300  0.32700  Biso   1.000  O
  O5       1.0000 0.37000  0.11400  0.10600  Biso   1.000  O
  O6       1.0000 0.63000  0.38600  0.60600  Biso   1.000  O
  O7       1.0000 0.63000  0.88600  0.89400  Biso   1.000  O
  O8       1.0000 0.37000  0.61400  0.39400  Biso   1.000  O
  O9       1.0000 0.12600  0.26500  0.73000  Biso   1.000  O
  O10      1.0000 0.87400  0.23500  0.23000  Biso   1.000  O
  O11      1.0000 0.87400  0.73500  0.27000  Biso   1.000  O
  O12      1.0000 0.12600  0.76500  0.77000  Biso   1.000  O
  O13      1.0000 0.01600  0.24300  0.94300  Biso   1.000  O
  O14      1.0000 0.98400  0.25700  0.44300  Biso   1.000  O
  O15      1.0000 0.98400  0.75700  0.05700  Biso   1.000  O
  O16      1.0000 0.01600  0.74300  0.55700  Biso   1.000  O
  O17      1.0000 0.42000  0.36100  0.30200  Biso   1.000  O
  O18      1.0000 0.58000  0.13900  0.80200  Biso   1.000  O
  O19      1.0000 0.58000  0.63900  0.69800  Biso   1.000  O
  O20      1.0000 0.42000  0.86100  0.19800  Biso   1.000  O
  O21      1.0000 0.69800  0.47700  0.28400  Biso   1.000  O
  O22      1.0000 0.30200  0.02300  0.78400  Biso   1.000  O
  O23      1.0000 0.30200  0.52300  0.71600  Biso   1.000  O
  O24      1.0000 0.69800  0.97700  0.21600  Biso   1.000  O
  O25      1.0000 0.12000  0.39800  0.13000  Biso   1.000  O
  O26      1.0000 0.88000  0.10200  0.63000  Biso   1.000  O
  O27      1.0000 0.88000  0.60200  0.87000  Biso   1.000  O
  O28      1.0000 0.12000  0.89800  0.37000  Biso   1.000  O
  O29      1.0000 0.99000  0.42300  0.88600  Biso   1.000  O
  O30      1.0000 0.01000  0.07700  0.38600  Biso   1.000  O
  O31      1.0000 0.01000  0.57700  0.11400  Biso   1.000  O
  O32      1.0000 0.99000  0.92300  0.61400  Biso   1.000  O
  O33      1.0000 0.07300  0.46300  0.35600  Biso   1.000  O
  O34      1.0000 0.92700  0.03700  0.85600  Biso   1.000  O
  O35      1.0000 0.92700  0.53700  0.64400  Biso   1.000  O
  O36      1.0000 0.07300  0.96300  0.14400  Biso   1.000  O
  N1       1.0000 0.41800  0.32400  0.04000  Biso   1.000  N
  N2       1.0000 0.58200  0.17600  0.54000  Biso   1.000  N
  N3       1.0000 0.58200  0.67600  0.96000  Biso   1.000  N
  N4       1.0000 0.41800  0.82400  0.46000  Biso   1.000  N
  C1       1.0000 0.33400  0.18100  0.11600  Biso   1.000  C
  C2       1.0000 0.66600  0.31900  0.61600  Biso   1.000  C
  C3       1.0000 0.66600  0.81900  0.88400  Biso   1.000  C
  C4       1.0000 0.33400  0.68100  0.38400  Biso   1.000  C
  C5       1.0000 0.50100  0.25600  0.05400  Biso   1.000  C
  C6       1.0000 0.49900  0.24400  0.55400  Biso   1.000  C
  C7       1.0000 0.49900  0.74400  0.94600  Biso   1.000  C
  C8       1.0000 0.50100  0.75600  0.44600  Biso   1.000  C
  C9       1.0000 0.15800  0.27400  0.85500  Biso   1.000  C
  C10      1.0000 0.84200  0.22600  0.35500  Biso   1.000  C
  C11      1.0000 0.84200  0.72600  0.14500  Biso   1.000  C
  C12      1.0000 0.15800  0.77400  0.64500  Biso   1.000  C
  C13      1.0000 0.37200  0.33500  0.89900  Biso   1.000  C
  C14      1.0000 0.62800  0.16500  0.39900  Biso   1.000  C
  C15      1.0000 0.62800  0.66500  0.10100  Biso   1.000  C
  C16      1.0000 0.37200  0.83500  0.60100  Biso   1.000  C
  C17      1.0000 0.56300  0.41700  0.23400  Biso   1.000  C
  C18      1.0000 0.43700  0.08300  0.73400  Biso   1.000  C
  C19      1.0000 0.43700  0.58300  0.76600  Biso   1.000  C
  C20      1.0000 0.56300  0.91700  0.26600  Biso   1.000  C
  C21      1.0000 0.56900  0.40700  0.08400  Biso   1.000  C
  C22      1.0000 0.43100  0.09300  0.58400  Biso   1.000  C
  C23      1.0000 0.43100  0.59300  0.91600  Biso   1.000  C
  C24      1.0000 0.56900  0.90700  0.41600  Biso   1.000  C
