data_image0
_cell_length_a       8.793
_cell_length_b       17.17
_cell_length_c       23.846
_cell_angle_alpha    72.657
_cell_angle_beta     89.696
_cell_angle_gamma    80.093

_symmetry_space_group_name_H-M    "P 1"
_symmetry_int_tables_number       1

loop_
  _symmetry_equiv_pos_as_xyz
  'x, y, z'

loop_
  _atom_site_label
  _atom_site_occupancy
  _atom_site_fract_x
  _atom_site_fract_y
  _atom_site_fract_z
  _atom_site_thermal_displace_type
  _atom_site_B_iso_or_equiv
  _atom_site_type_symbol
  Cu1      1.0000 0.46780  0.98140  0.47810  Biso   1.000  Cu
  Cu2      1.0000 0.53220  0.01860  0.52190  Biso   1.000  Cu
  Cu3      1.0000 0.63120  0.49310  0.98440  Biso   1.000  Cu
  Cu4      1.0000 0.36880  0.50690  0.01560  Biso   1.000  Cu
  Cl1      1.0000 0.04790  0.17010  0.52350  Biso   1.000  Cl
  Cl2      1.0000 0.95210  0.82990  0.47650  Biso   1.000  Cl
  Cl3      1.0000 0.78250  0.31130  0.46176  Biso   1.000  Cl
  Cl4      1.0000 0.21750  0.68870  0.53824  Biso   1.000  Cl
  Cl5      1.0000 0.14180  0.40400  0.27570  Biso   1.000  Cl
  Cl6      1.0000 0.85820  0.59600  0.72430  Biso   1.000  Cl
  Cl7      1.0000 0.39500  0.25500  0.33840  Biso   1.000  Cl
  Cl8      1.0000 0.60500  0.74500  0.66160  Biso   1.000  Cl
  Cl9      1.0000 0.77000  0.27500  0.31210  Biso   1.000  Cl
  Cl10     1.0000 0.23000  0.72500  0.68790  Biso   1.000  Cl
  Cl11     1.0000 0.63340  0.30430  0.18800  Biso   1.000  Cl
  Cl12     1.0000 0.36660  0.69570  0.81200  Biso   1.000  Cl
  Cl13     1.0000 0.67260  0.62430  0.13140  Biso   1.000  Cl
  Cl14     1.0000 0.32740  0.37570  0.86860  Biso   1.000  Cl
  Cl15     1.0000 0.81260  0.59900  0.25460  Biso   1.000  Cl
  Cl16     1.0000 0.18740  0.40100  0.74540  Biso   1.000  Cl
  Cl17     1.0000 0.50060  0.45950  0.35720  Biso   1.000  Cl
  Cl18     1.0000 0.49940  0.54050  0.64280  Biso   1.000  Cl
  Cl19     1.0000 0.38760  0.57970  0.42890  Biso   1.000  Cl
  Cl20     1.0000 0.61240  0.42030  0.57110  Biso   1.000  Cl
  Cl21     1.0000 0.62420  0.65930  0.48170  Biso   1.000  Cl
  Cl22     1.0000 0.37580  0.34070  0.51830  Biso   1.000  Cl
  Cl23     1.0000 0.96890  0.62050  0.45926  Biso   1.000  Cl
  Cl24     1.0000 0.03110  0.37950  0.54074  Biso   1.000  Cl
  Cl25     1.0000 0.08490  0.50520  0.38601  Biso   1.000  Cl
  Cl26     1.0000 0.91510  0.49480  0.61399  Biso   1.000  Cl
  O1       1.0000 0.32090  0.08220  0.44150  Biso   1.000  O
  O2       1.0000 0.67910  0.91780  0.55850  Biso   1.000  O
  O3       1.0000 0.57930  0.85620  0.50690  Biso   1.000  O
  O4       1.0000 0.42070  0.14380  0.49310  Biso   1.000  O
  O5       1.0000 0.70900  0.46970  0.06630  Biso   1.000  O
  O6       1.0000 0.29100  0.53030  0.93370  Biso   1.000  O
  O7       1.0000 0.46100  0.48840  0.09770  Biso   1.000  O
  O8       1.0000 0.53900  0.51160  0.90230  Biso   1.000  O
  C1       1.0000 0.32600  0.14580  0.45630  Biso   1.000  C
  C2       1.0000 0.67400  0.85420  0.54370  Biso   1.000  C
  C3       1.0000 0.61000  0.47200  0.10670  Biso   1.000  C
  C4       1.0000 0.39000  0.52800  0.89330  Biso   1.000  C
  C5       1.0000 0.20300  0.22020  0.42640  Biso   1.000  C
  C6       1.0000 0.79700  0.77980  0.57360  Biso   1.000  C
  C7       1.0000 0.07270  0.23350  0.45570  Biso   1.000  C
  C8       1.0000 0.92730  0.76650  0.54430  Biso   1.000  C
  C9       1.0000 0.95370  0.29960  0.42770  Biso   1.000  C
  C10      1.0000 0.04630  0.70040  0.57230  Biso   1.000  C
  C11      1.0000 0.96930  0.35320  0.37090  Biso   1.000  C
  C12      1.0000 0.03070  0.64680  0.62910  Biso   1.000  C
  C13      1.0000 0.10930  0.33890  0.34410  Biso   1.000  C
  C14      1.0000 0.89070  0.66110  0.65590  Biso   1.000  C
  C15      1.0000 0.22200  0.27270  0.37210  Biso   1.000  C
  C16      1.0000 0.77800  0.72730  0.62790  Biso   1.000  C
  C17      1.0000 0.84440  0.42780  0.34140  Biso   1.000  C
  C18      1.0000 0.15560  0.57220  0.65860  Biso   1.000  C
  C19      1.0000 0.78260  0.43760  0.28190  Biso   1.000  C
  C20      1.0000 0.21740  0.56240  0.71810  Biso   1.000  C
  C21      1.0000 0.74740  0.37400  0.26420  Biso   1.000  C
  C22      1.0000 0.25260  0.62600  0.73580  Biso   1.000  C
  C23      1.0000 0.68300  0.38670  0.21310  Biso   1.000  C
  C24      1.0000 0.31700  0.61330  0.78690  Biso   1.000  C
  C25      1.0000 0.65800  0.46000  0.17010  Biso   1.000  C
  C26      1.0000 0.34200  0.54000  0.82990  Biso   1.000  C
  C27      1.0000 0.69900  0.52630  0.18230  Biso   1.000  C
  C28      1.0000 0.30100  0.47370  0.81770  Biso   1.000  C
  C29      1.0000 0.76030  0.51590  0.23980  Biso   1.000  C
  C30      1.0000 0.23970  0.48410  0.76020  Biso   1.000  C
  C31      1.0000 0.79150  0.48240  0.37530  Biso   1.000  C
  C32      1.0000 0.20850  0.51760  0.62470  Biso   1.000  C
  C33      1.0000 0.63840  0.50580  0.38210  Biso   1.000  C
  C34      1.0000 0.36160  0.49420  0.61790  Biso   1.000  C
  C35      1.0000 0.58360  0.55730  0.41510  Biso   1.000  C
  C36      1.0000 0.41640  0.44270  0.58490  Biso   1.000  C
  C37      1.0000 0.68600  0.59440  0.44210  Biso   1.000  C
  C38      1.0000 0.31400  0.40560  0.55790  Biso   1.000  C
  C39      1.0000 0.84280  0.57250  0.43060  Biso   1.000  C
  C40      1.0000 0.15720  0.42750  0.56940  Biso   1.000  C
  C41      1.0000 0.89470  0.51810  0.39780  Biso   1.000  C
  C42      1.0000 0.10530  0.48190  0.60220  Biso   1.000  C
  N1       1.0000 0.66800  0.03720  0.43800  Biso   1.000  N
  N2       1.0000 0.33200  0.96280  0.56200  Biso   1.000  N
  C43      1.0000 0.63300  0.00600  0.40900  Biso   1.000  C
  C44      1.0000 0.36700  0.99400  0.59100  Biso   1.000  C
  C45      1.0000 0.80100  0.05810  0.45120  Biso   1.000  C
  C46      1.0000 0.19900  0.94190  0.54880  Biso   1.000  C
  C47      1.0000 0.90500  0.06790  0.41450  Biso   1.000  C
  C48      1.0000 0.09500  0.93210  0.58550  Biso   1.000  C
  C49      1.0000 0.89000  0.06350  0.36460  Biso   1.000  C
  C50      1.0000 0.11000  0.93650  0.63540  Biso   1.000  C
  C51      1.0000 0.75100  0.03600  0.35470  Biso   1.000  C
  C52      1.0000 0.24900  0.96400  0.64530  Biso   1.000  C
  N3       1.0000 0.35300  0.92860  0.41270  Biso   1.000  N
  N4       1.0000 0.64700  0.07140  0.58730  Biso   1.000  N
  C53      1.0000 0.35100  0.85800  0.40780  Biso   1.000  C
  C54      1.0000 0.64900  0.14200  0.59220  Biso   1.000  C
  C55      1.0000 0.26700  0.82200  0.37800  Biso   1.000  C
  C56      1.0000 0.73300  0.17800  0.62200  Biso   1.000  C
  C57      1.0000 0.25300  0.86700  0.32300  Biso   1.000  C
  C58      1.0000 0.74700  0.13300  0.67700  Biso   1.000  C
  C59      1.0000 0.25400  0.95100  0.31000  Biso   1.000  C
  C60      1.0000 0.74600  0.04900  0.69000  Biso   1.000  C
  C61      1.0000 0.29100  0.97900  0.35670  Biso   1.000  C
  C62      1.0000 0.70900  0.02100  0.64330  Biso   1.000  C
  N5       1.0000 0.40100  0.38000  0.02940  Biso   1.000  N
  N6       1.0000 0.59900  0.62000  0.97060  Biso   1.000  N
  N7       1.0000 0.55600  0.36800  0.01310  Biso   1.000  N
  N8       1.0000 0.44400  0.63200  0.98690  Biso   1.000  N
  C63      1.0000 0.62700  0.28600  0.01900  Biso   1.000  C
  C64      1.0000 0.37300  0.71400  0.98100  Biso   1.000  C
  C65      1.0000 0.53700  0.22500  0.02800  Biso   1.000  C
  C66      1.0000 0.46300  0.77500  0.97200  Biso   1.000  C
  C67      1.0000 0.38600  0.24000  0.04300  Biso   1.000  C
  C68      1.0000 0.61400  0.76000  0.95700  Biso   1.000  C
  C69      1.0000 0.68600  0.68000  0.96300  Biso   1.000  C
  C70      1.0000 0.31400  0.32000  0.03700  Biso   1.000  C
  O9       1.0000 0.11100  0.52500  0.03600  Biso   1.000  O
  O10      1.0000 0.88900  0.47500  0.96400  Biso   1.000  O
  C71      1.0000 0.08300  0.52400  0.09000  Biso   1.000  C
  C72      1.0000 0.91700  0.47600  0.91000  Biso   1.000  C
  C73      1.0000 0.23500  0.50600  0.15200  Biso   1.000  C
  C74      1.0000 0.76500  0.49400  0.84800  Biso   1.000  C
  O11      1.0000 0.26600  0.58400  0.18100  Biso   1.000  O
  O12      1.0000 0.73400  0.41600  0.81900  Biso   1.000  O
  C75      1.0000 0.25700  0.59900  0.23900  Biso   1.000  C
  C76      1.0000 0.74300  0.40100  0.76100  Biso   1.000  C
  C77      1.0000 0.32700  0.66200  0.24500  Biso   1.000  C
  C78      1.0000 0.67300  0.33800  0.75500  Biso   1.000  C
  O13      1.0000 0.81600  0.79600  0.31800  Biso   1.000  O
  O14      1.0000 0.18400  0.20400  0.68200  Biso   1.000  O
  C79      1.0000 0.65500  0.82300  0.29500  Biso   1.000  C
  C80      1.0000 0.34500  0.17700  0.70500  Biso   1.000  C
  C81      1.0000 0.64500  0.83100  0.23200  Biso   1.000  C
  C82      1.0000 0.35500  0.16900  0.76800  Biso   1.000  C
  O15      1.0000 0.24500  0.15800  0.23600  Biso   1.000  O
  O16      1.0000 0.75500  0.84200  0.76400  Biso   1.000  O
  C83      1.0000 0.08700  0.19600  0.21500  Biso   1.000  C
  C84      1.0000 0.91300  0.80400  0.78500  Biso   1.000  C
  C85      1.0000 0.08900  0.26000  0.15800  Biso   1.000  C
  C86      1.0000 0.91100  0.74000  0.84200  Biso   1.000  C
