data_image0
_cell_length_a       8.5956
_cell_length_b       13.8546
_cell_length_c       14.8091
_cell_angle_alpha    87.168
_cell_angle_beta     86.264
_cell_angle_gamma    85.425

_symmetry_space_group_name_H-M    "P 1"
_symmetry_int_tables_number       1

loop_
  _symmetry_equiv_pos_as_xyz
  'x, y, z'

loop_
  _atom_site_label
  _atom_site_occupancy
  _atom_site_fract_x
  _atom_site_fract_y
  _atom_site_fract_z
  _atom_site_thermal_displace_type
  _atom_site_B_iso_or_equiv
  _atom_site_type_symbol
  Ag1      1.0000 0.22398  0.54876  0.27725  Biso   1.000  Ag
  Ag2      1.0000 0.77602  0.45124  0.72275  Biso   1.000  Ag
  Cu1      1.0000 0.66018  0.96940  0.26309  Biso   1.000  Cu
  Cu2      1.0000 0.33982  0.03060  0.73691  Biso   1.000  Cu
  Cu3      1.0000 0.78584  0.13430  0.25656  Biso   1.000  Cu
  Cu4      1.0000 0.21416  0.86570  0.74344  Biso   1.000  Cu
  O1       1.0000 0.33030  0.44350  0.41460  Biso   1.000  O
  O2       1.0000 0.66970  0.55650  0.58540  Biso   1.000  O
  O3       1.0000 0.17640  0.56400  0.46100  Biso   1.000  O
  O4       1.0000 0.82360  0.43600  0.53900  Biso   1.000  O
  O5       1.0000 0.29140  0.46560  0.55870  Biso   1.000  O
  O6       1.0000 0.70860  0.53440  0.44130  Biso   1.000  O
  O7       1.0000 0.66420  0.98860  0.13100  Biso   1.000  O
  O8       1.0000 0.33580  0.01140  0.86900  Biso   1.000  O
  O9       1.0000 0.75450  0.13620  0.12630  Biso   1.000  O
  O10      1.0000 0.24550  0.86380  0.87370  Biso   1.000  O
  O11      1.0000 0.87870  0.91550  0.25430  Biso   1.000  O
  O12      1.0000 0.12130  0.08450  0.74570  Biso   1.000  O
  O13      1.0000 0.98610  0.05690  0.23480  Biso   1.000  O
  O14      1.0000 0.01390  0.94310  0.76520  Biso   1.000  O
  O15      1.0000 0.67390  0.97250  0.39480  Biso   1.000  O
  O16      1.0000 0.32610  0.02750  0.60520  Biso   1.000  O
  O17      1.0000 0.80240  0.10680  0.38720  Biso   1.000  O
  O18      1.0000 0.19760  0.89320  0.61280  Biso   1.000  O
  O19      1.0000 0.45940  0.04750  0.27240  Biso   1.000  O
  O20      1.0000 0.54060  0.95250  0.72760  Biso   1.000  O
  O21      1.0000 0.56880  0.18730  0.28000  Biso   1.000  O
  O22      1.0000 0.43120  0.81270  0.72000  Biso   1.000  O
  N1       1.0000 0.06920  0.43300  0.26190  Biso   1.000  N
  N2       1.0000 0.93080  0.56700  0.73810  Biso   1.000  N
  N3       1.0000 0.89170  0.27390  0.25690  Biso   1.000  N
  N4       1.0000 0.10830  0.72610  0.74310  Biso   1.000  N
  N5       1.0000 0.37710  0.66710  0.26950  Biso   1.000  N
  N6       1.0000 0.62290  0.33290  0.73050  Biso   1.000  N
  N7       1.0000 0.55260  0.82880  0.26530  Biso   1.000  N
  N8       1.0000 0.44740  0.17120  0.73470  Biso   1.000  N
  N9       1.0000 0.26740  0.49190  0.47920  Biso   1.000  N
  N10      1.0000 0.73260  0.50810  0.52080  Biso   1.000  N
  C1       1.0000 0.98990  0.39820  0.33540  Biso   1.000  C
  C2       1.0000 0.01010  0.60180  0.66460  Biso   1.000  C
  H1       1.0000 0.99390  0.42890  0.39110  Biso   1.000  H
  H2       1.0000 0.00610  0.57110  0.60890  Biso   1.000  H
  C3       1.0000 0.90230  0.31910  0.33320  Biso   1.000  C
  C4       1.0000 0.09770  0.68090  0.66680  Biso   1.000  C
  H3       1.0000 0.84850  0.29660  0.38730  Biso   1.000  H
  H4       1.0000 0.15150  0.70340  0.61270  Biso   1.000  H
  C5       1.0000 0.96470  0.31020  0.18090  Biso   1.000  C
  C6       1.0000 0.03530  0.68980  0.81910  Biso   1.000  C
  H5       1.0000 0.95610  0.28070  0.12510  Biso   1.000  H
  H6       1.0000 0.04390  0.71930  0.87490  Biso   1.000  H
  C7       1.0000 0.05270  0.39030  0.18280  Biso   1.000  C
  C8       1.0000 0.94730  0.60970  0.81720  Biso   1.000  C
  C9       1.0000 0.12840  0.43070  0.10250  Biso   1.000  C
  C10      1.0000 0.87160  0.56930  0.89750  Biso   1.000  C
  C11      1.0000 0.19030  0.46530  0.03480  Biso   1.000  C
  C12      1.0000 0.80970  0.53470  0.96520  Biso   1.000  C
  C13      1.0000 0.26610  0.50450  0.95280  Biso   1.000  C
  C14      1.0000 0.73390  0.49550  0.04720  Biso   1.000  C
  C15      1.0000 0.24980  0.46390  0.87040  Biso   1.000  C
  C16      1.0000 0.75020  0.53610  0.12960  Biso   1.000  C
  H7       1.0000 0.18660  0.41100  0.86790  Biso   1.000  H
  H8       1.0000 0.81340  0.58900  0.13210  Biso   1.000  H
  C17      1.0000 0.32450  0.49970  0.79230  Biso   1.000  C
  C18      1.0000 0.67550  0.50030  0.20770  Biso   1.000  C
  H9       1.0000 0.31340  0.47080  0.73650  Biso   1.000  H
  H10      1.0000 0.68660  0.52920  0.26350  Biso   1.000  H
  C19      1.0000 0.41590  0.57750  0.79440  Biso   1.000  C
  C20      1.0000 0.58410  0.42250  0.20560  Biso   1.000  C
  H11      1.0000 0.46730  0.60150  0.74010  Biso   1.000  H
  H12      1.0000 0.53270  0.39850  0.25990  Biso   1.000  H
  C21      1.0000 0.43260  0.62060  0.87550  Biso   1.000  C
  C22      1.0000 0.56740  0.37940  0.12450  Biso   1.000  C
  H13      1.0000 0.49550  0.67370  0.87740  Biso   1.000  H
  H14      1.0000 0.50450  0.32630  0.12260  Biso   1.000  H
  C23      1.0000 0.35420  0.58370  0.95560  Biso   1.000  C
  C24      1.0000 0.64580  0.41630  0.04440  Biso   1.000  C
  C25      1.0000 0.37460  0.63020  0.03930  Biso   1.000  C
  C26      1.0000 0.62540  0.36980  0.96070  Biso   1.000  C
  C27      1.0000 0.39530  0.66680  0.10840  Biso   1.000  C
  C28      1.0000 0.60470  0.33320  0.89160  Biso   1.000  C
  C29      1.0000 0.43270  0.71000  0.19060  Biso   1.000  C
  C30      1.0000 0.56730  0.29000  0.80940  Biso   1.000  C
  C31      1.0000 0.51830  0.78970  0.18870  Biso   1.000  C
  C32      1.0000 0.48170  0.21030  0.81130  Biso   1.000  C
  H15      1.0000 0.55390  0.81760  0.13200  Biso   1.000  H
  H16      1.0000 0.44610  0.18240  0.86800  Biso   1.000  H
  C33      1.0000 0.50310  0.78620  0.34310  Biso   1.000  C
  C34      1.0000 0.49690  0.21380  0.65690  Biso   1.000  C
  H17      1.0000 0.52880  0.81100  0.39840  Biso   1.000  H
  H18      1.0000 0.47120  0.18900  0.60160  Biso   1.000  H
  C35      1.0000 0.41510  0.70690  0.34560  Biso   1.000  C
  C36      1.0000 0.58490  0.29310  0.65440  Biso   1.000  C
  H19      1.0000 0.38020  0.67960  0.40270  Biso   1.000  H
  H20      1.0000 0.61980  0.32040  0.59730  Biso   1.000  H
  C37      1.0000 0.70410  0.06650  0.09020  Biso   1.000  C
  C38      1.0000 0.29590  0.93350  0.90980  Biso   1.000  C
  C39      1.0000 0.69010  0.07280  0.98880  Biso   1.000  C
  C40      1.0000 0.30990  0.92720  0.01120  Biso   1.000  C
  H21      1.0000 0.72840  0.13390  0.96370  Biso   1.000  H
  H22      1.0000 0.27160  0.86610  0.03630  Biso   1.000  H
  H23      1.0000 0.58030  0.07040  0.97560  Biso   1.000  H
  H24      1.0000 0.41970  0.92960  0.02440  Biso   1.000  H
  H25      1.0000 0.75250  0.01830  0.96140  Biso   1.000  H
  H26      1.0000 0.24750  0.98170  0.03860  Biso   1.000  H
  C41      1.0000 0.99400  0.96600  0.24210  Biso   1.000  C
  C42      1.0000 0.00600  0.03400  0.75790  Biso   1.000  C
  C43      1.0000 0.15330  0.91330  0.23750  Biso   1.000  C
  C44      1.0000 0.84670  0.08670  0.76250  Biso   1.000  C
  H27      1.0000 0.16610  0.87180  0.29240  Biso   1.000  H
  H28      1.0000 0.83390  0.12820  0.70760  Biso   1.000  H
  H29      1.0000 0.23310  0.96040  0.23260  Biso   1.000  H
  H30      1.0000 0.76690  0.03960  0.76740  Biso   1.000  H
  H31      1.0000 0.16510  0.87330  0.18430  Biso   1.000  H
  H32      1.0000 0.83490  0.12670  0.81570  Biso   1.000  H
  C45      1.0000 0.74450  0.03620  0.43030  Biso   1.000  C
  C46      1.0000 0.25550  0.96380  0.56970  Biso   1.000  C
  C47      1.0000 0.75990  0.02580  0.53030  Biso   1.000  C
  C48      1.0000 0.24010  0.97420  0.46970  Biso   1.000  C
  H33      1.0000 0.65690  0.01800  0.56110  Biso   1.000  H
  H34      1.0000 0.34310  0.98200  0.43890  Biso   1.000  H
  H35      1.0000 0.80230  0.08380  0.55120  Biso   1.000  H
  H36      1.0000 0.19770  0.91620  0.44880  Biso   1.000  H
  H37      1.0000 0.83060  0.96880  0.54440  Biso   1.000  H
  H38      1.0000 0.16940  0.03120  0.45560  Biso   1.000  H
  C49      1.0000 0.45130  0.13760  0.28070  Biso   1.000  C
  C50      1.0000 0.54870  0.86240  0.71930  Biso   1.000  C
  C51      1.0000 0.29260  0.19030  0.29180  Biso   1.000  C
  C52      1.0000 0.70740  0.80970  0.70820  Biso   1.000  C
  H39      1.0000 0.21230  0.14530  0.28500  Biso   1.000  H
  H40      1.0000 0.78770  0.85470  0.71500  Biso   1.000  H
  H41      1.0000 0.28320  0.24320  0.24560  Biso   1.000  H
  H42      1.0000 0.71680  0.75680  0.75440  Biso   1.000  H
  H43      1.0000 0.27860  0.21700  0.35210  Biso   1.000  H
  H44      1.0000 0.72140  0.78300  0.64790  Biso   1.000  H
  O23      1.0000 0.53640  0.27920  0.45670  Biso   1.000  O
  O24      1.0000 0.46360  0.72080  0.54330  Biso   1.000  O
  H45      1.0000 0.47560  0.34340  0.43350  Biso   1.000  H
  H46      1.0000 0.52440  0.65660  0.56650  Biso   1.000  H
  H47      1.0000 0.54300  0.25830  0.40200  Biso   1.000  H
  H48      1.0000 0.45700  0.74170  0.59800  Biso   1.000  H
  N11      1.0000 0.94620  0.67090  0.26680  Biso   1.000  N
  N12      1.0000 0.05380  0.32910  0.73320  Biso   1.000  N
  C53      1.0000 0.92410  0.70010  0.33610  Biso   1.000  C
  C54      1.0000 0.07590  0.29990  0.66390  Biso   1.000  C
  C55      1.0000 0.89510  0.73940  0.42490  Biso   1.000  C
  C56      1.0000 0.10490  0.26060  0.57510  Biso   1.000  C
  H49      1.0000 0.86020  0.80840  0.41840  Biso   1.000  H
  H50      1.0000 0.13980  0.19160  0.58160  Biso   1.000  H
  H51      1.0000 0.99170  0.73190  0.45710  Biso   1.000  H
  H52      1.0000 0.00830  0.26810  0.54290  Biso   1.000  H
  H53      1.0000 0.81400  0.70470  0.45920  Biso   1.000  H
  H54      1.0000 0.18600  0.29530  0.54080  Biso   1.000  H
  N13      1.0000 0.68370  0.80170  0.94990  Biso   1.000  N
  N14      1.0000 0.31630  0.19830  0.05010  Biso   1.000  N
  C57      1.0000 0.78800  0.80300  0.99190  Biso   1.000  C
  C58      1.0000 0.21200  0.19700  0.00810  Biso   1.000  C
  C59      1.0000 0.92090  0.80370  0.04510  Biso   1.000  C
  C60      1.0000 0.07910  0.19630  0.95490  Biso   1.000  C
  H55      1.0000 0.97010  0.73770  0.05210  Biso   1.000  H
  H56      1.0000 0.02990  0.26230  0.94790  Biso   1.000  H
  H57      1.0000 0.88750  0.82790  0.10480  Biso   1.000  H
  H58      1.0000 0.11250  0.17210  0.89520  Biso   1.000  H
  H59      1.0000 0.99620  0.84590  0.01470  Biso   1.000  H
  H60      1.0000 0.00380  0.15410  0.98530  Biso   1.000  H
