data_image0
_cell_length_a       7.1403
_cell_length_b       10.488
_cell_length_c       10.849
_cell_angle_alpha    87.416
_cell_angle_beta     82.795
_cell_angle_gamma    88.555

_symmetry_space_group_name_H-M    "P 1"
_symmetry_int_tables_number       1

loop_
  _symmetry_equiv_pos_as_xyz
  'x, y, z'

loop_
  _atom_site_label
  _atom_site_occupancy
  _atom_site_fract_x
  _atom_site_fract_y
  _atom_site_fract_z
  _atom_site_thermal_displace_type
  _atom_site_B_iso_or_equiv
  _atom_site_type_symbol
  Cu1      1.0000 0.27998  0.27607  0.70380  Biso   1.000  Cu
  Cu2      1.0000 0.72002  0.72393  0.29620  Biso   1.000  Cu
  C1       1.0000 0.61220  0.11860  0.63350  Biso   1.000  C
  C2       1.0000 0.38780  0.88140  0.36650  Biso   1.000  C
  C3       1.0000 0.74040  0.06050  0.52740  Biso   1.000  C
  C4       1.0000 0.25960  0.93950  0.47260  Biso   1.000  C
  H1       1.0000 0.74980  0.12040  0.45630  Biso   1.000  H
  H2       1.0000 0.25020  0.87960  0.54370  Biso   1.000  H
  H3       1.0000 0.68230  0.98400  0.50390  Biso   1.000  H
  H4       1.0000 0.31770  0.01600  0.49610  Biso   1.000  H
  C5       1.0000 0.93860  0.02590  0.55710  Biso   1.000  C
  C6       1.0000 0.06140  0.97410  0.44290  Biso   1.000  C
  H5       1.0000 0.93030  0.96000  0.62450  Biso   1.000  H
  H6       1.0000 0.06970  0.04000  0.37550  Biso   1.000  H
  C7       1.0000 0.03270  0.14320  0.59900  Biso   1.000  C
  C8       1.0000 0.96730  0.85680  0.40100  Biso   1.000  C
  C9       1.0000 0.58850  0.46260  0.62970  Biso   1.000  C
  C10      1.0000 0.41150  0.53740  0.37030  Biso   1.000  C
  H7       1.0000 0.65880  0.39370  0.59650  Biso   1.000  H
  H8       1.0000 0.34120  0.60630  0.40350  Biso   1.000  H
  C11      1.0000 0.66960  0.58110  0.61950  Biso   1.000  C
  C12      1.0000 0.33040  0.41890  0.38050  Biso   1.000  C
  H9       1.0000 0.79210  0.59220  0.58060  Biso   1.000  H
  H10      1.0000 0.20790  0.40780  0.41940  Biso   1.000  H
  C13      1.0000 0.56530  0.68140  0.66810  Biso   1.000  C
  C14      1.0000 0.43470  0.31860  0.33190  Biso   1.000  C
  H11      1.0000 0.61550  0.76270  0.66100  Biso   1.000  H
  H12      1.0000 0.38450  0.23730  0.33900  Biso   1.000  H
  C15      1.0000 0.38680  0.66290  0.72730  Biso   1.000  C
  C16      1.0000 0.61320  0.33710  0.27270  Biso   1.000  C
  H13      1.0000 0.31700  0.73110  0.76260  Biso   1.000  H
  H14      1.0000 0.68300  0.26890  0.23740  Biso   1.000  H
  C17      1.0000 0.31040  0.54270  0.73430  Biso   1.000  C
  C18      1.0000 0.68960  0.45730  0.26570  Biso   1.000  C
  C19      1.0000 0.11910  0.50980  0.79260  Biso   1.000  C
  C20      1.0000 0.88090  0.49020  0.20740  Biso   1.000  C
  C21      1.0000 0.98930  0.59670  0.84840  Biso   1.000  C
  C22      1.0000 0.01070  0.40330  0.15160  Biso   1.000  C
  H15      1.0000 0.01890  0.68250  0.84900  Biso   1.000  H
  H16      1.0000 0.98110  0.31750  0.15100  Biso   1.000  H
  C23      1.0000 0.81680  0.55470  0.90260  Biso   1.000  C
  C24      1.0000 0.18320  0.44530  0.09740  Biso   1.000  C
  H17      1.0000 0.72890  0.61180  0.94110  Biso   1.000  H
  H18      1.0000 0.27110  0.38820  0.05890  Biso   1.000  H
  C25      1.0000 0.77430  0.42830  0.89980  Biso   1.000  C
  C26      1.0000 0.22570  0.57170  0.10020  Biso   1.000  C
  H19      1.0000 0.65780  0.39850  0.93630  Biso   1.000  H
  H20      1.0000 0.34220  0.60150  0.06370  Biso   1.000  H
  C27      1.0000 0.90780  0.34580  0.84180  Biso   1.000  C
  C28      1.0000 0.09220  0.65420  0.15820  Biso   1.000  C
  H21      1.0000 0.87940  0.25990  0.83950  Biso   1.000  H
  H22      1.0000 0.12060  0.74010  0.16050  Biso   1.000  H
  N1       1.0000 0.41310  0.44240  0.68520  Biso   1.000  N
  N2       1.0000 0.58690  0.55760  0.31480  Biso   1.000  N
  N3       1.0000 0.07600  0.38580  0.78900  Biso   1.000  N
  N4       1.0000 0.92400  0.61420  0.21100  Biso   1.000  N
  O1       1.0000 0.48210  0.19130  0.60060  Biso   1.000  O
  O2       1.0000 0.51790  0.80870  0.39940  Biso   1.000  O
  O3       1.0000 0.63930  0.09520  0.74200  Biso   1.000  O
  O4       1.0000 0.36070  0.90480  0.25800  Biso   1.000  O
  O5       1.0000 0.02320  0.24570  0.54030  Biso   1.000  O
  O6       1.0000 0.97680  0.75430  0.45970  Biso   1.000  O
  O7       1.0000 0.12190  0.12750  0.69500  Biso   1.000  O
  O8       1.0000 0.87810  0.87250  0.30500  Biso   1.000  O
  O9       1.0000 0.39570  0.22570  0.89810  Biso   1.000  O
  O10      1.0000 0.60430  0.77430  0.10190  Biso   1.000  O
  H23      1.0000 0.49320  0.18260  0.88620  Biso   1.000  H
  H24      1.0000 0.50680  0.81740  0.11380  Biso   1.000  H
  H25      1.0000 0.37280  0.18520  0.96790  Biso   1.000  H
  H26      1.0000 0.62720  0.81480  0.03210  Biso   1.000  H
  O11      1.0000 0.16710  0.92010  0.85700  Biso   1.000  O
  O12      1.0000 0.83290  0.07990  0.14300  Biso   1.000  O
  H27      1.0000 0.15830  0.99300  0.82040  Biso   1.000  H
  H28      1.0000 0.84170  0.00700  0.17960  Biso   1.000  H
  H29      1.0000 0.24880  0.95290  0.89600  Biso   1.000  H
  H30      1.0000 0.75120  0.04710  0.10400  Biso   1.000  H
  O13      1.0000 0.78660  0.93820  0.91670  Biso   1.000  O
  O14      1.0000 0.21340  0.06180  0.08330  Biso   1.000  O
  H31      1.0000 0.74980  0.95600  0.84630  Biso   1.000  H
  H32      1.0000 0.25020  0.04400  0.15370  Biso   1.000  H
  H33      1.0000 0.75900  0.96660  0.98910  Biso   1.000  H
  H34      1.0000 0.24100  0.03340  0.01090  Biso   1.000  H
