data_image0
_cell_length_a       5.0304
_cell_length_b       7.725
_cell_length_c       17.011
_cell_angle_alpha    92.706
_cell_angle_beta     97.131
_cell_angle_gamma    102.452

_symmetry_space_group_name_H-M    "P 1"
_symmetry_int_tables_number       1

loop_
  _symmetry_equiv_pos_as_xyz
  'x, y, z'

loop_
  _atom_site_label
  _atom_site_occupancy
  _atom_site_fract_x
  _atom_site_fract_y
  _atom_site_fract_z
  _atom_site_thermal_displace_type
  _atom_site_B_iso_or_equiv
  _atom_site_type_symbol
  C1       1.0000 0.35530  0.92290  0.69690  Biso   1.000  C
  C2       1.0000 0.64470  0.07710  0.30310  Biso   1.000  C
  H1       1.0000 0.17820  0.87840  0.71420  Biso   1.000  H
  H2       1.0000 0.82180  0.12160  0.28580  Biso   1.000  H
  H3       1.0000 0.43350  0.03840  0.72500  Biso   1.000  H
  H4       1.0000 0.56650  0.96160  0.27500  Biso   1.000  H
  C3       1.0000 0.31200  0.94590  0.61450  Biso   1.000  C
  C4       1.0000 0.68800  0.05410  0.38550  Biso   1.000  C
  H5       1.0000 0.48940  0.97260  0.59550  Biso   1.000  H
  H6       1.0000 0.51060  0.02740  0.40450  Biso   1.000  H
  H7       1.0000 0.23190  0.04860  0.60730  Biso   1.000  H
  H8       1.0000 0.76810  0.95140  0.39270  Biso   1.000  H
  C5       1.0000 0.67990  0.83510  0.78970  Biso   1.000  C
  C6       1.0000 0.32010  0.16490  0.21030  Biso   1.000  C
  H9       1.0000 0.66540  0.93800  0.81790  Biso   1.000  H
  H10      1.0000 0.33460  0.06200  0.18210  Biso   1.000  H
  C7       1.0000 0.90610  0.57710  0.79140  Biso   1.000  C
  C8       1.0000 0.09390  0.42290  0.20860  Biso   1.000  C
  C9       1.0000 0.85920  0.73400  0.82900  Biso   1.000  C
  C10      1.0000 0.14080  0.26600  0.17100  Biso   1.000  C
  C11      1.0000 0.17070  0.70970  0.94450  Biso   1.000  C
  C12      1.0000 0.82930  0.29030  0.05550  Biso   1.000  C
  C13      1.0000 0.99550  0.79800  0.90510  Biso   1.000  C
  C14      1.0000 0.00450  0.20200  0.09490  Biso   1.000  C
  H11      1.0000 0.96570  0.90180  0.92890  Biso   1.000  H
  H12      1.0000 0.03430  0.09820  0.07110  Biso   1.000  H
  C15      1.0000 0.09100  0.49290  0.83570  Biso   1.000  C
  C16      1.0000 0.90900  0.50710  0.16430  Biso   1.000  C
  C17      1.0000 0.22130  0.55550  0.90920  Biso   1.000  C
  C18      1.0000 0.77870  0.44450  0.09080  Biso   1.000  C
  H13      1.0000 0.34350  0.49630  0.93600  Biso   1.000  H
  H14      1.0000 0.65650  0.50370  0.06400  Biso   1.000  H
  Cl1      1.0000 0.15340  0.30060  0.79095  Biso   1.000  Cl
  Cl2      1.0000 0.84660  0.69940  0.20905  Biso   1.000  Cl
  Cl3      1.0000 0.34390  0.78810  0.03890  Biso   1.000  Cl
  Cl4      1.0000 0.65610  0.21190  0.96110  Biso   1.000  Cl
  Cu1      1.0000 0.52942  0.58807  0.65206  Biso   1.000  Cu
  Cu2      1.0000 0.47058  0.41193  0.34794  Biso   1.000  Cu
  N1       1.0000 0.53790  0.80040  0.72070  Biso   1.000  N
  N2       1.0000 0.46210  0.19960  0.27930  Biso   1.000  N
  O1       1.0000 0.81900  0.74610  0.56600  Biso   1.000  O
  O2       1.0000 0.18100  0.25390  0.43400  Biso   1.000  O
  O3       1.0000 0.14360  0.80440  0.47440  Biso   1.000  O
  O4       1.0000 0.85640  0.19560  0.52560  Biso   1.000  O
  O5       1.0000 0.20690  0.61060  0.58020  Biso   1.000  O
  O6       1.0000 0.79310  0.38940  0.41980  Biso   1.000  O
  O7       1.0000 0.49600  0.36270  0.59014  Biso   1.000  O
  O8       1.0000 0.50400  0.63730  0.40986  Biso   1.000  O
  H15      1.0000 0.38960  0.33410  0.54640  Biso   1.000  H
  H16      1.0000 0.61040  0.66590  0.45360  Biso   1.000  H
  H17      1.0000 0.64330  0.33150  0.58250  Biso   1.000  H
  H18      1.0000 0.35670  0.66850  0.41750  Biso   1.000  H
  O9       1.0000 0.79510  0.51110  0.72078  Biso   1.000  O
  O10      1.0000 0.20490  0.48890  0.27922  Biso   1.000  O
  S1       1.0000 0.10330  0.76708  0.55548  Biso   1.000  S
  S2       1.0000 0.89670  0.23292  0.44452  Biso   1.000  S
