data_image0
_cell_length_a       12.203
_cell_length_b       15.172
_cell_length_c       15.802
_cell_angle_alpha    102.925
_cell_angle_beta     96.256
_cell_angle_gamma    112.461

_symmetry_space_group_name_H-M    "P 1"
_symmetry_int_tables_number       1

loop_
  _symmetry_equiv_pos_as_xyz
  'x, y, z'

loop_
  _atom_site_label
  _atom_site_occupancy
  _atom_site_fract_x
  _atom_site_fract_y
  _atom_site_fract_z
  _atom_site_thermal_displace_type
  _atom_site_B_iso_or_equiv
  _atom_site_type_symbol
  Cu1      1.0000 0.36024  0.20395  0.44498  Biso   1.000  Cu
  Cu2      1.0000 0.63976  0.79605  0.55502  Biso   1.000  Cu
  Cu3      1.0000 0.65051  0.18543  0.35364  Biso   1.000  Cu
  Cu4      1.0000 0.34949  0.81457  0.64636  Biso   1.000  Cu
  N1       1.0000 0.45720  0.26594  0.36578  Biso   1.000  N
  N2       1.0000 0.54280  0.73406  0.63422  Biso   1.000  N
  N3       1.0000 0.55680  0.26224  0.33986  Biso   1.000  N
  N4       1.0000 0.44320  0.73776  0.66014  Biso   1.000  N
  N5       1.0000 0.56940  0.41600  0.35093  Biso   1.000  N
  N6       1.0000 0.43060  0.58400  0.64907  Biso   1.000  N
  N7       1.0000 0.32640  0.32550  0.45876  Biso   1.000  N
  N8       1.0000 0.67360  0.67450  0.54124  Biso   1.000  N
  N9       1.0000 0.33140  0.18820  0.56387  Biso   1.000  N
  N10      1.0000 0.66860  0.81180  0.43613  Biso   1.000  N
  N11      1.0000 0.45980  0.13230  0.46460  Biso   1.000  N
  N12      1.0000 0.54020  0.86770  0.53540  Biso   1.000  N
  N13      1.0000 0.55240  0.12234  0.43212  Biso   1.000  N
  N14      1.0000 0.44760  0.87766  0.56788  Biso   1.000  N
  N15      1.0000 0.57670  0.11320  0.57139  Biso   1.000  N
  N16      1.0000 0.42330  0.88680  0.42861  Biso   1.000  N
  N17      1.0000 0.76990  0.14930  0.41642  Biso   1.000  N
  N18      1.0000 0.23010  0.85070  0.58358  Biso   1.000  N
  N19      1.0000 0.77680  0.30100  0.32781  Biso   1.000  N
  N20      1.0000 0.22320  0.69900  0.67219  Biso   1.000  N
  C1       1.0000 0.62180  0.35190  0.33262  Biso   1.000  C
  C2       1.0000 0.37820  0.64810  0.66738  Biso   1.000  C
  C3       1.0000 0.46750  0.35800  0.37270  Biso   1.000  C
  C4       1.0000 0.53250  0.64200  0.62730  Biso   1.000  C
  C5       1.0000 0.37930  0.38540  0.41570  Biso   1.000  C
  C6       1.0000 0.62070  0.61460  0.58430  Biso   1.000  C
  C7       1.0000 0.36190  0.47500  0.40650  Biso   1.000  C
  C8       1.0000 0.63810  0.52500  0.59350  Biso   1.000  C
  H1       1.0000 0.28820  0.45440  0.36140  Biso   1.000  H
  H2       1.0000 0.71180  0.54560  0.63860  Biso   1.000  H
  H3       1.0000 0.43220  0.51880  0.38850  Biso   1.000  H
  H4       1.0000 0.56780  0.48120  0.61150  Biso   1.000  H
  H5       1.0000 0.35390  0.51090  0.46370  Biso   1.000  H
  H6       1.0000 0.64610  0.48910  0.53630  Biso   1.000  H
  C9       1.0000 0.23580  0.33620  0.50970  Biso   1.000  C
  C10      1.0000 0.76420  0.66380  0.49030  Biso   1.000  C
  H7       1.0000 0.15370  0.28680  0.47620  Biso   1.000  H
  H8       1.0000 0.84630  0.71320  0.52380  Biso   1.000  H
  H9       1.0000 0.23810  0.40350  0.51730  Biso   1.000  H
  H10      1.0000 0.76190  0.59650  0.48270  Biso   1.000  H
  C11      1.0000 0.25990  0.32110  0.59990  Biso   1.000  C
  C12      1.0000 0.74010  0.67890  0.40010  Biso   1.000  C
  H11      1.0000 0.20590  0.34030  0.63490  Biso   1.000  H
  H12      1.0000 0.79410  0.65970  0.36510  Biso   1.000  H
  H13      1.0000 0.34440  0.36800  0.63030  Biso   1.000  H
  H14      1.0000 0.65560  0.63200  0.36970  Biso   1.000  H
  C13      1.0000 0.24350  0.21780  0.60370  Biso   1.000  C
  C14      1.0000 0.75650  0.78220  0.39630  Biso   1.000  C
  H15      1.0000 0.25320  0.21690  0.66650  Biso   1.000  H
  H16      1.0000 0.74680  0.78310  0.33350  Biso   1.000  H
  H17      1.0000 0.16030  0.16900  0.57190  Biso   1.000  H
  H18      1.0000 0.83970  0.83100  0.42810  Biso   1.000  H
  C15      1.0000 0.39460  0.13320  0.69000  Biso   1.000  C
  C16      1.0000 0.60540  0.86680  0.31000  Biso   1.000  C
  H19      1.0000 0.40920  0.19470  0.73510  Biso   1.000  H
  H20      1.0000 0.59080  0.80530  0.26490  Biso   1.000  H
  H21      1.0000 0.45850  0.11150  0.70450  Biso   1.000  H
  H22      1.0000 0.54150  0.88850  0.29550  Biso   1.000  H
  H23      1.0000 0.31550  0.08120  0.68860  Biso   1.000  H
  H24      1.0000 0.68450  0.91880  0.31140  Biso   1.000  H
  C17      1.0000 0.39530  0.15150  0.60160  Biso   1.000  C
  C18      1.0000 0.60470  0.84850  0.39840  Biso   1.000  C
  C19      1.0000 0.47700  0.12770  0.54770  Biso   1.000  C
  C20      1.0000 0.52300  0.87230  0.45230  Biso   1.000  C
  C21      1.0000 0.62060  0.11230  0.49740  Biso   1.000  C
  C22      1.0000 0.37940  0.88770  0.50260  Biso   1.000  C
  C23      1.0000 0.74120  0.12000  0.48380  Biso   1.000  C
  C24      1.0000 0.25880  0.88000  0.51620  Biso   1.000  C
  C25      1.0000 0.82000  0.10020  0.54790  Biso   1.000  C
  C26      1.0000 0.18000  0.89980  0.45210  Biso   1.000  C
  H25      1.0000 0.77010  0.05860  0.58080  Biso   1.000  H
  H26      1.0000 0.22990  0.94140  0.41920  Biso   1.000  H
  H27      1.0000 0.87920  0.16340  0.58960  Biso   1.000  H
  H28      1.0000 0.12080  0.83660  0.41040  Biso   1.000  H
  H29      1.0000 0.86290  0.06530  0.51570  Biso   1.000  H
  H30      1.0000 0.13710  0.93470  0.48430  Biso   1.000  H
  C27      1.0000 0.89190  0.17180  0.39850  Biso   1.000  C
  C28      1.0000 0.10810  0.82820  0.60150  Biso   1.000  C
  H31      1.0000 0.90570  0.11040  0.38790  Biso   1.000  H
  H32      1.0000 0.09430  0.88960  0.61210  Biso   1.000  H
  H33      1.0000 0.95310  0.22150  0.45160  Biso   1.000  H
  H34      1.0000 0.04690  0.77850  0.54840  Biso   1.000  H
  C29      1.0000 0.90960  0.21120  0.31960  Biso   1.000  C
  C30      1.0000 0.09040  0.78880  0.68040  Biso   1.000  C
  H35      1.0000 0.84820  0.16060  0.26710  Biso   1.000  H
  H36      1.0000 0.15180  0.83940  0.73290  Biso   1.000  H
  H37      1.0000 0.99050  0.21870  0.30830  Biso   1.000  H
  H38      1.0000 0.00950  0.78130  0.69170  Biso   1.000  H
  C31      1.0000 0.90110  0.31000  0.32640  Biso   1.000  C
  C32      1.0000 0.09890  0.69000  0.67360  Biso   1.000  C
  H39      1.0000 0.95720  0.36030  0.38140  Biso   1.000  H
  H40      1.0000 0.04280  0.63970  0.61860  Biso   1.000  H
  H41      1.0000 0.92680  0.33340  0.27520  Biso   1.000  H
  H42      1.0000 0.07320  0.66660  0.72480  Biso   1.000  H
  C33      1.0000 0.82310  0.46580  0.30310  Biso   1.000  C
  C34      1.0000 0.17690  0.53420  0.69690  Biso   1.000  C
  H43      1.0000 0.77140  0.49040  0.27290  Biso   1.000  H
  H44      1.0000 0.22860  0.50960  0.72710  Biso   1.000  H
  H45      1.0000 0.87830  0.45450  0.26580  Biso   1.000  H
  H46      1.0000 0.12170  0.54550  0.73420  Biso   1.000  H
  H47      1.0000 0.87040  0.51520  0.36010  Biso   1.000  H
  H48      1.0000 0.12960  0.48480  0.63990  Biso   1.000  H
  C35      1.0000 0.74600  0.37090  0.31901  Biso   1.000  C
  C36      1.0000 0.25400  0.62910  0.68099  Biso   1.000  C
  Cu5      1.0000 0.85285  0.25763  0.04791  Biso   1.000  Cu
  Cu6      1.0000 0.14715  0.74237  0.95209  Biso   1.000  Cu
  Cu7      1.0000 0.16052  0.21541  0.10383  Biso   1.000  Cu
  Cu8      1.0000 0.83948  0.78459  0.89617  Biso   1.000  Cu
  N21      1.0000 0.90780  0.15540  0.99529  Biso   1.000  N
  N22      1.0000 0.09220  0.84460  0.00471  Biso   1.000  N
  N23      1.0000 0.00460  0.13664  0.01565  Biso   1.000  N
  N24      1.0000 0.99540  0.86336  0.98435  Biso   1.000  N
  N25      1.0000 0.94120  0.08050  0.86850  Biso   1.000  N
  N26      1.0000 0.05880  0.91950  0.13150  Biso   1.000  N
  N27      1.0000 0.75360  0.20800  0.92367  Biso   1.000  N
  N28      1.0000 0.24640  0.79200  0.07633  Biso   1.000  N
  N29      1.0000 0.85410  0.39410  0.06410  Biso   1.000  N
  N30      1.0000 0.14590  0.60590  0.93590  Biso   1.000  N
  N31      1.0000 0.01470  0.34190  0.12770  Biso   1.000  N
  N32      1.0000 0.98530  0.65810  0.87230  Biso   1.000  N
  N33      1.0000 0.11630  0.32840  0.14210  Biso   1.000  N
  N34      1.0000 0.88370  0.67160  0.85790  Biso   1.000  N
  N35      1.0000 0.17210  0.48960  0.15137  Biso   1.000  N
  N36      1.0000 0.82790  0.51040  0.84863  Biso   1.000  N
  N37      1.0000 0.32630  0.33030  0.13629  Biso   1.000  N
  N38      1.0000 0.67370  0.66970  0.86371  Biso   1.000  N
  N39      1.0000 0.21160  0.12860  0.01599  Biso   1.000  N
  N40      1.0000 0.78840  0.87140  0.98401  Biso   1.000  N
  C37      1.0000 0.02220  0.09320  0.93890  Biso   1.000  C
  C38      1.0000 0.97780  0.90680  0.06110  Biso   1.000  C
  C39      1.0000 0.87290  0.12170  0.90750  Biso   1.000  C
  C40      1.0000 0.12710  0.87830  0.09250  Biso   1.000  C
  C41      1.0000 0.77800  0.14690  0.86800  Biso   1.000  C
  C42      1.0000 0.22200  0.85310  0.13200  Biso   1.000  C
  C43      1.0000 0.72470  0.10420  0.77090  Biso   1.000  C
  C44      1.0000 0.27530  0.89580  0.22910  Biso   1.000  C
  H49      1.0000 0.64060  0.05520  0.76120  Biso   1.000  H
  H50      1.0000 0.35940  0.94480  0.23880  Biso   1.000  H
  H51      1.0000 0.77220  0.07160  0.74230  Biso   1.000  H
  H52      1.0000 0.22780  0.92840  0.25770  Biso   1.000  H
  H53      1.0000 0.72600  0.15760  0.74510  Biso   1.000  H
  H54      1.0000 0.27400  0.84240  0.25490  Biso   1.000  H
  C45      1.0000 0.66290  0.24440  0.89730  Biso   1.000  C
  C46      1.0000 0.33710  0.75560  0.10270  Biso   1.000  C
  H55      1.0000 0.58480  0.18680  0.86680  Biso   1.000  H
  H56      1.0000 0.41520  0.81320  0.13320  Biso   1.000  H
  H57      1.0000 0.69030  0.28310  0.85490  Biso   1.000  H
  H58      1.0000 0.30970  0.71690  0.14510  Biso   1.000  H
  C47      1.0000 0.64360  0.30970  0.97710  Biso   1.000  C
  C48      1.0000 0.35640  0.69030  0.02290  Biso   1.000  C
  H59      1.0000 0.57360  0.32330  0.95680  Biso   1.000  H
  H60      1.0000 0.42640  0.67670  0.04320  Biso   1.000  H
  H61      1.0000 0.62070  0.27100  0.02010  Biso   1.000  H
  H62      1.0000 0.37930  0.72900  0.97990  Biso   1.000  H
  C49      1.0000 0.74880  0.40800  0.02580  Biso   1.000  C
  C50      1.0000 0.25120  0.59200  0.97420  Biso   1.000  C
  H63      1.0000 0.77210  0.44840  0.98410  Biso   1.000  H
  H64      1.0000 0.22790  0.55160  0.01590  Biso   1.000  H
  H65      1.0000 0.72340  0.44480  0.07390  Biso   1.000  H
  H66      1.0000 0.27660  0.55520  0.92610  Biso   1.000  H
  C51      1.0000 0.98220  0.57610  0.12300  Biso   1.000  C
  C52      1.0000 0.01780  0.42390  0.87700  Biso   1.000  C
  H67      1.0000 0.93720  0.58600  0.07350  Biso   1.000  H
  H68      1.0000 0.06280  0.41400  0.92650  Biso   1.000  H
  H69      1.0000 0.06950  0.61450  0.12950  Biso   1.000  H
  H70      1.0000 0.93050  0.38550  0.87050  Biso   1.000  H
  H71      1.0000 0.95790  0.59860  0.17800  Biso   1.000  H
  H72      1.0000 0.04210  0.40140  0.82200  Biso   1.000  H
  C53      1.0000 0.95490  0.46840  0.10510  Biso   1.000  C
  C54      1.0000 0.04510  0.53160  0.89490  Biso   1.000  C
  C55      1.0000 0.05060  0.43790  0.13310  Biso   1.000  C
  C56      1.0000 0.94940  0.56210  0.86690  Biso   1.000  C
  C57      1.0000 0.20810  0.41680  0.15520  Biso   1.000  C
  C58      1.0000 0.79190  0.58320  0.84480  Biso   1.000  C
  C59      1.0000 0.32990  0.41730  0.15730  Biso   1.000  C
  C60      1.0000 0.67010  0.58270  0.84270  Biso   1.000  C
  C61      1.0000 0.43940  0.51300  0.17700  Biso   1.000  C
  C62      1.0000 0.56060  0.48700  0.82300  Biso   1.000  C
  H73      1.0000 0.46190  0.52370  0.12120  Biso   1.000  H
  H74      1.0000 0.53810  0.47630  0.87880  Biso   1.000  H
  H75      1.0000 0.50690  0.51050  0.21470  Biso   1.000  H
  H76      1.0000 0.49310  0.48950  0.78530  Biso   1.000  H
  H77      1.0000 0.42160  0.56790  0.20810  Biso   1.000  H
  H78      1.0000 0.57840  0.43210  0.79190  Biso   1.000  H
  C63      1.0000 0.43530  0.31360  0.12490  Biso   1.000  C
  C64      1.0000 0.56470  0.68640  0.87510  Biso   1.000  C
  H79      1.0000 0.50280  0.35850  0.17630  Biso   1.000  H
  H80      1.0000 0.49720  0.64150  0.82370  Biso   1.000  H
  H81      1.0000 0.45970  0.32990  0.07060  Biso   1.000  H
  H82      1.0000 0.54030  0.67010  0.92940  Biso   1.000  H
  C65      1.0000 0.41310  0.20670  0.11730  Biso   1.000  C
  C66      1.0000 0.58690  0.79330  0.88270  Biso   1.000  C
  H83      1.0000 0.37400  0.18730  0.16600  Biso   1.000  H
  H84      1.0000 0.62600  0.81270  0.83400  Biso   1.000  H
  H85      1.0000 0.49260  0.20290  0.12620  Biso   1.000  H
  H86      1.0000 0.50740  0.79710  0.87380  Biso   1.000  H
  C67      1.0000 0.33450  0.13140  0.02950  Biso   1.000  C
  C68      1.0000 0.66550  0.86860  0.97050  Biso   1.000  C
  H87      1.0000 0.37260  0.14960  0.98000  Biso   1.000  H
  H88      1.0000 0.62740  0.85040  0.02000  Biso   1.000  H
  H89      1.0000 0.32890  0.06450  0.02920  Biso   1.000  H
  H90      1.0000 0.67110  0.93550  0.97080  Biso   1.000  H
  C69      1.0000 0.15620  0.02100  0.86160  Biso   1.000  C
  C70      1.0000 0.84380  0.97900  0.13840  Biso   1.000  C
  H91      1.0000 0.14810  0.95690  0.87000  Biso   1.000  H
  H92      1.0000 0.85190  0.04310  0.13000  Biso   1.000  H
  H93      1.0000 0.23780  0.05690  0.85250  Biso   1.000  H
  H94      1.0000 0.76220  0.94310  0.14750  Biso   1.000  H
  H95      1.0000 0.09560  0.00940  0.80940  Biso   1.000  H
  H96      1.0000 0.90440  0.99060  0.19060  Biso   1.000  H
  C71      1.0000 0.13670  0.08110  0.94150  Biso   1.000  C
  C72      1.0000 0.86330  0.91890  0.05850  Biso   1.000  C
  S1       1.0000 0.15155  0.08315  0.35760  Biso   1.000  S
  S2       1.0000 0.84845  0.91685  0.64240  Biso   1.000  S
  C73      1.0000 0.15680  0.13190  0.27460  Biso   1.000  C
  C74      1.0000 0.84320  0.86810  0.72540  Biso   1.000  C
  N41      1.0000 0.15840  0.16550  0.21618  Biso   1.000  N
  N42      1.0000 0.84160  0.83450  0.78382  Biso   1.000  N
  S3       1.0000 0.57661  0.05521  0.19826  Biso   1.000  S
  S4       1.0000 0.42339  0.94479  0.80174  Biso   1.000  S
  C75      1.0000 0.66220  0.13030  0.14800  Biso   1.000  C
  C76      1.0000 0.33780  0.86970  0.85200  Biso   1.000  C
  N43      1.0000 0.72430  0.18460  0.11486  Biso   1.000  N
  N44      1.0000 0.27570  0.81540  0.88514  Biso   1.000  N
  Cl1      1.0000 0.72051  0.66554  0.10348  Biso   1.000  Cl
  Cl2      1.0000 0.27949  0.33446  0.89652  Biso   1.000  Cl
  O1       1.0000 0.74510  0.63320  0.17820  Biso   1.000  O
  O2       1.0000 0.25490  0.36680  0.82180  Biso   1.000  O
  O3       1.0000 0.82370  0.69730  0.06460  Biso   1.000  O
  O4       1.0000 0.17630  0.30270  0.93540  Biso   1.000  O
  O5       1.0000 0.62770  0.57970  0.03730  Biso   1.000  O
  O6       1.0000 0.37230  0.42030  0.96270  Biso   1.000  O
  O7       1.0000 0.67490  0.73830  0.12400  Biso   1.000  O
  O8       1.0000 0.32510  0.26170  0.87600  Biso   1.000  O
  Cl3      1.0000 0.15661  0.59320  0.43194  Biso   1.000  Cl
  Cl4      1.0000 0.84339  0.40680  0.56806  Biso   1.000  Cl
  O9       1.0000 0.28090  0.66460  0.45940  Biso   1.000  O
  O10      1.0000 0.71910  0.33540  0.54060  Biso   1.000  O
  O11      1.0000 0.13140  0.53540  0.34128  Biso   1.000  O
  O12      1.0000 0.86860  0.46460  0.65872  Biso   1.000  O
  O13      1.0000 0.07890  0.64330  0.44490  Biso   1.000  O
  O14      1.0000 0.92110  0.35670  0.55510  Biso   1.000  O
  O15      1.0000 0.13780  0.52630  0.48550  Biso   1.000  O
  O16      1.0000 0.86220  0.47370  0.51450  Biso   1.000  O
  O17      1.0000 0.97300  0.81990  0.28120  Biso   1.000  O
  O18      1.0000 0.02700  0.18010  0.71880  Biso   1.000  O
  H97      1.0000 0.91120  0.78070  0.24110  Biso   1.000  H
  H98      1.0000 0.08880  0.21930  0.75890  Biso   1.000  H
  H99      1.0000 0.99460  0.85580  0.24700  Biso   1.000  H
  H100     1.0000 0.00540  0.14420  0.75300  Biso   1.000  H
  O19      1.0000 0.34460  0.68210  0.28370  Biso   1.000  O
  O20      1.0000 0.65540  0.31790  0.71630  Biso   1.000  O
  H101     1.0000 0.32990  0.66110  0.32850  Biso   1.000  H
  H102     1.0000 0.67010  0.33890  0.67150  Biso   1.000  H
  H103     1.0000 0.28900  0.69580  0.26400  Biso   1.000  H
  H104     1.0000 0.71100  0.30420  0.73600  Biso   1.000  H
