data_image0
_cell_length_a       16.854
_cell_length_b       11.891
_cell_length_c       16.28
_cell_angle_alpha    90
_cell_angle_beta     118.727
_cell_angle_gamma    90

_symmetry_space_group_name_H-M    "P 1"
_symmetry_int_tables_number       1

loop_
  _symmetry_equiv_pos_as_xyz
  'x, y, z'

loop_
  _atom_site_label
  _atom_site_occupancy
  _atom_site_fract_x
  _atom_site_fract_y
  _atom_site_fract_z
  _atom_site_thermal_displace_type
  _atom_site_B_iso_or_equiv
  _atom_site_type_symbol
  Cu1      1.0000 0.19053  0.22547  0.19462  Biso   1.000  Cu
  Cu2      1.0000 0.80947  0.72547  0.30538  Biso   1.000  Cu
  Cu3      1.0000 0.80947  0.77453  0.80538  Biso   1.000  Cu
  Cu4      1.0000 0.19053  0.27453  0.69462  Biso   1.000  Cu
  Cu5      1.0000 0.17221  0.92669  0.30417  Biso   1.000  Cu
  Cu6      1.0000 0.82779  0.42669  0.19583  Biso   1.000  Cu
  Cu7      1.0000 0.82779  0.07331  0.69583  Biso   1.000  Cu
  Cu8      1.0000 0.17221  0.57331  0.80417  Biso   1.000  Cu
  N1       1.0000 0.12710  0.08340  0.13890  Biso   1.000  N
  N2       1.0000 0.87290  0.58340  0.36110  Biso   1.000  N
  N3       1.0000 0.87290  0.91660  0.86110  Biso   1.000  N
  N4       1.0000 0.12710  0.41660  0.63890  Biso   1.000  N
  N5       1.0000 0.11920  0.98540  0.17530  Biso   1.000  N
  N6       1.0000 0.88080  0.48540  0.32470  Biso   1.000  N
  N7       1.0000 0.88080  0.01460  0.82470  Biso   1.000  N
  N8       1.0000 0.11920  0.51460  0.67530  Biso   1.000  N
  N9       1.0000 0.10580  0.94800  0.03270  Biso   1.000  N
  N10      1.0000 0.89420  0.44800  0.46730  Biso   1.000  N
  N11      1.0000 0.89420  0.05200  0.96730  Biso   1.000  N
  N12      1.0000 0.10580  0.55200  0.53270  Biso   1.000  N
  N13      1.0000 0.18160  0.23570  0.06530  Biso   1.000  N
  N14      1.0000 0.81840  0.73570  0.43470  Biso   1.000  N
  N15      1.0000 0.81840  0.76430  0.93470  Biso   1.000  N
  N16      1.0000 0.18160  0.26430  0.56530  Biso   1.000  N
  N17      1.0000 0.30330  0.32440  0.25670  Biso   1.000  N
  N18      1.0000 0.69670  0.82440  0.24330  Biso   1.000  N
  N19      1.0000 0.69670  0.67560  0.74330  Biso   1.000  N
  N20      1.0000 0.30330  0.17560  0.75670  Biso   1.000  N
  N21      1.0000 0.24830  0.16440  0.32290  Biso   1.000  N
  N22      1.0000 0.75170  0.66440  0.17710  Biso   1.000  N
  N23      1.0000 0.75170  0.83560  0.67710  Biso   1.000  N
  N24      1.0000 0.24830  0.33560  0.82290  Biso   1.000  N
  N25      1.0000 0.24280  0.06470  0.35800  Biso   1.000  N
  N26      1.0000 0.75720  0.56470  0.14200  Biso   1.000  N
  N27      1.0000 0.75720  0.93530  0.64200  Biso   1.000  N
  N28      1.0000 0.24280  0.43530  0.85800  Biso   1.000  N
  N29      1.0000 0.38480  0.13100  0.45090  Biso   1.000  N
  N30      1.0000 0.61520  0.63100  0.04910  Biso   1.000  N
  N31      1.0000 0.61520  0.86900  0.54910  Biso   1.000  N
  N32      1.0000 0.38480  0.36900  0.95090  Biso   1.000  N
  N33      1.0000 0.27140  0.86480  0.42640  Biso   1.000  N
  N34      1.0000 0.72860  0.36480  0.07360  Biso   1.000  N
  N35      1.0000 0.72860  0.13520  0.57360  Biso   1.000  N
  N36      1.0000 0.27140  0.63520  0.92640  Biso   1.000  N
  N37      1.0000 0.14130  0.78100  0.23400  Biso   1.000  N
  N38      1.0000 0.85870  0.28100  0.26600  Biso   1.000  N
  N39      1.0000 0.85870  0.21900  0.76600  Biso   1.000  N
  N40      1.0000 0.14130  0.71900  0.73400  Biso   1.000  N
  C1       1.0000 0.10630  0.90680  0.11060  Biso   1.000  C
  C2       1.0000 0.89370  0.40680  0.38940  Biso   1.000  C
  C3       1.0000 0.89370  0.09320  0.88940  Biso   1.000  C
  C4       1.0000 0.10630  0.59320  0.61060  Biso   1.000  C
  C5       1.0000 0.11890  0.05840  0.05410  Biso   1.000  C
  C6       1.0000 0.88110  0.55840  0.44590  Biso   1.000  C
  C7       1.0000 0.88110  0.94160  0.94590  Biso   1.000  C
  C8       1.0000 0.11890  0.44160  0.55410  Biso   1.000  C
  C9       1.0000 0.14120  0.15230  0.00810  Biso   1.000  C
  C10      1.0000 0.85880  0.65230  0.49190  Biso   1.000  C
  C11      1.0000 0.85880  0.84770  0.99190  Biso   1.000  C
  C12      1.0000 0.14120  0.34770  0.50810  Biso   1.000  C
  C13      1.0000 0.12170  0.14450  0.90820  Biso   1.000  C
  C14      1.0000 0.87830  0.64450  0.59180  Biso   1.000  C
  C15      1.0000 0.87830  0.85550  0.09180  Biso   1.000  C
  C16      1.0000 0.12170  0.35550  0.40820  Biso   1.000  C
  H1       1.0000 0.08850  0.21160  0.87400  Biso   1.000  H
  H2       1.0000 0.91150  0.71160  0.62600  Biso   1.000  H
  H3       1.0000 0.91150  0.78840  0.12600  Biso   1.000  H
  H4       1.0000 0.08850  0.28840  0.37400  Biso   1.000  H
  H5       1.0000 0.08500  0.07740  0.87910  Biso   1.000  H
  H6       1.0000 0.91500  0.57740  0.62090  Biso   1.000  H
  H7       1.0000 0.91500  0.92260  0.12090  Biso   1.000  H
  H8       1.0000 0.08500  0.42260  0.37910  Biso   1.000  H
  H9       1.0000 0.17870  0.13930  0.90620  Biso   1.000  H
  H10      1.0000 0.82130  0.63930  0.59380  Biso   1.000  H
  H11      1.0000 0.82130  0.86070  0.09380  Biso   1.000  H
  H12      1.0000 0.17870  0.36070  0.40620  Biso   1.000  H
  C17      1.0000 0.21770  0.33320  0.03800  Biso   1.000  C
  C18      1.0000 0.78230  0.83320  0.46200  Biso   1.000  C
  C19      1.0000 0.78230  0.66680  0.96200  Biso   1.000  C
  C20      1.0000 0.21770  0.16680  0.53800  Biso   1.000  C
  H13      1.0000 0.17310  0.35750  0.97410  Biso   1.000  H
  H14      1.0000 0.82690  0.85750  0.52590  Biso   1.000  H
  H15      1.0000 0.82690  0.64250  0.02590  Biso   1.000  H
  H16      1.0000 0.17310  0.14250  0.47410  Biso   1.000  H
  H17      1.0000 0.27380  0.31110  0.03710  Biso   1.000  H
  H18      1.0000 0.72620  0.81110  0.46290  Biso   1.000  H
  H19      1.0000 0.72620  0.68890  0.96290  Biso   1.000  H
  H20      1.0000 0.27380  0.18890  0.53710  Biso   1.000  H
  C21      1.0000 0.23790  0.43080  0.10570  Biso   1.000  C
  C22      1.0000 0.76210  0.93080  0.39430  Biso   1.000  C
  C23      1.0000 0.76210  0.56920  0.89430  Biso   1.000  C
  C24      1.0000 0.23790  0.06920  0.60570  Biso   1.000  C
  H21      1.0000 0.18330  0.44480  0.11230  Biso   1.000  H
  H22      1.0000 0.81670  0.94480  0.38770  Biso   1.000  H
  H23      1.0000 0.81670  0.55520  0.88770  Biso   1.000  H
  H24      1.0000 0.18330  0.05520  0.61230  Biso   1.000  H
  H25      1.0000 0.24830  0.49880  0.07710  Biso   1.000  H
  H26      1.0000 0.75170  0.99880  0.42290  Biso   1.000  H
  H27      1.0000 0.75170  0.50120  0.92290  Biso   1.000  H
  H28      1.0000 0.24830  0.00120  0.57710  Biso   1.000  H
  C25      1.0000 0.31910  0.41670  0.20470  Biso   1.000  C
  C26      1.0000 0.68090  0.91670  0.29530  Biso   1.000  C
  C27      1.0000 0.68090  0.58330  0.79530  Biso   1.000  C
  C28      1.0000 0.31910  0.08330  0.70470  Biso   1.000  C
  H29      1.0000 0.37420  0.40010  0.19960  Biso   1.000  H
  H30      1.0000 0.62580  0.90010  0.30040  Biso   1.000  H
  H31      1.0000 0.62580  0.59990  0.80040  Biso   1.000  H
  H32      1.0000 0.37420  0.09990  0.69960  Biso   1.000  H
  H33      1.0000 0.32940  0.48800  0.23990  Biso   1.000  H
  H34      1.0000 0.67060  0.98800  0.26010  Biso   1.000  H
  H35      1.0000 0.67060  0.51200  0.76010  Biso   1.000  H
  H36      1.0000 0.32940  0.01200  0.73990  Biso   1.000  H
  C29      1.0000 0.44920  0.36080  0.40170  Biso   1.000  C
  C30      1.0000 0.55080  0.86080  0.09830  Biso   1.000  C
  C31      1.0000 0.55080  0.63920  0.59830  Biso   1.000  C
  C32      1.0000 0.44920  0.13920  0.90170  Biso   1.000  C
  H37      1.0000 0.43810  0.44180  0.40160  Biso   1.000  H
  H38      1.0000 0.56190  0.94180  0.09840  Biso   1.000  H
  H39      1.0000 0.56190  0.55820  0.59840  Biso   1.000  H
  H40      1.0000 0.43810  0.05820  0.90160  Biso   1.000  H
  H41      1.0000 0.49000  0.34740  0.37560  Biso   1.000  H
  H42      1.0000 0.51000  0.84740  0.12440  Biso   1.000  H
  H43      1.0000 0.51000  0.65260  0.62440  Biso   1.000  H
  H44      1.0000 0.49000  0.15260  0.87560  Biso   1.000  H
  H45      1.0000 0.47690  0.33240  0.46610  Biso   1.000  H
  H46      1.0000 0.52310  0.83240  0.03390  Biso   1.000  H
  H47      1.0000 0.52310  0.66760  0.53390  Biso   1.000  H
  H48      1.0000 0.47690  0.16760  0.96610  Biso   1.000  H
  C33      1.0000 0.36100  0.30100  0.34310  Biso   1.000  C
  C34      1.0000 0.63900  0.80100  0.15690  Biso   1.000  C
  C35      1.0000 0.63900  0.69900  0.65690  Biso   1.000  C
  C36      1.0000 0.36100  0.19900  0.84310  Biso   1.000  C
  C37      1.0000 0.33430  0.20110  0.37920  Biso   1.000  C
  C38      1.0000 0.66570  0.70110  0.12080  Biso   1.000  C
  C39      1.0000 0.66570  0.79890  0.62080  Biso   1.000  C
  C40      1.0000 0.33430  0.29890  0.87920  Biso   1.000  C
  C41      1.0000 0.32460  0.04590  0.43360  Biso   1.000  C
  C42      1.0000 0.67540  0.54590  0.06640  Biso   1.000  C
  C43      1.0000 0.67540  0.95410  0.56640  Biso   1.000  C
  C44      1.0000 0.32460  0.45410  0.93360  Biso   1.000  C
  C45      1.0000 0.33710  0.93230  0.47590  Biso   1.000  C
  C46      1.0000 0.66290  0.43230  0.02410  Biso   1.000  C
  C47      1.0000 0.66290  0.06770  0.52410  Biso   1.000  C
  C48      1.0000 0.33710  0.56770  0.97590  Biso   1.000  C
  C49      1.0000 0.42250  0.90620  0.56440  Biso   1.000  C
  C50      1.0000 0.57750  0.40620  0.93560  Biso   1.000  C
  C51      1.0000 0.57750  0.09380  0.43560  Biso   1.000  C
  C52      1.0000 0.42250  0.59380  0.06440  Biso   1.000  C
  H49      1.0000 0.40930  0.85260  0.60200  Biso   1.000  H
  H50      1.0000 0.59070  0.35260  0.89800  Biso   1.000  H
  H51      1.0000 0.59070  0.14740  0.39800  Biso   1.000  H
  H52      1.0000 0.40930  0.64740  0.10200  Biso   1.000  H
  H53      1.0000 0.44710  0.97560  0.60030  Biso   1.000  H
  H54      1.0000 0.55290  0.47560  0.89970  Biso   1.000  H
  H55      1.0000 0.55290  0.02440  0.39970  Biso   1.000  H
  H56      1.0000 0.44710  0.52440  0.10030  Biso   1.000  H
  H57      1.0000 0.46690  0.87340  0.54880  Biso   1.000  H
  H58      1.0000 0.53310  0.37340  0.95120  Biso   1.000  H
  H59      1.0000 0.53310  0.12660  0.45120  Biso   1.000  H
  H60      1.0000 0.46690  0.62660  0.04880  Biso   1.000  H
  C53      1.0000 0.27240  0.74450  0.45140  Biso   1.000  C
  C54      1.0000 0.72760  0.24450  0.04860  Biso   1.000  C
  C55      1.0000 0.72760  0.25550  0.54860  Biso   1.000  C
  C56      1.0000 0.27240  0.75550  0.95140  Biso   1.000  C
  H61      1.0000 0.28350  0.73880  0.51670  Biso   1.000  H
  H62      1.0000 0.71650  0.23880  0.98330  Biso   1.000  H
  H63      1.0000 0.71650  0.26120  0.48330  Biso   1.000  H
  H64      1.0000 0.28350  0.76120  0.01670  Biso   1.000  H
  H65      1.0000 0.32230  0.70550  0.44750  Biso   1.000  H
  H66      1.0000 0.67770  0.20550  0.05250  Biso   1.000  H
  H67      1.0000 0.67770  0.29450  0.55250  Biso   1.000  H
  H68      1.0000 0.32230  0.79450  0.94750  Biso   1.000  H
  C57      1.0000 0.18150  0.68670  0.38490  Biso   1.000  C
  C58      1.0000 0.81850  0.18670  0.11510  Biso   1.000  C
  C59      1.0000 0.81850  0.31330  0.61510  Biso   1.000  C
  C60      1.0000 0.18150  0.81330  0.88490  Biso   1.000  C
  H69      1.0000 0.18110  0.61120  0.41040  Biso   1.000  H
  H70      1.0000 0.81890  0.11120  0.08960  Biso   1.000  H
  H71      1.0000 0.81890  0.38880  0.58960  Biso   1.000  H
  H72      1.0000 0.18110  0.88880  0.91040  Biso   1.000  H
  H73      1.0000 0.13200  0.73060  0.38570  Biso   1.000  H
  H74      1.0000 0.86800  0.23060  0.11430  Biso   1.000  H
  H75      1.0000 0.86800  0.26940  0.61430  Biso   1.000  H
  H76      1.0000 0.13200  0.76940  0.88570  Biso   1.000  H
  C61      1.0000 0.16050  0.67310  0.28300  Biso   1.000  C
  C62      1.0000 0.83950  0.17310  0.21700  Biso   1.000  C
  C63      1.0000 0.83950  0.32690  0.71700  Biso   1.000  C
  C64      1.0000 0.16050  0.82690  0.78300  Biso   1.000  C
  H77      1.0000 0.21290  0.63740  0.28140  Biso   1.000  H
  H78      1.0000 0.78710  0.13740  0.21860  Biso   1.000  H
  H79      1.0000 0.78710  0.36260  0.71860  Biso   1.000  H
  H80      1.0000 0.21290  0.86260  0.78140  Biso   1.000  H
  H81      1.0000 0.10770  0.62270  0.25010  Biso   1.000  H
  H82      1.0000 0.89230  0.12270  0.24990  Biso   1.000  H
  H83      1.0000 0.89230  0.37730  0.74990  Biso   1.000  H
  H84      1.0000 0.10770  0.87730  0.75010  Biso   1.000  H
  C65      1.0000 0.09220  0.69440  0.07590  Biso   1.000  C
  C66      1.0000 0.90780  0.19440  0.42410  Biso   1.000  C
  C67      1.0000 0.90780  0.30560  0.92410  Biso   1.000  C
  C68      1.0000 0.09220  0.80560  0.57590  Biso   1.000  C
  H85      1.0000 0.05860  0.63560  0.08840  Biso   1.000  H
  H86      1.0000 0.94140  0.13560  0.41160  Biso   1.000  H
  H87      1.0000 0.94140  0.36440  0.91160  Biso   1.000  H
  H88      1.0000 0.05860  0.86440  0.58840  Biso   1.000  H
  H89      1.0000 0.14860  0.66290  0.08230  Biso   1.000  H
  H90      1.0000 0.85140  0.16290  0.41770  Biso   1.000  H
  H91      1.0000 0.85140  0.33710  0.91770  Biso   1.000  H
  H92      1.0000 0.14860  0.83710  0.58230  Biso   1.000  H
  H93      1.0000 0.05530  0.72300  0.01210  Biso   1.000  H
  H94      1.0000 0.94470  0.22300  0.48790  Biso   1.000  H
  H95      1.0000 0.94470  0.27700  0.98790  Biso   1.000  H
  H96      1.0000 0.05530  0.77700  0.51210  Biso   1.000  H
  C69      1.0000 0.11350  0.78850  0.14440  Biso   1.000  C
  C70      1.0000 0.88650  0.28850  0.35560  Biso   1.000  C
  C71      1.0000 0.88650  0.21150  0.85560  Biso   1.000  C
  C72      1.0000 0.11350  0.71150  0.64440  Biso   1.000  C
  S1       1.0000 0.05398  0.98686  0.35571  Biso   1.000  S
  S2       1.0000 0.94602  0.48686  0.14429  Biso   1.000  S
  S3       1.0000 0.94602  0.01314  0.64429  Biso   1.000  S
  S4       1.0000 0.05398  0.51314  0.85571  Biso   1.000  S
  C73      1.0000 0.97200  0.89570  0.33210  Biso   1.000  C
  C74      1.0000 0.02800  0.39570  0.16790  Biso   1.000  C
  C75      1.0000 0.02800  0.10430  0.66790  Biso   1.000  C
  C76      1.0000 0.97200  0.60430  0.83210  Biso   1.000  C
  N41      1.0000 0.91350  0.83370  0.31810  Biso   1.000  N
  N42      1.0000 0.08650  0.33370  0.18190  Biso   1.000  N
  N43      1.0000 0.08650  0.16630  0.68190  Biso   1.000  N
  N44      1.0000 0.91350  0.66630  0.81810  Biso   1.000  N
  Cl1      1.0000 0.38239  0.78335  0.26622  Biso   1.000  Cl
  Cl2      1.0000 0.61761  0.28335  0.23378  Biso   1.000  Cl
  Cl3      1.0000 0.61761  0.21665  0.73378  Biso   1.000  Cl
  Cl4      1.0000 0.38239  0.71665  0.76622  Biso   1.000  Cl
  O1       1.0000 0.34010  0.88310  0.27700  Biso   1.000  O
  O2       1.0000 0.65990  0.38310  0.22300  Biso   1.000  O
  O3       1.0000 0.65990  0.11690  0.72300  Biso   1.000  O
  O4       1.0000 0.34010  0.61690  0.77700  Biso   1.000  O
  O5       1.0000 0.45600  0.81330  0.24880  Biso   1.000  O
  O6       1.0000 0.54400  0.31330  0.25120  Biso   1.000  O
  O7       1.0000 0.54400  0.18670  0.75120  Biso   1.000  O
  O8       1.0000 0.45600  0.68670  0.74880  Biso   1.000  O
  O9       1.0000 0.41320  0.71300  0.34680  Biso   1.000  O
  O10      1.0000 0.58680  0.21300  0.15320  Biso   1.000  O
  O11      1.0000 0.58680  0.28700  0.65320  Biso   1.000  O
  O12      1.0000 0.41320  0.78700  0.84680  Biso   1.000  O
  O13      1.0000 0.31560  0.72060  0.18820  Biso   1.000  O
  O14      1.0000 0.68440  0.22060  0.31180  Biso   1.000  O
  O15      1.0000 0.68440  0.27940  0.81180  Biso   1.000  O
  O16      1.0000 0.31560  0.77940  0.68820  Biso   1.000  O
  N45      1.0000 0.33380  0.45690  0.50190  Biso   1.000  N
  N46      1.0000 0.66620  0.95690  0.99810  Biso   1.000  N
  N47      1.0000 0.66620  0.54310  0.49810  Biso   1.000  N
  N48      1.0000 0.33380  0.04310  0.00190  Biso   1.000  N
  C77      1.0000 0.36560  0.43920  0.58060  Biso   1.000  C
  C78      1.0000 0.63440  0.93920  0.91940  Biso   1.000  C
  C79      1.0000 0.63440  0.56080  0.41940  Biso   1.000  C
  C80      1.0000 0.36560  0.06080  0.08060  Biso   1.000  C
  C81      1.0000 0.40740  0.41440  0.67970  Biso   1.000  C
  C82      1.0000 0.59260  0.91440  0.82030  Biso   1.000  C
  C83      1.0000 0.59260  0.58560  0.32030  Biso   1.000  C
  C84      1.0000 0.40740  0.08560  0.17970  Biso   1.000  C
  H97      1.0000 0.43440  0.33910  0.69130  Biso   1.000  H
  H98      1.0000 0.56560  0.83910  0.80870  Biso   1.000  H
  H99      1.0000 0.56560  0.66090  0.30870  Biso   1.000  H
  H100     1.0000 0.43440  0.16090  0.19130  Biso   1.000  H
  H101     1.0000 0.36150  0.41700  0.70030  Biso   1.000  H
  H102     1.0000 0.63850  0.91700  0.79970  Biso   1.000  H
  H103     1.0000 0.63850  0.58300  0.29970  Biso   1.000  H
  H104     1.0000 0.36150  0.08300  0.20030  Biso   1.000  H
  H105     1.0000 0.45460  0.47010  0.71470  Biso   1.000  H
  H106     1.0000 0.54540  0.97010  0.78530  Biso   1.000  H
  H107     1.0000 0.54540  0.52990  0.28530  Biso   1.000  H
  H108     1.0000 0.45460  0.02990  0.21470  Biso   1.000  H
