data_image0
_cell_length_a       17.297
_cell_length_b       11.743
_cell_length_c       16.131
_cell_angle_alpha    90
_cell_angle_beta     112.506
_cell_angle_gamma    90

_symmetry_space_group_name_H-M    "P 1"
_symmetry_int_tables_number       1

loop_
  _symmetry_equiv_pos_as_xyz
  'x, y, z'

loop_
  _atom_site_label
  _atom_site_occupancy
  _atom_site_fract_x
  _atom_site_fract_y
  _atom_site_fract_z
  _atom_site_thermal_displace_type
  _atom_site_B_iso_or_equiv
  _atom_site_type_symbol
  Cu1      1.0000 0.34071  0.41716  0.21332  Biso   1.000  Cu
  Cu2      1.0000 0.65929  0.91716  0.28668  Biso   1.000  Cu
  Cu3      1.0000 0.65929  0.58284  0.78668  Biso   1.000  Cu
  Cu4      1.0000 0.34071  0.08284  0.71332  Biso   1.000  Cu
  Cu5      1.0000 0.32195  0.72062  0.32253  Biso   1.000  Cu
  Cu6      1.0000 0.67805  0.22062  0.17747  Biso   1.000  Cu
  Cu7      1.0000 0.67805  0.27938  0.67747  Biso   1.000  Cu
  Cu8      1.0000 0.32195  0.77938  0.82253  Biso   1.000  Cu
  N1       1.0000 0.27068  0.55240  0.16666  Biso   1.000  N
  N2       1.0000 0.72932  0.05240  0.33334  Biso   1.000  N
  N3       1.0000 0.72932  0.44760  0.83334  Biso   1.000  N
  N4       1.0000 0.27068  0.94760  0.66666  Biso   1.000  N
  N5       1.0000 0.26639  0.65490  0.20100  Biso   1.000  N
  N6       1.0000 0.73361  0.15490  0.29900  Biso   1.000  N
  N7       1.0000 0.73361  0.34510  0.79900  Biso   1.000  N
  N8       1.0000 0.26639  0.84510  0.70100  Biso   1.000  N
  N9       1.0000 0.13814  0.61370  0.09739  Biso   1.000  N
  N10      1.0000 0.86186  0.11370  0.40261  Biso   1.000  N
  N11      1.0000 0.86186  0.38630  0.90261  Biso   1.000  N
  N12      1.0000 0.13814  0.88630  0.59739  Biso   1.000  N
  N13      1.0000 0.24621  0.34830  0.10818  Biso   1.000  N
  N14      1.0000 0.75379  0.84830  0.39182  Biso   1.000  N
  N15      1.0000 0.75379  0.65170  0.89182  Biso   1.000  N
  N16      1.0000 0.24621  0.15170  0.60818  Biso   1.000  N
  N17      1.0000 0.37543  0.27310  0.28335  Biso   1.000  N
  N18      1.0000 0.62457  0.77310  0.21665  Biso   1.000  N
  N19      1.0000 0.62457  0.72690  0.71665  Biso   1.000  N
  N20      1.0000 0.37543  0.22690  0.78335  Biso   1.000  N
  N21      1.0000 0.39142  0.48000  0.33535  Biso   1.000  N
  N22      1.0000 0.60858  0.98000  0.16465  Biso   1.000  N
  N23      1.0000 0.60858  0.52000  0.66465  Biso   1.000  N
  N24      1.0000 0.39142  0.02000  0.83535  Biso   1.000  N
  N25      1.0000 0.38136  0.57890  0.37134  Biso   1.000  N
  N26      1.0000 0.61864  0.07890  0.12866  Biso   1.000  N
  N27      1.0000 0.61864  0.42110  0.62866  Biso   1.000  N
  N28      1.0000 0.38136  0.92110  0.87134  Biso   1.000  N
  N29      1.0000 0.40559  0.44440  0.47850  Biso   1.000  N
  N30      1.0000 0.59441  0.94440  0.02150  Biso   1.000  N
  N31      1.0000 0.59441  0.55560  0.52150  Biso   1.000  N
  N32      1.0000 0.40559  0.05560  0.97850  Biso   1.000  N
  N33      1.0000 0.33211  0.73300  0.45191  Biso   1.000  N
  N34      1.0000 0.66789  0.23300  0.04809  Biso   1.000  N
  N35      1.0000 0.66789  0.26700  0.54809  Biso   1.000  N
  N36      1.0000 0.33211  0.76700  0.95191  Biso   1.000  N
  N37      1.0000 0.21798  0.81850  0.27517  Biso   1.000  N
  N38      1.0000 0.78202  0.31850  0.22483  Biso   1.000  N
  N39      1.0000 0.78202  0.18150  0.72483  Biso   1.000  N
  N40      1.0000 0.21798  0.68150  0.77517  Biso   1.000  N
  C1       1.0000 0.18630  0.68900  0.15880  Biso   1.000  C
  C2       1.0000 0.81370  0.18900  0.34120  Biso   1.000  C
  C3       1.0000 0.81370  0.31100  0.84120  Biso   1.000  C
  C4       1.0000 0.18630  0.81100  0.65880  Biso   1.000  C
  C5       1.0000 0.19400  0.52920  0.10630  Biso   1.000  C
  C6       1.0000 0.80600  0.02920  0.39370  Biso   1.000  C
  C7       1.0000 0.80600  0.47080  0.89370  Biso   1.000  C
  C8       1.0000 0.19400  0.97080  0.60630  Biso   1.000  C
  C9       1.0000 0.18240  0.41230  0.06970  Biso   1.000  C
  C10      1.0000 0.81760  0.91230  0.43030  Biso   1.000  C
  C11      1.0000 0.81760  0.58770  0.93030  Biso   1.000  C
  C12      1.0000 0.18240  0.08770  0.56970  Biso   1.000  C
  C13      1.0000 0.10050  0.37770  0.99810  Biso   1.000  C
  C14      1.0000 0.89950  0.87770  0.50190  Biso   1.000  C
  C15      1.0000 0.89950  0.62230  0.00190  Biso   1.000  C
  C16      1.0000 0.10050  0.12230  0.49810  Biso   1.000  C
  H1       1.0000 0.11080  0.34040  0.94900  Biso   1.000  H
  H2       1.0000 0.88920  0.84040  0.55100  Biso   1.000  H
  H3       1.0000 0.88920  0.65960  0.05100  Biso   1.000  H
  H4       1.0000 0.11080  0.15960  0.44900  Biso   1.000  H
  H5       1.0000 0.06570  0.44540  0.97520  Biso   1.000  H
  H6       1.0000 0.93430  0.94540  0.52480  Biso   1.000  H
  H7       1.0000 0.93430  0.55460  0.02480  Biso   1.000  H
  H8       1.0000 0.06570  0.05460  0.47520  Biso   1.000  H
  H9       1.0000 0.07160  0.32480  0.02350  Biso   1.000  H
  H10      1.0000 0.92840  0.82480  0.47650  Biso   1.000  H
  H11      1.0000 0.92840  0.67520  0.97650  Biso   1.000  H
  H12      1.0000 0.07160  0.17520  0.52350  Biso   1.000  H
  C17      1.0000 0.24700  0.22660  0.08590  Biso   1.000  C
  C18      1.0000 0.75300  0.72660  0.41410  Biso   1.000  C
  C19      1.0000 0.75300  0.77340  0.91410  Biso   1.000  C
  C20      1.0000 0.24700  0.27340  0.58590  Biso   1.000  C
  H13      1.0000 0.23240  0.21850  0.02060  Biso   1.000  H
  H14      1.0000 0.76760  0.71850  0.47940  Biso   1.000  H
  H15      1.0000 0.76760  0.78150  0.97940  Biso   1.000  H
  H16      1.0000 0.23240  0.28150  0.52060  Biso   1.000  H
  H17      1.0000 0.20420  0.18580  0.10120  Biso   1.000  H
  H18      1.0000 0.79580  0.68580  0.39880  Biso   1.000  H
  H19      1.0000 0.79580  0.81420  0.89880  Biso   1.000  H
  H20      1.0000 0.20420  0.31420  0.60120  Biso   1.000  H
  C21      1.0000 0.33210  0.17320  0.13630  Biso   1.000  C
  C22      1.0000 0.66790  0.67320  0.36370  Biso   1.000  C
  C23      1.0000 0.66790  0.82680  0.86370  Biso   1.000  C
  C24      1.0000 0.33210  0.32680  0.63630  Biso   1.000  C
  H21      1.0000 0.37460  0.21890  0.12390  Biso   1.000  H
  H22      1.0000 0.62540  0.71890  0.37610  Biso   1.000  H
  H23      1.0000 0.62540  0.78110  0.87610  Biso   1.000  H
  H24      1.0000 0.37460  0.28110  0.62390  Biso   1.000  H
  H25      1.0000 0.33210  0.09620  0.11120  Biso   1.000  H
  H26      1.0000 0.66790  0.59620  0.38880  Biso   1.000  H
  H27      1.0000 0.66790  0.90380  0.88880  Biso   1.000  H
  H28      1.0000 0.33210  0.40380  0.61120  Biso   1.000  H
  C25      1.0000 0.36010  0.16180  0.23770  Biso   1.000  C
  C26      1.0000 0.63990  0.66180  0.26230  Biso   1.000  C
  C27      1.0000 0.63990  0.83820  0.76230  Biso   1.000  C
  C28      1.0000 0.36010  0.33820  0.73770  Biso   1.000  C
  H29      1.0000 0.31650  0.12060  0.25150  Biso   1.000  H
  H30      1.0000 0.68350  0.62060  0.24850  Biso   1.000  H
  H31      1.0000 0.68350  0.87940  0.74850  Biso   1.000  H
  H32      1.0000 0.31650  0.37940  0.75150  Biso   1.000  H
  H33      1.0000 0.41210  0.11600  0.26120  Biso   1.000  H
  H34      1.0000 0.58790  0.61600  0.23880  Biso   1.000  H
  H35      1.0000 0.58790  0.88400  0.73880  Biso   1.000  H
  H36      1.0000 0.41210  0.38400  0.76120  Biso   1.000  H
  C29      1.0000 0.42700  0.18990  0.43750  Biso   1.000  C
  C30      1.0000 0.57300  0.68990  0.06250  Biso   1.000  C
  C31      1.0000 0.57300  0.81010  0.56250  Biso   1.000  C
  C32      1.0000 0.42700  0.31010  0.93750  Biso   1.000  C
  H37      1.0000 0.37660  0.15580  0.44090  Biso   1.000  H
  H38      1.0000 0.62340  0.65580  0.05910  Biso   1.000  H
  H39      1.0000 0.62340  0.84420  0.55910  Biso   1.000  H
  H40      1.0000 0.37660  0.34420  0.94090  Biso   1.000  H
  H41      1.0000 0.46210  0.22110  0.49630  Biso   1.000  H
  H42      1.0000 0.53790  0.72110  0.00370  Biso   1.000  H
  H43      1.0000 0.53790  0.77890  0.50370  Biso   1.000  H
  H44      1.0000 0.46210  0.27890  0.99630  Biso   1.000  H
  H45      1.0000 0.45850  0.13160  0.42010  Biso   1.000  H
  H46      1.0000 0.54150  0.63160  0.07990  Biso   1.000  H
  H47      1.0000 0.54150  0.86840  0.57990  Biso   1.000  H
  H48      1.0000 0.45850  0.36840  0.92010  Biso   1.000  H
  C33      1.0000 0.40270  0.28300  0.36960  Biso   1.000  C
  C34      1.0000 0.59730  0.78300  0.13040  Biso   1.000  C
  C35      1.0000 0.59730  0.71700  0.63040  Biso   1.000  C
  C36      1.0000 0.40270  0.21700  0.86960  Biso   1.000  C
  C37      1.0000 0.40508  0.40170  0.39980  Biso   1.000  C
  C38      1.0000 0.59492  0.90170  0.10020  Biso   1.000  C
  C39      1.0000 0.59492  0.59830  0.60020  Biso   1.000  C
  C40      1.0000 0.40508  0.09830  0.89980  Biso   1.000  C
  C41      1.0000 0.38950  0.55460  0.45630  Biso   1.000  C
  C42      1.0000 0.61050  0.05460  0.04370  Biso   1.000  C
  C43      1.0000 0.61050  0.44540  0.54370  Biso   1.000  C
  C44      1.0000 0.38950  0.94540  0.95630  Biso   1.000  C
  C45      1.0000 0.36790  0.64920  0.50420  Biso   1.000  C
  C46      1.0000 0.63210  0.14920  0.99580  Biso   1.000  C
  C47      1.0000 0.63210  0.35080  0.49580  Biso   1.000  C
  C48      1.0000 0.36790  0.85080  0.00420  Biso   1.000  C
  C49      1.0000 0.38550  0.64130  0.60270  Biso   1.000  C
  C50      1.0000 0.61450  0.14130  0.89730  Biso   1.000  C
  C51      1.0000 0.61450  0.35870  0.39730  Biso   1.000  C
  C52      1.0000 0.38550  0.85870  0.10270  Biso   1.000  C
  H49      1.0000 0.41180  0.71200  0.63240  Biso   1.000  H
  H50      1.0000 0.58820  0.21200  0.86760  Biso   1.000  H
  H51      1.0000 0.58820  0.28800  0.36760  Biso   1.000  H
  H52      1.0000 0.41180  0.78800  0.13240  Biso   1.000  H
  H53      1.0000 0.42330  0.57710  0.62870  Biso   1.000  H
  H54      1.0000 0.57670  0.07710  0.87130  Biso   1.000  H
  H55      1.0000 0.57670  0.42290  0.37130  Biso   1.000  H
  H56      1.0000 0.42330  0.92290  0.12870  Biso   1.000  H
  H57      1.0000 0.33290  0.62950  0.61110  Biso   1.000  H
  H58      1.0000 0.66710  0.12950  0.88890  Biso   1.000  H
  H59      1.0000 0.66710  0.37050  0.38890  Biso   1.000  H
  H60      1.0000 0.33290  0.87050  0.11110  Biso   1.000  H
  C53      1.0000 0.29900  0.83150  0.48370  Biso   1.000  C
  C54      1.0000 0.70100  0.33150  0.01630  Biso   1.000  C
  C55      1.0000 0.70100  0.16850  0.51630  Biso   1.000  C
  C56      1.0000 0.29900  0.66850  0.98370  Biso   1.000  C
  H61      1.0000 0.34070  0.85680  0.54230  Biso   1.000  H
  H62      1.0000 0.65930  0.35680  0.95770  Biso   1.000  H
  H63      1.0000 0.65930  0.14320  0.45770  Biso   1.000  H
  H64      1.0000 0.34070  0.64320  0.04230  Biso   1.000  H
  H65      1.0000 0.24760  0.80880  0.49260  Biso   1.000  H
  H66      1.0000 0.75240  0.30880  0.00740  Biso   1.000  H
  H67      1.0000 0.75240  0.19120  0.50740  Biso   1.000  H
  H68      1.0000 0.24760  0.69120  0.99260  Biso   1.000  H
  C57      1.0000 0.27920  0.92880  0.41760  Biso   1.000  C
  C58      1.0000 0.72080  0.42880  0.08240  Biso   1.000  C
  C59      1.0000 0.72080  0.07120  0.58240  Biso   1.000  C
  C60      1.0000 0.27920  0.57120  0.91760  Biso   1.000  C
  H69      1.0000 0.32950  0.94380  0.40410  Biso   1.000  H
  H70      1.0000 0.67050  0.44380  0.09590  Biso   1.000  H
  H71      1.0000 0.67050  0.05620  0.59590  Biso   1.000  H
  H72      1.0000 0.32950  0.55620  0.90410  Biso   1.000  H
  H73      1.0000 0.26900  0.99760  0.44740  Biso   1.000  H
  H74      1.0000 0.73100  0.49760  0.05260  Biso   1.000  H
  H75      1.0000 0.73100  0.00240  0.55260  Biso   1.000  H
  H76      1.0000 0.26900  0.50240  0.94740  Biso   1.000  H
  C61      1.0000 0.20440  0.91350  0.32810  Biso   1.000  C
  C62      1.0000 0.79560  0.41350  0.17190  Biso   1.000  C
  C63      1.0000 0.79560  0.08650  0.67190  Biso   1.000  C
  C64      1.0000 0.20440  0.58650  0.82810  Biso   1.000  C
  H77      1.0000 0.15330  0.89850  0.34010  Biso   1.000  H
  H78      1.0000 0.84670  0.39850  0.15990  Biso   1.000  H
  H79      1.0000 0.84670  0.10150  0.65990  Biso   1.000  H
  H80      1.0000 0.15330  0.60150  0.84010  Biso   1.000  H
  H81      1.0000 0.19540  0.98480  0.29290  Biso   1.000  H
  H82      1.0000 0.80460  0.48480  0.20710  Biso   1.000  H
  H83      1.0000 0.80460  0.01520  0.70710  Biso   1.000  H
  H84      1.0000 0.19540  0.51520  0.79290  Biso   1.000  H
  C65      1.0000 0.08130  0.85080  0.14860  Biso   1.000  C
  C66      1.0000 0.91870  0.35080  0.35140  Biso   1.000  C
  C67      1.0000 0.91870  0.14920  0.85140  Biso   1.000  C
  C68      1.0000 0.08130  0.64920  0.64860  Biso   1.000  C
  H85      1.0000 0.05420  0.86750  0.19070  Biso   1.000  H
  H86      1.0000 0.94580  0.36750  0.30930  Biso   1.000  H
  H87      1.0000 0.94580  0.13250  0.80930  Biso   1.000  H
  H88      1.0000 0.05420  0.63250  0.69070  Biso   1.000  H
  H89      1.0000 0.04480  0.80170  0.10040  Biso   1.000  H
  H90      1.0000 0.95520  0.30170  0.39960  Biso   1.000  H
  H91      1.0000 0.95520  0.19830  0.89960  Biso   1.000  H
  H92      1.0000 0.04480  0.69830  0.60040  Biso   1.000  H
  H93      1.0000 0.09160  0.92210  0.12300  Biso   1.000  H
  H94      1.0000 0.90840  0.42210  0.37700  Biso   1.000  H
  H95      1.0000 0.90840  0.07790  0.87700  Biso   1.000  H
  H96      1.0000 0.09160  0.57790  0.62300  Biso   1.000  H
  C69      1.0000 0.16260  0.79160  0.19720  Biso   1.000  C
  C70      1.0000 0.83740  0.29160  0.30280  Biso   1.000  C
  C71      1.0000 0.83740  0.20840  0.80280  Biso   1.000  C
  C72      1.0000 0.16260  0.70840  0.69720  Biso   1.000  C
  N41      1.0000 0.58296  0.33040  0.17935  Biso   1.000  N
  N42      1.0000 0.41704  0.83040  0.32065  Biso   1.000  N
  N43      1.0000 0.41704  0.66960  0.82065  Biso   1.000  N
  N44      1.0000 0.58296  0.16960  0.67935  Biso   1.000  N
  C73      1.0000 0.52510  0.38770  0.16530  Biso   1.000  C
  C74      1.0000 0.47490  0.88770  0.33470  Biso   1.000  C
  C75      1.0000 0.47490  0.61230  0.83470  Biso   1.000  C
  C76      1.0000 0.52510  0.11230  0.66530  Biso   1.000  C
  S1       1.0000 0.44417  0.47451  0.14207  Biso   1.000  S
  S2       1.0000 0.55583  0.97451  0.35793  Biso   1.000  S
  S3       1.0000 0.55583  0.52549  0.85793  Biso   1.000  S
  S4       1.0000 0.44417  0.02549  0.64207  Biso   1.000  S
  Cl1      1.0000 0.16765  0.26952  0.29996  Biso   1.000  Cl
  Cl2      1.0000 0.83235  0.76952  0.20004  Biso   1.000  Cl
  Cl3      1.0000 0.83235  0.73048  0.70004  Biso   1.000  Cl
  Cl4      1.0000 0.16765  0.23048  0.79996  Biso   1.000  Cl
  O1       1.0000 0.20380  0.37260  0.28510  Biso   1.000  O
  O2       1.0000 0.79620  0.87260  0.21490  Biso   1.000  O
  O3       1.0000 0.79620  0.62740  0.71490  Biso   1.000  O
  O4       1.0000 0.20380  0.12740  0.78510  Biso   1.000  O
  O5       1.0000 0.22800  0.20910  0.37390  Biso   1.000  O
  O6       1.0000 0.77200  0.70910  0.12610  Biso   1.000  O
  O7       1.0000 0.77200  0.79090  0.62610  Biso   1.000  O
  O8       1.0000 0.22800  0.29090  0.87390  Biso   1.000  O
  O9       1.0000 0.09478  0.29310  0.31940  Biso   1.000  O
  O10      1.0000 0.90522  0.79310  0.18060  Biso   1.000  O
  O11      1.0000 0.90522  0.70690  0.68060  Biso   1.000  O
  O12      1.0000 0.09478  0.20690  0.81940  Biso   1.000  O
  O13      1.0000 0.14770  0.19600  0.22300  Biso   1.000  O
  O14      1.0000 0.85230  0.69600  0.27700  Biso   1.000  O
  O15      1.0000 0.85230  0.80400  0.77700  Biso   1.000  O
  O16      1.0000 0.14770  0.30400  0.72300  Biso   1.000  O
  N45      1.0000 0.09310  0.61530  0.37510  Biso   1.000  N
  N46      1.0000 0.90690  0.11530  0.12490  Biso   1.000  N
  N47      1.0000 0.90690  0.38470  0.62490  Biso   1.000  N
  N48      1.0000 0.09310  0.88470  0.87510  Biso   1.000  N
  O17      1.0000 0.18670  0.58390  0.51840  Biso   1.000  O
  O18      1.0000 0.81330  0.08390  0.98160  Biso   1.000  O
  O19      1.0000 0.81330  0.41610  0.48160  Biso   1.000  O
  O20      1.0000 0.18670  0.91610  0.01840  Biso   1.000  O
  C77      1.0000 0.15750  0.56240  0.43640  Biso   1.000  C
  C78      1.0000 0.84250  0.06240  0.06360  Biso   1.000  C
  C79      1.0000 0.84250  0.43760  0.56360  Biso   1.000  C
  C80      1.0000 0.15750  0.93760  0.93640  Biso   1.000  C
  H97      1.0000 0.18360  0.50330  0.41620  Biso   1.000  H
  H98      1.0000 0.81640  0.00330  0.08380  Biso   1.000  H
  H99      1.0000 0.81640  0.49670  0.58380  Biso   1.000  H
  H100     1.0000 0.18360  0.99670  0.91620  Biso   1.000  H
  C81      1.0000 0.05730  0.57920  0.28100  Biso   1.000  C
  C82      1.0000 0.94270  0.07920  0.21900  Biso   1.000  C
  C83      1.0000 0.94270  0.42080  0.71900  Biso   1.000  C
  C84      1.0000 0.05730  0.92080  0.78100  Biso   1.000  C
  H101     1.0000 0.09250  0.51950  0.27110  Biso   1.000  H
  H102     1.0000 0.90750  0.01950  0.22890  Biso   1.000  H
  H103     1.0000 0.90750  0.48050  0.72890  Biso   1.000  H
  H104     1.0000 0.09250  0.98050  0.77110  Biso   1.000  H
  H105     1.0000 0.05490  0.64450  0.24220  Biso   1.000  H
  H106     1.0000 0.94510  0.14450  0.25780  Biso   1.000  H
  H107     1.0000 0.94510  0.35550  0.75780  Biso   1.000  H
  H108     1.0000 0.05490  0.85550  0.74220  Biso   1.000  H
  H109     1.0000 0.00070  0.54950  0.26670  Biso   1.000  H
  H110     1.0000 0.99930  0.04950  0.23330  Biso   1.000  H
  H111     1.0000 0.99930  0.45050  0.73330  Biso   1.000  H
  H112     1.0000 0.00070  0.95050  0.76670  Biso   1.000  H
  C85      1.0000 0.04910  0.70520  0.40110  Biso   1.000  C
  C86      1.0000 0.95090  0.20520  0.09890  Biso   1.000  C
  C87      1.0000 0.95090  0.29480  0.59890  Biso   1.000  C
  C88      1.0000 0.04910  0.79480  0.90110  Biso   1.000  C
  H113     1.0000 0.08680  0.73980  0.45740  Biso   1.000  H
  H114     1.0000 0.91320  0.23980  0.04260  Biso   1.000  H
  H115     1.0000 0.91320  0.26020  0.54260  Biso   1.000  H
  H116     1.0000 0.08680  0.76020  0.95740  Biso   1.000  H
  H117     1.0000 0.00040  0.67310  0.40960  Biso   1.000  H
  H118     1.0000 0.99960  0.17310  0.09040  Biso   1.000  H
  H119     1.0000 0.99960  0.32690  0.59040  Biso   1.000  H
  H120     1.0000 0.00040  0.82690  0.90960  Biso   1.000  H
  H121     1.0000 0.03060  0.76340  0.35400  Biso   1.000  H
  H122     1.0000 0.96940  0.26340  0.14600  Biso   1.000  H
  H123     1.0000 0.96940  0.23660  0.64600  Biso   1.000  H
  H124     1.0000 0.03060  0.73660  0.85400  Biso   1.000  H
