data_image0
_cell_length_a       22.121
_cell_length_b       9.5192
_cell_length_c       11.4148
_cell_angle_alpha    90
_cell_angle_beta     103.333
_cell_angle_gamma    90

_symmetry_space_group_name_H-M    "P 1"
_symmetry_int_tables_number       1

loop_
  _symmetry_equiv_pos_as_xyz
  'x, y, z'

loop_
  _atom_site_label
  _atom_site_occupancy
  _atom_site_fract_x
  _atom_site_fract_y
  _atom_site_fract_z
  _atom_site_thermal_displace_type
  _atom_site_B_iso_or_equiv
  _atom_site_type_symbol
  Cu1      1.0000 0.24580  0.56788  0.00323  Biso   1.000  Cu
  Cu2      1.0000 0.75420  0.06788  0.49677  Biso   1.000  Cu
  Cu3      1.0000 0.75420  0.43212  0.99677  Biso   1.000  Cu
  Cu4      1.0000 0.24580  0.93212  0.50323  Biso   1.000  Cu
  O1       1.0000 0.99820  0.72860  0.54868  Biso   1.000  O
  O2       1.0000 0.00180  0.22860  0.95132  Biso   1.000  O
  O3       1.0000 0.00180  0.27140  0.45132  Biso   1.000  O
  O4       1.0000 0.99820  0.77140  0.04868  Biso   1.000  O
  O5       1.0000 0.49871  0.74327  0.44056  Biso   1.000  O
  O6       1.0000 0.50129  0.24327  0.05944  Biso   1.000  O
  O7       1.0000 0.50129  0.25673  0.55944  Biso   1.000  O
  O8       1.0000 0.49871  0.75673  0.94056  Biso   1.000  O
  O9       1.0000 0.27686  0.82314  0.94981  Biso   1.000  O
  O10      1.0000 0.72314  0.32314  0.55019  Biso   1.000  O
  O11      1.0000 0.72314  0.17686  0.05019  Biso   1.000  O
  O12      1.0000 0.27686  0.67686  0.44981  Biso   1.000  O
  O13      1.0000 0.22558  0.74807  0.07922  Biso   1.000  O
  O14      1.0000 0.77442  0.24807  0.42078  Biso   1.000  O
  O15      1.0000 0.77442  0.25193  0.92078  Biso   1.000  O
  O16      1.0000 0.22558  0.75193  0.57922  Biso   1.000  O
  O17      1.0000 0.25081  0.96828  0.07733  Biso   1.000  O
  O18      1.0000 0.74919  0.46828  0.42267  Biso   1.000  O
  O19      1.0000 0.74919  0.03172  0.92267  Biso   1.000  O
  O20      1.0000 0.25081  0.53172  0.57733  Biso   1.000  O
  N1       1.0000 0.16299  0.58664  0.88880  Biso   1.000  N
  N2       1.0000 0.83701  0.08664  0.61120  Biso   1.000  N
  N3       1.0000 0.83701  0.41336  0.11120  Biso   1.000  N
  N4       1.0000 0.16299  0.91336  0.38880  Biso   1.000  N
  N5       1.0000 0.99273  0.67037  0.64627  Biso   1.000  N
  N6       1.0000 0.00727  0.17037  0.85373  Biso   1.000  N
  N7       1.0000 0.00727  0.32963  0.35373  Biso   1.000  N
  N8       1.0000 0.99273  0.82963  0.14627  Biso   1.000  N
  N9       1.0000 0.33130  0.58079  0.11359  Biso   1.000  N
  N10      1.0000 0.66870  0.08079  0.38641  Biso   1.000  N
  N11      1.0000 0.66870  0.41921  0.88641  Biso   1.000  N
  N12      1.0000 0.33130  0.91921  0.61359  Biso   1.000  N
  N13      1.0000 0.50348  0.66867  0.34991  Biso   1.000  N
  N14      1.0000 0.49652  0.16867  0.15009  Biso   1.000  N
  N15      1.0000 0.49652  0.33133  0.65009  Biso   1.000  N
  N16      1.0000 0.50348  0.83133  0.84991  Biso   1.000  N
  N17      1.0000 0.27129  0.42403  0.89967  Biso   1.000  N
  N18      1.0000 0.72871  0.92403  0.60033  Biso   1.000  N
  N19      1.0000 0.72871  0.57597  0.10033  Biso   1.000  N
  N20      1.0000 0.27129  0.07597  0.39967  Biso   1.000  N
  N21      1.0000 0.26581  0.18425  0.82198  Biso   1.000  N
  N22      1.0000 0.73419  0.68425  0.67802  Biso   1.000  N
  N23      1.0000 0.73419  0.81575  0.17802  Biso   1.000  N
  N24      1.0000 0.26581  0.31575  0.32198  Biso   1.000  N
  N25      1.0000 0.21271  0.06722  0.63476  Biso   1.000  N
  N26      1.0000 0.78729  0.56722  0.86524  Biso   1.000  N
  N27      1.0000 0.78729  0.93278  0.36524  Biso   1.000  N
  N28      1.0000 0.21271  0.43278  0.13476  Biso   1.000  N
  N29      1.0000 0.25166  0.85074  0.03414  Biso   1.000  N
  N30      1.0000 0.74834  0.35074  0.46586  Biso   1.000  N
  N31      1.0000 0.74834  0.14926  0.96586  Biso   1.000  N
  N32      1.0000 0.25166  0.64926  0.53414  Biso   1.000  N
  C1       1.0000 0.10999  0.58592  0.92736  Biso   1.000  C
  C2       1.0000 0.89001  0.08592  0.57264  Biso   1.000  C
  C3       1.0000 0.89001  0.41408  0.07264  Biso   1.000  C
  C4       1.0000 0.10999  0.91408  0.42736  Biso   1.000  C
  C5       1.0000 0.05222  0.60952  0.85216  Biso   1.000  C
  C6       1.0000 0.94778  0.10952  0.64784  Biso   1.000  C
  C7       1.0000 0.94778  0.39048  0.14784  Biso   1.000  C
  C8       1.0000 0.05222  0.89048  0.35216  Biso   1.000  C
  C9       1.0000 0.04857  0.63891  0.73067  Biso   1.000  C
  C10      1.0000 0.95143  0.13891  0.76933  Biso   1.000  C
  C11      1.0000 0.95143  0.36109  0.26933  Biso   1.000  C
  C12      1.0000 0.04857  0.86109  0.23067  Biso   1.000  C
  C13      1.0000 0.10384  0.64212  0.69102  Biso   1.000  C
  C14      1.0000 0.89616  0.14212  0.80898  Biso   1.000  C
  C15      1.0000 0.89616  0.35788  0.30898  Biso   1.000  C
  C16      1.0000 0.10384  0.85788  0.19102  Biso   1.000  C
  C17      1.0000 0.15938  0.61416  0.77173  Biso   1.000  C
  C18      1.0000 0.84062  0.11416  0.72827  Biso   1.000  C
  C19      1.0000 0.84062  0.38584  0.22827  Biso   1.000  C
  C20      1.0000 0.15938  0.88584  0.27173  Biso   1.000  C
  C21      1.0000 0.92795  0.64123  0.66338  Biso   1.000  C
  C22      1.0000 0.07205  0.14123  0.83662  Biso   1.000  C
  C23      1.0000 0.07205  0.35877  0.33662  Biso   1.000  C
  C24      1.0000 0.92795  0.85877  0.16338  Biso   1.000  C
  C25      1.0000 0.91368  0.74569  0.75469  Biso   1.000  C
  C26      1.0000 0.08632  0.24569  0.74531  Biso   1.000  C
  C27      1.0000 0.08632  0.25431  0.24531  Biso   1.000  C
  C28      1.0000 0.91368  0.75431  0.25469  Biso   1.000  C
  C29      1.0000 0.88256  0.66430  0.54170  Biso   1.000  C
  C30      1.0000 0.11744  0.16430  0.95830  Biso   1.000  C
  C31      1.0000 0.11744  0.33570  0.45830  Biso   1.000  C
  C32      1.0000 0.88256  0.83570  0.04170  Biso   1.000  C
  C33      1.0000 0.92367  0.48804  0.70084  Biso   1.000  C
  C34      1.0000 0.07633  0.98804  0.79916  Biso   1.000  C
  C35      1.0000 0.07633  0.51196  0.29916  Biso   1.000  C
  C36      1.0000 0.92367  0.01196  0.20084  Biso   1.000  C
  C37      1.0000 0.33622  0.61630  0.22990  Biso   1.000  C
  C38      1.0000 0.66378  0.11630  0.27010  Biso   1.000  C
  C39      1.0000 0.66378  0.38370  0.77010  Biso   1.000  C
  C40      1.0000 0.33622  0.88370  0.72990  Biso   1.000  C
  C41      1.0000 0.39225  0.64365  0.30862  Biso   1.000  C
  C42      1.0000 0.60775  0.14365  0.19138  Biso   1.000  C
  C43      1.0000 0.60775  0.35635  0.69138  Biso   1.000  C
  C44      1.0000 0.39225  0.85635  0.80862  Biso   1.000  C
  C45      1.0000 0.44711  0.63274  0.26815  Biso   1.000  C
  C46      1.0000 0.55289  0.13274  0.23185  Biso   1.000  C
  C47      1.0000 0.55289  0.36726  0.73185  Biso   1.000  C
  C48      1.0000 0.44711  0.86726  0.76815  Biso   1.000  C
  C49      1.0000 0.44258  0.59253  0.14874  Biso   1.000  C
  C50      1.0000 0.55742  0.09253  0.35126  Biso   1.000  C
  C51      1.0000 0.55742  0.40747  0.85126  Biso   1.000  C
  C52      1.0000 0.44258  0.90747  0.64874  Biso   1.000  C
  C53      1.0000 0.38419  0.56892  0.07550  Biso   1.000  C
  C54      1.0000 0.61581  0.06892  0.42450  Biso   1.000  C
  C55      1.0000 0.61581  0.43108  0.92450  Biso   1.000  C
  C56      1.0000 0.38419  0.93108  0.57550  Biso   1.000  C
  C57      1.0000 0.56771  0.62265  0.33973  Biso   1.000  C
  C58      1.0000 0.43229  0.12265  0.16027  Biso   1.000  C
  C59      1.0000 0.43229  0.37735  0.66027  Biso   1.000  C
  C60      1.0000 0.56771  0.87735  0.83973  Biso   1.000  C
  C61      1.0000 0.56665  0.46550  0.31352  Biso   1.000  C
  C62      1.0000 0.43335  0.96550  0.18648  Biso   1.000  C
  C63      1.0000 0.43335  0.53450  0.68648  Biso   1.000  C
  C64      1.0000 0.56665  0.03450  0.81352  Biso   1.000  C
  C65      1.0000 0.61195  0.64990  0.46183  Biso   1.000  C
  C66      1.0000 0.38805  0.14990  0.03817  Biso   1.000  C
  C67      1.0000 0.38805  0.35010  0.53817  Biso   1.000  C
  C68      1.0000 0.61195  0.85010  0.96183  Biso   1.000  C
  C69      1.0000 0.58781  0.71050  0.24359  Biso   1.000  C
  C70      1.0000 0.41219  0.21050  0.25641  Biso   1.000  C
  C71      1.0000 0.41219  0.28950  0.75641  Biso   1.000  C
  C72      1.0000 0.58781  0.78950  0.74359  Biso   1.000  C
  C73      1.0000 0.26553  0.31288  0.85623  Biso   1.000  C
  C74      1.0000 0.73447  0.81288  0.64377  Biso   1.000  C
  C75      1.0000 0.73447  0.68712  0.14377  Biso   1.000  C
  C76      1.0000 0.26553  0.18712  0.35623  Biso   1.000  C
  C77      1.0000 0.23612  0.13119  0.71987  Biso   1.000  C
  C78      1.0000 0.76388  0.63119  0.78013  Biso   1.000  C
  C79      1.0000 0.76388  0.86881  0.28013  Biso   1.000  C
  C80      1.0000 0.23612  0.36881  0.21987  Biso   1.000  C
  H1       1.0000 0.37860  0.54480  0.99360  Biso   1.000  H
  H2       1.0000 0.62140  0.04480  0.50640  Biso   1.000  H
  H3       1.0000 0.62140  0.45520  0.00640  Biso   1.000  H
  H4       1.0000 0.37860  0.95520  0.49360  Biso   1.000  H
  H5       1.0000 0.47460  0.58600  0.11420  Biso   1.000  H
  H6       1.0000 0.52540  0.08600  0.38580  Biso   1.000  H
  H7       1.0000 0.52540  0.41400  0.88580  Biso   1.000  H
  H8       1.0000 0.47460  0.91400  0.61420  Biso   1.000  H
  H9       1.0000 0.39320  0.66800  0.38480  Biso   1.000  H
  H10      1.0000 0.60680  0.16800  0.11520  Biso   1.000  H
  H11      1.0000 0.60680  0.33200  0.61520  Biso   1.000  H
  H12      1.0000 0.39320  0.83200  0.88480  Biso   1.000  H
  H13      1.0000 0.30000  0.62320  0.25970  Biso   1.000  H
  H14      1.0000 0.70000  0.12320  0.24030  Biso   1.000  H
  H15      1.0000 0.70000  0.37680  0.74030  Biso   1.000  H
  H16      1.0000 0.30000  0.87680  0.75970  Biso   1.000  H
  H17      1.0000 0.59960  0.60000  0.52380  Biso   1.000  H
  H18      1.0000 0.40040  0.10000  0.97620  Biso   1.000  H
  H19      1.0000 0.40040  0.40000  0.47620  Biso   1.000  H
  H20      1.0000 0.59960  0.90000  0.02380  Biso   1.000  H
  H21      1.0000 0.61640  0.75100  0.47880  Biso   1.000  H
  H22      1.0000 0.38360  0.25100  0.02120  Biso   1.000  H
  H23      1.0000 0.38360  0.24900  0.52120  Biso   1.000  H
  H24      1.0000 0.61640  0.74900  0.97880  Biso   1.000  H
  H25      1.0000 0.65200  0.60800  0.45870  Biso   1.000  H
  H26      1.0000 0.34800  0.10800  0.04130  Biso   1.000  H
  H27      1.0000 0.34800  0.39200  0.54130  Biso   1.000  H
  H28      1.0000 0.65200  0.89200  0.95870  Biso   1.000  H
  H29      1.0000 0.60890  0.43700  0.31800  Biso   1.000  H
  H30      1.0000 0.39110  0.93700  0.18200  Biso   1.000  H
  H31      1.0000 0.39110  0.56300  0.68200  Biso   1.000  H
  H32      1.0000 0.60890  0.06300  0.81800  Biso   1.000  H
  H33      1.0000 0.54700  0.44600  0.23400  Biso   1.000  H
  H34      1.0000 0.45300  0.94600  0.26600  Biso   1.000  H
  H35      1.0000 0.45300  0.55400  0.76600  Biso   1.000  H
  H36      1.0000 0.54700  0.05400  0.73400  Biso   1.000  H
  H37      1.0000 0.55180  0.41400  0.36900  Biso   1.000  H
  H38      1.0000 0.44820  0.91400  0.13100  Biso   1.000  H
  H39      1.0000 0.44820  0.58600  0.63100  Biso   1.000  H
  H40      1.0000 0.55180  0.08600  0.86900  Biso   1.000  H
  H41      1.0000 0.62830  0.67600  0.24100  Biso   1.000  H
  H42      1.0000 0.37170  0.17600  0.25900  Biso   1.000  H
  H43      1.0000 0.37170  0.32400  0.75900  Biso   1.000  H
  H44      1.0000 0.62830  0.82400  0.74100  Biso   1.000  H
  H45      1.0000 0.59060  0.80600  0.26400  Biso   1.000  H
  H46      1.0000 0.40940  0.30600  0.23600  Biso   1.000  H
  H47      1.0000 0.40940  0.19400  0.73600  Biso   1.000  H
  H48      1.0000 0.59060  0.69400  0.76400  Biso   1.000  H
  H49      1.0000 0.56160  0.69700  0.16460  Biso   1.000  H
  H50      1.0000 0.43840  0.19700  0.33540  Biso   1.000  H
  H51      1.0000 0.43840  0.30300  0.83540  Biso   1.000  H
  H52      1.0000 0.56160  0.80300  0.66460  Biso   1.000  H
  H53      1.0000 0.19670  0.61230  0.74250  Biso   1.000  H
  H54      1.0000 0.80330  0.11230  0.75750  Biso   1.000  H
  H55      1.0000 0.80330  0.38770  0.25750  Biso   1.000  H
  H56      1.0000 0.19670  0.88770  0.24250  Biso   1.000  H
  H57      1.0000 0.10260  0.65900  0.61740  Biso   1.000  H
  H58      1.0000 0.89740  0.15900  0.88260  Biso   1.000  H
  H59      1.0000 0.89740  0.34100  0.38260  Biso   1.000  H
  H60      1.0000 0.10260  0.84100  0.11740  Biso   1.000  H
  H61      1.0000 0.01990  0.60950  0.88530  Biso   1.000  H
  H62      1.0000 0.98010  0.10950  0.61470  Biso   1.000  H
  H63      1.0000 0.98010  0.39050  0.11470  Biso   1.000  H
  H64      1.0000 0.01990  0.89050  0.38530  Biso   1.000  H
  H65      1.0000 0.11360  0.56540  0.01210  Biso   1.000  H
  H66      1.0000 0.88640  0.06540  0.48790  Biso   1.000  H
  H67      1.0000 0.88640  0.43460  0.98790  Biso   1.000  H
  H68      1.0000 0.11360  0.93460  0.51210  Biso   1.000  H
  H69      1.0000 0.94030  0.73200  0.83550  Biso   1.000  H
  H70      1.0000 0.05970  0.23200  0.66450  Biso   1.000  H
  H71      1.0000 0.05970  0.26800  0.16450  Biso   1.000  H
  H72      1.0000 0.94030  0.76800  0.33550  Biso   1.000  H
  H73      1.0000 0.87630  0.73300  0.76400  Biso   1.000  H
  H74      1.0000 0.12370  0.23300  0.73600  Biso   1.000  H
  H75      1.0000 0.12370  0.26700  0.23600  Biso   1.000  H
  H76      1.0000 0.87630  0.76700  0.26400  Biso   1.000  H
  H77      1.0000 0.91880  0.84100  0.72940  Biso   1.000  H
  H78      1.0000 0.08120  0.34100  0.77060  Biso   1.000  H
  H79      1.0000 0.08120  0.15900  0.27060  Biso   1.000  H
  H80      1.0000 0.91880  0.65900  0.22940  Biso   1.000  H
  H81      1.0000 0.88130  0.76200  0.51580  Biso   1.000  H
  H82      1.0000 0.11870  0.26200  0.98420  Biso   1.000  H
  H83      1.0000 0.11870  0.23800  0.48420  Biso   1.000  H
  H84      1.0000 0.88130  0.73800  0.01580  Biso   1.000  H
  H85      1.0000 0.84230  0.63800  0.54960  Biso   1.000  H
  H86      1.0000 0.15770  0.13800  0.95040  Biso   1.000  H
  H87      1.0000 0.15770  0.36200  0.45040  Biso   1.000  H
  H88      1.0000 0.84230  0.86200  0.04960  Biso   1.000  H
  H89      1.0000 0.89200  0.60300  0.47930  Biso   1.000  H
  H90      1.0000 0.10800  0.10300  0.02070  Biso   1.000  H
  H91      1.0000 0.10800  0.39700  0.52070  Biso   1.000  H
  H92      1.0000 0.89200  0.89700  0.97930  Biso   1.000  H
  H93      1.0000 0.93570  0.42700  0.64720  Biso   1.000  H
  H94      1.0000 0.06430  0.92700  0.85280  Biso   1.000  H
  H95      1.0000 0.06430  0.57300  0.35280  Biso   1.000  H
  H96      1.0000 0.93570  0.07300  0.14720  Biso   1.000  H
  H97      1.0000 0.88490  0.46900  0.70390  Biso   1.000  H
  H98      1.0000 0.11510  0.96900  0.79610  Biso   1.000  H
  H99      1.0000 0.11510  0.53100  0.29610  Biso   1.000  H
  H100     1.0000 0.88490  0.03100  0.20390  Biso   1.000  H
  H101     1.0000 0.94900  0.46700  0.78210  Biso   1.000  H
  H102     1.0000 0.05100  0.96700  0.71790  Biso   1.000  H
  H103     1.0000 0.05100  0.53300  0.21790  Biso   1.000  H
  H104     1.0000 0.94900  0.03300  0.28210  Biso   1.000  H
