data_image0
_cell_length_a       11.107
_cell_length_b       11.408
_cell_length_c       12.134
_cell_angle_alpha    90
_cell_angle_beta     90.78
_cell_angle_gamma    90

_symmetry_space_group_name_H-M    "P 1"
_symmetry_int_tables_number       1

loop_
  _symmetry_equiv_pos_as_xyz
  'x, y, z'

loop_
  _atom_site_label
  _atom_site_occupancy
  _atom_site_fract_x
  _atom_site_fract_y
  _atom_site_fract_z
  _atom_site_thermal_displace_type
  _atom_site_B_iso_or_equiv
  _atom_site_type_symbol
  Cu1      1.0000 0.27880  0.31255  0.52565  Biso   1.000  Cu
  Cu2      1.0000 0.22120  0.81255  0.97435  Biso   1.000  Cu
  Cu3      1.0000 0.72120  0.68745  0.47435  Biso   1.000  Cu
  Cu4      1.0000 0.77880  0.18745  0.02565  Biso   1.000  Cu
  Cl1      1.0000 0.01583  0.21982  0.70306  Biso   1.000  Cl
  Cl2      1.0000 0.48417  0.71982  0.79694  Biso   1.000  Cl
  Cl3      1.0000 0.98417  0.78018  0.29694  Biso   1.000  Cl
  Cl4      1.0000 0.51583  0.28018  0.20306  Biso   1.000  Cl
  O1       1.0000 0.13680  0.52194  0.46020  Biso   1.000  O
  O2       1.0000 0.36320  0.02194  0.03980  Biso   1.000  O
  O3       1.0000 0.86320  0.47806  0.53980  Biso   1.000  O
  O4       1.0000 0.63680  0.97806  0.96020  Biso   1.000  O
  H1       1.0000 0.14600  0.47400  0.39800  Biso   1.000  H
  H2       1.0000 0.35400  0.97400  0.10200  Biso   1.000  H
  H3       1.0000 0.85400  0.52600  0.60200  Biso   1.000  H
  H4       1.0000 0.64600  0.02600  0.89800  Biso   1.000  H
  O5       1.0000 0.31493  0.34160  0.68454  Biso   1.000  O
  O6       1.0000 0.18507  0.84160  0.81546  Biso   1.000  O
  O7       1.0000 0.68507  0.65840  0.31546  Biso   1.000  O
  O8       1.0000 0.81493  0.15840  0.18454  Biso   1.000  O
  O9       1.0000 0.17778  0.64401  0.98590  Biso   1.000  O
  O10      1.0000 0.32222  0.14401  0.51410  Biso   1.000  O
  O11      1.0000 0.82222  0.35599  0.01410  Biso   1.000  O
  O12      1.0000 0.67778  0.85599  0.48590  Biso   1.000  O
  O13      1.0000 0.33135  0.86852  0.18558  Biso   1.000  O
  O14      1.0000 0.16865  0.36852  0.31442  Biso   1.000  O
  O15      1.0000 0.66865  0.13148  0.81442  Biso   1.000  O
  O16      1.0000 0.83135  0.63148  0.68558  Biso   1.000  O
  O17      1.0000 0.47350  0.37700  0.48770  Biso   1.000  O
  O18      1.0000 0.02650  0.87700  0.01230  Biso   1.000  O
  O19      1.0000 0.52650  0.62300  0.51230  Biso   1.000  O
  O20      1.0000 0.97350  0.12300  0.98770  Biso   1.000  O
  H5       1.0000 0.50010  0.37220  0.41670  Biso   1.000  H
  H6       1.0000 0.99990  0.87220  0.08330  Biso   1.000  H
  H7       1.0000 0.49990  0.62780  0.58330  Biso   1.000  H
  H8       1.0000 0.00010  0.12780  0.91670  Biso   1.000  H
  H9       1.0000 0.52000  0.40560  0.53850  Biso   1.000  H
  H10      1.0000 0.98000  0.90560  0.96150  Biso   1.000  H
  H11      1.0000 0.48000  0.59440  0.46150  Biso   1.000  H
  H12      1.0000 0.02000  0.09440  0.03850  Biso   1.000  H
  O21      1.0000 0.07610  0.21160  0.59861  Biso   1.000  O
  O22      1.0000 0.42390  0.71160  0.90139  Biso   1.000  O
  O23      1.0000 0.92390  0.78840  0.40139  Biso   1.000  O
  O24      1.0000 0.57610  0.28840  0.09861  Biso   1.000  O
  O25      1.0000 0.99490  0.34021  0.73180  Biso   1.000  O
  O26      1.0000 0.50510  0.84021  0.76820  Biso   1.000  O
  O27      1.0000 0.00510  0.65979  0.26820  Biso   1.000  O
  O28      1.0000 0.49490  0.15979  0.23180  Biso   1.000  O
  O29      1.0000 0.90460  0.15750  0.69764  Biso   1.000  O
  O30      1.0000 0.59540  0.65750  0.80236  Biso   1.000  O
  O31      1.0000 0.09540  0.84250  0.30236  Biso   1.000  O
  O32      1.0000 0.40460  0.34250  0.19764  Biso   1.000  O
  O33      1.0000 0.09050  0.16690  0.78809  Biso   1.000  O
  O34      1.0000 0.40950  0.66690  0.71191  Biso   1.000  O
  O35      1.0000 0.90950  0.83310  0.21191  Biso   1.000  O
  O36      1.0000 0.59050  0.33310  0.28809  Biso   1.000  O
  N1       1.0000 0.19870  0.46580  0.54230  Biso   1.000  N
  N2       1.0000 0.30130  0.96580  0.95770  Biso   1.000  N
  N3       1.0000 0.80130  0.53420  0.45770  Biso   1.000  N
  N4       1.0000 0.69870  0.03420  0.04230  Biso   1.000  N
  N5       1.0000 0.27130  0.46920  0.82130  Biso   1.000  N
  N6       1.0000 0.22870  0.96920  0.67870  Biso   1.000  N
  N7       1.0000 0.72870  0.53080  0.17870  Biso   1.000  N
  N8       1.0000 0.77130  0.03080  0.32130  Biso   1.000  N
  H13      1.0000 0.23400  0.53100  0.83500  Biso   1.000  H
  H14      1.0000 0.26600  0.03100  0.66500  Biso   1.000  H
  H15      1.0000 0.76600  0.46900  0.16500  Biso   1.000  H
  H16      1.0000 0.73400  0.96900  0.33500  Biso   1.000  H
  N9       1.0000 0.19260  0.49090  0.10426  Biso   1.000  N
  N10      1.0000 0.30740  0.99090  0.39574  Biso   1.000  N
  N11      1.0000 0.80740  0.50910  0.89574  Biso   1.000  N
  N12      1.0000 0.69260  0.00910  0.60426  Biso   1.000  N
  H17      1.0000 0.21800  0.46500  0.15900  Biso   1.000  H
  H18      1.0000 0.28200  0.96500  0.34100  Biso   1.000  H
  H19      1.0000 0.78200  0.53500  0.84100  Biso   1.000  H
  H20      1.0000 0.71800  0.03500  0.65900  Biso   1.000  H
  N13      1.0000 0.27930  0.78580  0.12451  Biso   1.000  N
  N14      1.0000 0.22070  0.28580  0.37549  Biso   1.000  N
  N15      1.0000 0.72070  0.21420  0.87549  Biso   1.000  N
  N16      1.0000 0.77930  0.71420  0.62451  Biso   1.000  N
  C1       1.0000 0.11490  0.60650  0.67550  Biso   1.000  C
  C2       1.0000 0.38510  0.10650  0.82450  Biso   1.000  C
  C3       1.0000 0.88510  0.39350  0.32450  Biso   1.000  C
  C4       1.0000 0.61490  0.89350  0.17550  Biso   1.000  C
  H21      1.0000 0.07470  0.64010  0.61250  Biso   1.000  H
  H22      1.0000 0.42530  0.14010  0.88750  Biso   1.000  H
  H23      1.0000 0.92530  0.35990  0.38750  Biso   1.000  H
  H24      1.0000 0.57470  0.85990  0.11250  Biso   1.000  H
  H25      1.0000 0.16520  0.66470  0.71000  Biso   1.000  H
  H26      1.0000 0.33480  0.16470  0.79000  Biso   1.000  H
  H27      1.0000 0.83480  0.33530  0.29000  Biso   1.000  H
  H28      1.0000 0.66520  0.83530  0.21000  Biso   1.000  H
  H29      1.0000 0.05620  0.57970  0.72710  Biso   1.000  H
  H30      1.0000 0.44380  0.07970  0.77290  Biso   1.000  H
  H31      1.0000 0.94380  0.42030  0.27290  Biso   1.000  H
  H32      1.0000 0.55620  0.92030  0.22710  Biso   1.000  H
  C5       1.0000 0.19010  0.50630  0.64000  Biso   1.000  C
  C6       1.0000 0.30990  0.00630  0.86000  Biso   1.000  C
  C7       1.0000 0.80990  0.49370  0.36000  Biso   1.000  C
  C8       1.0000 0.69010  0.99370  0.14000  Biso   1.000  C
  C9       1.0000 0.26340  0.43370  0.71870  Biso   1.000  C
  C10      1.0000 0.23660  0.93370  0.78130  Biso   1.000  C
  C11      1.0000 0.73660  0.56630  0.28130  Biso   1.000  C
  C12      1.0000 0.76340  0.06630  0.21870  Biso   1.000  C
  C13      1.0000 0.33230  0.40530  0.90970  Biso   1.000  C
  C14      1.0000 0.16770  0.90530  0.59030  Biso   1.000  C
  C15      1.0000 0.66770  0.59470  0.09030  Biso   1.000  C
  C16      1.0000 0.83230  0.09470  0.40970  Biso   1.000  C
  H33      1.0000 0.37160  0.46040  0.95930  Biso   1.000  H
  H34      1.0000 0.12840  0.96040  0.54070  Biso   1.000  H
  H35      1.0000 0.62840  0.53960  0.04070  Biso   1.000  H
  H36      1.0000 0.87160  0.03960  0.45930  Biso   1.000  H
  H37      1.0000 0.39370  0.35510  0.87870  Biso   1.000  H
  H38      1.0000 0.10630  0.85510  0.62130  Biso   1.000  H
  H39      1.0000 0.60630  0.64490  0.12130  Biso   1.000  H
  H40      1.0000 0.89370  0.14490  0.37870  Biso   1.000  H
  C17      1.0000 0.24320  0.33060  0.97410  Biso   1.000  C
  C18      1.0000 0.25680  0.83060  0.52590  Biso   1.000  C
  C19      1.0000 0.75680  0.66940  0.02590  Biso   1.000  C
  C20      1.0000 0.74320  0.16940  0.47410  Biso   1.000  C
  H41      1.0000 0.28650  0.28830  0.03150  Biso   1.000  H
  H42      1.0000 0.21350  0.78830  0.46850  Biso   1.000  H
  H43      1.0000 0.71350  0.71170  0.96850  Biso   1.000  H
  H44      1.0000 0.78650  0.21170  0.53150  Biso   1.000  H
  H45      1.0000 0.20690  0.27340  0.92480  Biso   1.000  H
  H46      1.0000 0.29310  0.77340  0.57520  Biso   1.000  H
  H47      1.0000 0.79310  0.72660  0.07520  Biso   1.000  H
  H48      1.0000 0.70690  0.22660  0.42480  Biso   1.000  H
  C21      1.0000 0.14310  0.40380  0.02680  Biso   1.000  C
  C22      1.0000 0.35690  0.90380  0.47320  Biso   1.000  C
  C23      1.0000 0.85690  0.59620  0.97320  Biso   1.000  C
  C24      1.0000 0.64310  0.09620  0.52680  Biso   1.000  C
  H49      1.0000 0.09730  0.44370  0.96940  Biso   1.000  H
  H50      1.0000 0.40270  0.94370  0.53060  Biso   1.000  H
  H51      1.0000 0.90270  0.55630  0.03060  Biso   1.000  H
  H52      1.0000 0.59730  0.05630  0.46940  Biso   1.000  H
  H53      1.0000 0.08870  0.35220  0.06560  Biso   1.000  H
  H54      1.0000 0.41130  0.85220  0.43440  Biso   1.000  H
  H55      1.0000 0.91130  0.64780  0.93440  Biso   1.000  H
  H56      1.0000 0.58870  0.14780  0.56560  Biso   1.000  H
  C25      1.0000 0.21050  0.60170  0.07880  Biso   1.000  C
  C26      1.0000 0.28950  0.10170  0.42120  Biso   1.000  C
  C27      1.0000 0.78950  0.39830  0.92120  Biso   1.000  C
  C28      1.0000 0.71050  0.89830  0.57880  Biso   1.000  C
  C29      1.0000 0.27320  0.67870  0.16040  Biso   1.000  C
  C30      1.0000 0.22680  0.17870  0.33960  Biso   1.000  C
  C31      1.0000 0.72680  0.32130  0.83960  Biso   1.000  C
  C32      1.0000 0.77320  0.82130  0.66040  Biso   1.000  C
  C33      1.0000 0.32610  0.63810  0.26690  Biso   1.000  C
  C34      1.0000 0.17390  0.13810  0.23310  Biso   1.000  C
  C35      1.0000 0.67390  0.36190  0.73310  Biso   1.000  C
  C36      1.0000 0.82610  0.86190  0.76690  Biso   1.000  C
  H57      1.0000 0.39520  0.68510  0.28520  Biso   1.000  H
  H58      1.0000 0.10480  0.18510  0.21480  Biso   1.000  H
  H59      1.0000 0.60480  0.31490  0.71480  Biso   1.000  H
  H60      1.0000 0.89520  0.81490  0.78520  Biso   1.000  H
  H61      1.0000 0.34990  0.55760  0.26040  Biso   1.000  H
  H62      1.0000 0.15010  0.05760  0.23960  Biso   1.000  H
  H63      1.0000 0.65010  0.44240  0.73960  Biso   1.000  H
  H64      1.0000 0.84990  0.94240  0.76040  Biso   1.000  H
  H65      1.0000 0.26730  0.64550  0.32370  Biso   1.000  H
  H66      1.0000 0.23270  0.14550  0.17630  Biso   1.000  H
  H67      1.0000 0.73270  0.35450  0.67630  Biso   1.000  H
  H68      1.0000 0.76730  0.85450  0.82370  Biso   1.000  H
