data_image0
_cell_length_a       8.2043
_cell_length_b       14.97
_cell_length_c       10.6012
_cell_angle_alpha    90
_cell_angle_beta     90.191
_cell_angle_gamma    90

_symmetry_space_group_name_H-M    "P 1"
_symmetry_int_tables_number       1

loop_
  _symmetry_equiv_pos_as_xyz
  'x, y, z'

loop_
  _atom_site_label
  _atom_site_occupancy
  _atom_site_fract_x
  _atom_site_fract_y
  _atom_site_fract_z
  _atom_site_thermal_displace_type
  _atom_site_B_iso_or_equiv
  _atom_site_type_symbol
  Cu1      1.0000 0.87591  0.02659  0.57188  Biso   1.000  Cu
  Cu2      1.0000 0.37591  0.47341  0.07188  Biso   1.000  Cu
  Cu3      1.0000 0.12409  0.97341  0.42812  Biso   1.000  Cu
  Cu4      1.0000 0.62409  0.52659  0.92812  Biso   1.000  Cu
  O1       1.0000 0.76250  0.92710  0.49090  Biso   1.000  O
  O2       1.0000 0.26250  0.57290  0.99090  Biso   1.000  O
  O3       1.0000 0.23750  0.07290  0.50910  Biso   1.000  O
  O4       1.0000 0.73750  0.42710  0.00910  Biso   1.000  O
  O5       1.0000 0.68920  0.60880  0.06540  Biso   1.000  O
  O6       1.0000 0.18920  0.89120  0.56540  Biso   1.000  O
  O7       1.0000 0.31080  0.39120  0.93460  Biso   1.000  O
  O8       1.0000 0.81080  0.10880  0.43460  Biso   1.000  O
  O9       1.0000 0.97060  0.88120  0.36870  Biso   1.000  O
  O10      1.0000 0.47060  0.61880  0.86870  Biso   1.000  O
  O11      1.0000 0.02940  0.11880  0.63130  Biso   1.000  O
  O12      1.0000 0.52940  0.38120  0.13130  Biso   1.000  O
  O13      1.0000 0.47910  0.56170  0.18460  Biso   1.000  O
  O14      1.0000 0.97910  0.93830  0.68460  Biso   1.000  O
  O15      1.0000 0.52090  0.43830  0.81540  Biso   1.000  O
  O16      1.0000 0.02090  0.06170  0.31540  Biso   1.000  O
  N1       1.0000 0.69060  0.05580  0.71070  Biso   1.000  N
  N2       1.0000 0.19060  0.44420  0.21070  Biso   1.000  N
  N3       1.0000 0.30940  0.94420  0.28930  Biso   1.000  N
  N4       1.0000 0.80940  0.55580  0.78930  Biso   1.000  N
  N5       1.0000 0.51070  0.71130  0.34320  Biso   1.000  N
  N6       1.0000 0.01070  0.78870  0.84320  Biso   1.000  N
  N7       1.0000 0.48930  0.28870  0.65680  Biso   1.000  N
  N8       1.0000 0.98930  0.21130  0.15680  Biso   1.000  N
  C1       1.0000 0.82760  0.87540  0.41220  Biso   1.000  C
  C2       1.0000 0.32760  0.62460  0.91220  Biso   1.000  C
  C3       1.0000 0.17240  0.12460  0.58780  Biso   1.000  C
  C4       1.0000 0.67240  0.37540  0.08780  Biso   1.000  C
  C5       1.0000 0.72680  0.80010  0.36430  Biso   1.000  C
  C6       1.0000 0.22680  0.69990  0.86430  Biso   1.000  C
  C7       1.0000 0.27320  0.19990  0.63570  Biso   1.000  C
  C8       1.0000 0.77320  0.30010  0.13570  Biso   1.000  C
  C9       1.0000 0.76120  0.74000  0.26770  Biso   1.000  C
  C10      1.0000 0.26120  0.76000  0.76770  Biso   1.000  C
  C11      1.0000 0.23880  0.26000  0.73230  Biso   1.000  C
  C12      1.0000 0.73880  0.24000  0.23230  Biso   1.000  C
  H1       1.0000 0.85950  0.73720  0.22080  Biso   1.000  H
  H2       1.0000 0.35950  0.76280  0.72080  Biso   1.000  H
  H3       1.0000 0.14050  0.26280  0.77920  Biso   1.000  H
  H4       1.0000 0.64050  0.23720  0.27920  Biso   1.000  H
  C13      1.0000 0.62700  0.68530  0.25240  Biso   1.000  C
  C14      1.0000 0.12700  0.81470  0.75240  Biso   1.000  C
  C15      1.0000 0.37300  0.31470  0.74760  Biso   1.000  C
  C16      1.0000 0.87300  0.18530  0.24760  Biso   1.000  C
  C17      1.0000 0.57630  0.77980  0.40670  Biso   1.000  C
  C18      1.0000 0.07630  0.72020  0.90670  Biso   1.000  C
  C19      1.0000 0.42370  0.22020  0.59330  Biso   1.000  C
  C20      1.0000 0.92370  0.27980  0.09330  Biso   1.000  C
  C21      1.0000 0.60110  0.61220  0.15920  Biso   1.000  C
  C22      1.0000 0.10110  0.88780  0.65920  Biso   1.000  C
  C23      1.0000 0.39890  0.38780  0.84080  Biso   1.000  C
  C24      1.0000 0.89890  0.11220  0.34080  Biso   1.000  C
  C25      1.0000 0.32820  0.68690  0.35280  Biso   1.000  C
  C26      1.0000 0.82820  0.81310  0.85280  Biso   1.000  C
  C27      1.0000 0.67180  0.31310  0.64720  Biso   1.000  C
  C28      1.0000 0.17180  0.18690  0.14720  Biso   1.000  C
  H5       1.0000 0.27050  0.73380  0.39910  Biso   1.000  H
  H6       1.0000 0.77050  0.76620  0.89910  Biso   1.000  H
  H7       1.0000 0.72950  0.26620  0.60090  Biso   1.000  H
  H8       1.0000 0.22950  0.23380  0.10090  Biso   1.000  H
  H9       1.0000 0.28170  0.68140  0.26790  Biso   1.000  H
  H10      1.0000 0.78170  0.81860  0.76790  Biso   1.000  H
  H11      1.0000 0.71830  0.31860  0.73210  Biso   1.000  H
  H12      1.0000 0.21830  0.18140  0.23210  Biso   1.000  H
  H13      1.0000 0.31650  0.62990  0.39750  Biso   1.000  H
  H14      1.0000 0.81650  0.87010  0.89750  Biso   1.000  H
  H15      1.0000 0.68350  0.37010  0.60250  Biso   1.000  H
  H16      1.0000 0.18350  0.12990  0.10250  Biso   1.000  H
  C29      1.0000 0.48500  0.19330  0.49700  Biso   1.000  C
  C30      1.0000 0.98500  0.30670  0.99700  Biso   1.000  C
  C31      1.0000 0.51500  0.80670  0.50300  Biso   1.000  C
  C32      1.0000 0.01500  0.69330  0.00300  Biso   1.000  C
  H17      1.0000 0.40220  0.19140  0.42980  Biso   1.000  H
  H18      1.0000 0.90220  0.30860  0.92980  Biso   1.000  H
  H19      1.0000 0.59780  0.80860  0.57020  Biso   1.000  H
  H20      1.0000 0.09780  0.69140  0.07020  Biso   1.000  H
  H21      1.0000 0.52880  0.13310  0.51030  Biso   1.000  H
  H22      1.0000 0.02880  0.36690  0.01030  Biso   1.000  H
  H23      1.0000 0.47120  0.86690  0.48970  Biso   1.000  H
  H24      1.0000 0.97120  0.63310  0.98970  Biso   1.000  H
  H25      1.0000 0.57330  0.23350  0.47160  Biso   1.000  H
  H26      1.0000 0.07330  0.26650  0.97160  Biso   1.000  H
  H27      1.0000 0.42670  0.76650  0.52840  Biso   1.000  H
  H28      1.0000 0.92670  0.73350  0.02840  Biso   1.000  H
  C33      1.0000 0.55100  0.01160  0.71530  Biso   1.000  C
  C34      1.0000 0.05100  0.48840  0.21530  Biso   1.000  C
  C35      1.0000 0.44900  0.98840  0.28470  Biso   1.000  C
  C36      1.0000 0.94900  0.51160  0.78470  Biso   1.000  C
  H29      1.0000 0.53000  0.96820  0.65200  Biso   1.000  H
  H30      1.0000 0.03000  0.53180  0.15200  Biso   1.000  H
  H31      1.0000 0.47000  0.03180  0.34800  Biso   1.000  H
  H32      1.0000 0.97000  0.46820  0.84800  Biso   1.000  H
  C37      1.0000 0.43470  0.02490  0.80660  Biso   1.000  C
  C38      1.0000 0.93470  0.47510  0.30660  Biso   1.000  C
  C39      1.0000 0.56530  0.97510  0.19340  Biso   1.000  C
  C40      1.0000 0.06530  0.52490  0.69340  Biso   1.000  C
  H33      1.0000 0.33710  0.99080  0.80700  Biso   1.000  H
  H34      1.0000 0.83710  0.50920  0.30700  Biso   1.000  H
  H35      1.0000 0.66290  0.00920  0.19300  Biso   1.000  H
  H36      1.0000 0.16290  0.49080  0.69300  Biso   1.000  H
  C41      1.0000 0.46310  0.08850  0.89670  Biso   1.000  C
  C42      1.0000 0.96310  0.41150  0.39670  Biso   1.000  C
  C43      1.0000 0.53690  0.91150  0.10330  Biso   1.000  C
  C44      1.0000 0.03690  0.58850  0.60330  Biso   1.000  C
  H37      1.0000 0.38390  0.10000  0.95980  Biso   1.000  H
  H38      1.0000 0.88390  0.40000  0.45980  Biso   1.000  H
  H39      1.0000 0.61610  0.90000  0.04020  Biso   1.000  H
  H40      1.0000 0.11610  0.60000  0.54020  Biso   1.000  H
  C45      1.0000 0.60150  0.13400  0.89540  Biso   1.000  C
  C46      1.0000 0.10150  0.36600  0.39540  Biso   1.000  C
  C47      1.0000 0.39850  0.86600  0.10460  Biso   1.000  C
  C48      1.0000 0.89850  0.63400  0.60460  Biso   1.000  C
  H41      1.0000 0.62410  0.17760  0.95820  Biso   1.000  H
  H42      1.0000 0.12410  0.32240  0.45820  Biso   1.000  H
  H43      1.0000 0.37590  0.82240  0.04180  Biso   1.000  H
  H44      1.0000 0.87590  0.67760  0.54180  Biso   1.000  H
  C49      1.0000 0.71250  0.11650  0.80050  Biso   1.000  C
  C50      1.0000 0.21250  0.38350  0.30050  Biso   1.000  C
  C51      1.0000 0.28750  0.88350  0.19950  Biso   1.000  C
  C52      1.0000 0.78750  0.61650  0.69950  Biso   1.000  C
  H45      1.0000 0.81060  0.15020  0.79950  Biso   1.000  H
  H46      1.0000 0.31060  0.34980  0.29950  Biso   1.000  H
  H47      1.0000 0.18940  0.84980  0.20050  Biso   1.000  H
  H48      1.0000 0.68940  0.65020  0.70050  Biso   1.000  H
  C53      1.0000 0.44400  0.55100  0.57130  Biso   1.000  C
  C54      1.0000 0.94400  0.94900  0.07130  Biso   1.000  C
  C55      1.0000 0.55600  0.44900  0.42870  Biso   1.000  C
  C56      1.0000 0.05600  0.05100  0.92870  Biso   1.000  C
  O17      1.0000 0.50000  0.50000  0.50000  Biso   1.000  O
  O18      1.0000 0.00000  0.00000  0.00000  Biso   1.000  O
