data_image0
_cell_length_a       18.8743
_cell_length_b       18.8743
_cell_length_c       17.356
_cell_angle_alpha    90
_cell_angle_beta     90
_cell_angle_gamma    90

_symmetry_space_group_name_H-M    "P 1"
_symmetry_int_tables_number       1

loop_
  _symmetry_equiv_pos_as_xyz
  'x, y, z'

loop_
  _atom_site_label
  _atom_site_occupancy
  _atom_site_fract_x
  _atom_site_fract_y
  _atom_site_fract_z
  _atom_site_thermal_displace_type
  _atom_site_B_iso_or_equiv
  _atom_site_type_symbol
  Cu1      1.0000 0.55081  0.98450  0.69255  Biso   1.000  Cu
  Cu2      1.0000 0.51550  0.55081  0.69255  Biso   1.000  Cu
  Cu3      1.0000 0.98450  0.94919  0.69255  Biso   1.000  Cu
  Cu4      1.0000 0.48450  0.05081  0.80745  Biso   1.000  Cu
  Cu5      1.0000 0.94919  0.51550  0.69255  Biso   1.000  Cu
  Cu6      1.0000 0.44919  0.48450  0.80745  Biso   1.000  Cu
  Cu7      1.0000 0.05081  0.01550  0.80745  Biso   1.000  Cu
  Cu8      1.0000 0.01550  0.44919  0.80745  Biso   1.000  Cu
  Cu9      1.0000 0.44919  0.01550  0.30745  Biso   1.000  Cu
  Cu10     1.0000 0.48450  0.44919  0.30745  Biso   1.000  Cu
  Cu11     1.0000 0.01550  0.05081  0.30745  Biso   1.000  Cu
  Cu12     1.0000 0.51550  0.94919  0.19255  Biso   1.000  Cu
  Cu13     1.0000 0.05081  0.48450  0.30745  Biso   1.000  Cu
  Cu14     1.0000 0.55081  0.51550  0.19255  Biso   1.000  Cu
  Cu15     1.0000 0.94919  0.98450  0.19255  Biso   1.000  Cu
  Cu16     1.0000 0.98450  0.55081  0.19255  Biso   1.000  Cu
  O1       1.0000 0.45640  0.96740  0.65270  Biso   1.000  O
  O2       1.0000 0.53260  0.45640  0.65270  Biso   1.000  O
  O3       1.0000 0.96740  0.04360  0.65270  Biso   1.000  O
  O4       1.0000 0.46740  0.95640  0.84730  Biso   1.000  O
  O5       1.0000 0.04360  0.53260  0.65270  Biso   1.000  O
  O6       1.0000 0.54360  0.46740  0.84730  Biso   1.000  O
  O7       1.0000 0.95640  0.03260  0.84730  Biso   1.000  O
  O8       1.0000 0.03260  0.54360  0.84730  Biso   1.000  O
  O9       1.0000 0.54360  0.03260  0.34730  Biso   1.000  O
  O10      1.0000 0.46740  0.54360  0.34730  Biso   1.000  O
  O11      1.0000 0.03260  0.95640  0.34730  Biso   1.000  O
  O12      1.0000 0.53260  0.04360  0.15270  Biso   1.000  O
  O13      1.0000 0.95640  0.46740  0.34730  Biso   1.000  O
  O14      1.0000 0.45640  0.53260  0.15270  Biso   1.000  O
  O15      1.0000 0.04360  0.96740  0.15270  Biso   1.000  O
  O16      1.0000 0.96740  0.45640  0.15270  Biso   1.000  O
  O17      1.0000 0.39940  0.03680  0.73900  Biso   1.000  O
  O18      1.0000 0.46320  0.39940  0.73900  Biso   1.000  O
  O19      1.0000 0.03680  0.10060  0.73900  Biso   1.000  O
  O20      1.0000 0.53680  0.89940  0.76100  Biso   1.000  O
  O21      1.0000 0.10060  0.46320  0.73900  Biso   1.000  O
  O22      1.0000 0.60060  0.53680  0.76100  Biso   1.000  O
  O23      1.0000 0.89940  0.96320  0.76100  Biso   1.000  O
  O24      1.0000 0.96320  0.60060  0.76100  Biso   1.000  O
  O25      1.0000 0.60060  0.96320  0.26100  Biso   1.000  O
  O26      1.0000 0.53680  0.60060  0.26100  Biso   1.000  O
  O27      1.0000 0.96320  0.89940  0.26100  Biso   1.000  O
  O28      1.0000 0.46320  0.10060  0.23900  Biso   1.000  O
  O29      1.0000 0.89940  0.53680  0.26100  Biso   1.000  O
  O30      1.0000 0.39940  0.46320  0.23900  Biso   1.000  O
  O31      1.0000 0.10060  0.03680  0.23900  Biso   1.000  O
  O32      1.0000 0.03680  0.39940  0.23900  Biso   1.000  O
  O33      1.0000 0.08100  0.95190  0.64690  Biso   1.000  O
  O34      1.0000 0.54810  0.08100  0.64690  Biso   1.000  O
  O35      1.0000 0.95190  0.41900  0.64690  Biso   1.000  O
  O36      1.0000 0.45190  0.58100  0.85310  Biso   1.000  O
  O37      1.0000 0.41900  0.54810  0.64690  Biso   1.000  O
  O38      1.0000 0.91900  0.45190  0.85310  Biso   1.000  O
  O39      1.0000 0.58100  0.04810  0.85310  Biso   1.000  O
  O40      1.0000 0.04810  0.91900  0.85310  Biso   1.000  O
  O41      1.0000 0.91900  0.04810  0.35310  Biso   1.000  O
  O42      1.0000 0.45190  0.91900  0.35310  Biso   1.000  O
  O43      1.0000 0.04810  0.58100  0.35310  Biso   1.000  O
  O44      1.0000 0.54810  0.41900  0.14690  Biso   1.000  O
  O45      1.0000 0.58100  0.45190  0.35310  Biso   1.000  O
  O46      1.0000 0.08100  0.54810  0.14690  Biso   1.000  O
  O47      1.0000 0.41900  0.95190  0.14690  Biso   1.000  O
  O48      1.0000 0.95190  0.08100  0.14690  Biso   1.000  O
  O49      1.0000 0.13710  0.99340  0.75190  Biso   1.000  O
  O50      1.0000 0.50660  0.13710  0.75190  Biso   1.000  O
  O51      1.0000 0.99340  0.36290  0.75190  Biso   1.000  O
  O52      1.0000 0.49340  0.63710  0.74810  Biso   1.000  O
  O53      1.0000 0.36290  0.50660  0.75190  Biso   1.000  O
  O54      1.0000 0.86290  0.49340  0.74810  Biso   1.000  O
  O55      1.0000 0.63710  0.00660  0.74810  Biso   1.000  O
  O56      1.0000 0.00660  0.86290  0.74810  Biso   1.000  O
  O57      1.0000 0.86290  0.00660  0.24810  Biso   1.000  O
  O58      1.0000 0.49340  0.86290  0.24810  Biso   1.000  O
  O59      1.0000 0.00660  0.63710  0.24810  Biso   1.000  O
  O60      1.0000 0.50660  0.36290  0.25190  Biso   1.000  O
  O61      1.0000 0.63710  0.49340  0.24810  Biso   1.000  O
  O62      1.0000 0.13710  0.50660  0.25190  Biso   1.000  O
  O63      1.0000 0.36290  0.99340  0.25190  Biso   1.000  O
  O64      1.0000 0.99340  0.13710  0.25190  Biso   1.000  O
  N1       1.0000 0.60540  0.93330  0.59950  Biso   1.000  N
  N2       1.0000 0.56670  0.60540  0.59950  Biso   1.000  N
  N3       1.0000 0.93330  0.89460  0.59950  Biso   1.000  N
  N4       1.0000 0.43330  0.10540  0.90050  Biso   1.000  N
  N5       1.0000 0.89460  0.56670  0.59950  Biso   1.000  N
  N6       1.0000 0.39460  0.43330  0.90050  Biso   1.000  N
  N7       1.0000 0.10540  0.06670  0.90050  Biso   1.000  N
  N8       1.0000 0.06670  0.39460  0.90050  Biso   1.000  N
  N9       1.0000 0.39460  0.06670  0.40050  Biso   1.000  N
  N10      1.0000 0.43330  0.39460  0.40050  Biso   1.000  N
  N11      1.0000 0.06670  0.10540  0.40050  Biso   1.000  N
  N12      1.0000 0.56670  0.89460  0.09950  Biso   1.000  N
  N13      1.0000 0.10540  0.43330  0.40050  Biso   1.000  N
  N14      1.0000 0.60540  0.56670  0.09950  Biso   1.000  N
  N15      1.0000 0.89460  0.93330  0.09950  Biso   1.000  N
  N16      1.0000 0.93330  0.60540  0.09950  Biso   1.000  N
  C1       1.0000 0.40140  0.99510  0.68250  Biso   1.000  C
  C2       1.0000 0.50490  0.40140  0.68250  Biso   1.000  C
  C3       1.0000 0.99510  0.09860  0.68250  Biso   1.000  C
  C4       1.0000 0.49510  0.90140  0.81750  Biso   1.000  C
  C5       1.0000 0.09860  0.50490  0.68250  Biso   1.000  C
  C6       1.0000 0.59860  0.49510  0.81750  Biso   1.000  C
  C7       1.0000 0.90140  0.00490  0.81750  Biso   1.000  C
  C8       1.0000 0.00490  0.59860  0.81750  Biso   1.000  C
  C9       1.0000 0.59860  0.00490  0.31750  Biso   1.000  C
  C10      1.0000 0.49510  0.59860  0.31750  Biso   1.000  C
  C11      1.0000 0.00490  0.90140  0.31750  Biso   1.000  C
  C12      1.0000 0.50490  0.09860  0.18250  Biso   1.000  C
  C13      1.0000 0.90140  0.49510  0.31750  Biso   1.000  C
  C14      1.0000 0.40140  0.50490  0.18250  Biso   1.000  C
  C15      1.0000 0.09860  0.99510  0.18250  Biso   1.000  C
  C16      1.0000 0.99510  0.40140  0.18250  Biso   1.000  C
  C17      1.0000 0.20870  0.93570  0.56930  Biso   1.000  C
  C18      1.0000 0.56430  0.20870  0.56930  Biso   1.000  C
  C19      1.0000 0.93570  0.29130  0.56930  Biso   1.000  C
  C20      1.0000 0.43570  0.70870  0.93070  Biso   1.000  C
  C21      1.0000 0.29130  0.56430  0.56930  Biso   1.000  C
  C22      1.0000 0.79130  0.43570  0.93070  Biso   1.000  C
  C23      1.0000 0.70870  0.06430  0.93070  Biso   1.000  C
  C24      1.0000 0.06430  0.79130  0.93070  Biso   1.000  C
  C25      1.0000 0.79130  0.06430  0.43070  Biso   1.000  C
  C26      1.0000 0.43570  0.79130  0.43070  Biso   1.000  C
  C27      1.0000 0.06430  0.70870  0.43070  Biso   1.000  C
  C28      1.0000 0.56430  0.29130  0.06930  Biso   1.000  C
  C29      1.0000 0.70870  0.43570  0.43070  Biso   1.000  C
  C30      1.0000 0.20870  0.56430  0.06930  Biso   1.000  C
  C31      1.0000 0.29130  0.93570  0.06930  Biso   1.000  C
  C32      1.0000 0.93570  0.20870  0.06930  Biso   1.000  C
  H1       1.0000 0.16650  0.92090  0.54420  Biso   1.000  H
  H2       1.0000 0.57910  0.16650  0.54420  Biso   1.000  H
  H3       1.0000 0.92090  0.33350  0.54420  Biso   1.000  H
  H4       1.0000 0.42090  0.66650  0.95580  Biso   1.000  H
  H5       1.0000 0.33350  0.57910  0.54420  Biso   1.000  H
  H6       1.0000 0.83350  0.42090  0.95580  Biso   1.000  H
  H7       1.0000 0.66650  0.07910  0.95580  Biso   1.000  H
  H8       1.0000 0.07910  0.83350  0.95580  Biso   1.000  H
  H9       1.0000 0.83350  0.07910  0.45580  Biso   1.000  H
  H10      1.0000 0.42090  0.83350  0.45580  Biso   1.000  H
  H11      1.0000 0.07910  0.66650  0.45580  Biso   1.000  H
  H12      1.0000 0.57910  0.33350  0.04420  Biso   1.000  H
  H13      1.0000 0.66650  0.42090  0.45580  Biso   1.000  H
  H14      1.0000 0.16650  0.57910  0.04420  Biso   1.000  H
  H15      1.0000 0.33350  0.92090  0.04420  Biso   1.000  H
  H16      1.0000 0.92090  0.16650  0.04420  Biso   1.000  H
  C33      1.0000 0.20570  0.96290  0.64260  Biso   1.000  C
  C34      1.0000 0.53710  0.20570  0.64260  Biso   1.000  C
  C35      1.0000 0.96290  0.29430  0.64260  Biso   1.000  C
  C36      1.0000 0.46290  0.70570  0.85740  Biso   1.000  C
  C37      1.0000 0.29430  0.53710  0.64260  Biso   1.000  C
  C38      1.0000 0.79430  0.46290  0.85740  Biso   1.000  C
  C39      1.0000 0.70570  0.03710  0.85740  Biso   1.000  C
  C40      1.0000 0.03710  0.79430  0.85740  Biso   1.000  C
  C41      1.0000 0.79430  0.03710  0.35740  Biso   1.000  C
  C42      1.0000 0.46290  0.79430  0.35740  Biso   1.000  C
  C43      1.0000 0.03710  0.70570  0.35740  Biso   1.000  C
  C44      1.0000 0.53710  0.29430  0.14260  Biso   1.000  C
  C45      1.0000 0.70570  0.46290  0.35740  Biso   1.000  C
  C46      1.0000 0.20570  0.53710  0.14260  Biso   1.000  C
  C47      1.0000 0.29430  0.96290  0.14260  Biso   1.000  C
  C48      1.0000 0.96290  0.20570  0.14260  Biso   1.000  C
  C49      1.0000 0.33500  0.94920  0.56880  Biso   1.000  C
  C50      1.0000 0.55080  0.33500  0.56880  Biso   1.000  C
  C51      1.0000 0.94920  0.16500  0.56880  Biso   1.000  C
  C52      1.0000 0.44920  0.83500  0.93120  Biso   1.000  C
  C53      1.0000 0.16500  0.55080  0.56880  Biso   1.000  C
  C54      1.0000 0.66500  0.44920  0.93120  Biso   1.000  C
  C55      1.0000 0.83500  0.05080  0.93120  Biso   1.000  C
  C56      1.0000 0.05080  0.66500  0.93120  Biso   1.000  C
  C57      1.0000 0.66500  0.05080  0.43120  Biso   1.000  C
  C58      1.0000 0.44920  0.66500  0.43120  Biso   1.000  C
  C59      1.0000 0.05080  0.83500  0.43120  Biso   1.000  C
  C60      1.0000 0.55080  0.16500  0.06880  Biso   1.000  C
  C61      1.0000 0.83500  0.44920  0.43120  Biso   1.000  C
  C62      1.0000 0.33500  0.55080  0.06880  Biso   1.000  C
  C63      1.0000 0.16500  0.94920  0.06880  Biso   1.000  C
  C64      1.0000 0.94920  0.33500  0.06880  Biso   1.000  C
  H17      1.0000 0.37920  0.94390  0.54340  Biso   1.000  H
  H18      1.0000 0.55610  0.37920  0.54340  Biso   1.000  H
  H19      1.0000 0.94390  0.12080  0.54340  Biso   1.000  H
  H20      1.0000 0.44390  0.87920  0.95660  Biso   1.000  H
  H21      1.0000 0.12080  0.55610  0.54340  Biso   1.000  H
  H22      1.0000 0.62080  0.44390  0.95660  Biso   1.000  H
  H23      1.0000 0.87920  0.05610  0.95660  Biso   1.000  H
  H24      1.0000 0.05610  0.62080  0.95660  Biso   1.000  H
  H25      1.0000 0.62080  0.05610  0.45660  Biso   1.000  H
  H26      1.0000 0.44390  0.62080  0.45660  Biso   1.000  H
  H27      1.0000 0.05610  0.87920  0.45660  Biso   1.000  H
  H28      1.0000 0.55610  0.12080  0.04340  Biso   1.000  H
  H29      1.0000 0.87920  0.44390  0.45660  Biso   1.000  H
  H30      1.0000 0.37920  0.55610  0.04340  Biso   1.000  H
  H31      1.0000 0.12080  0.94390  0.04340  Biso   1.000  H
  H32      1.0000 0.94390  0.37920  0.04340  Biso   1.000  H
  C65      1.0000 0.26830  0.98460  0.67910  Biso   1.000  C
  C66      1.0000 0.51540  0.26830  0.67910  Biso   1.000  C
  C67      1.0000 0.98460  0.23170  0.67910  Biso   1.000  C
  C68      1.0000 0.48460  0.76830  0.82090  Biso   1.000  C
  C69      1.0000 0.23170  0.51540  0.67910  Biso   1.000  C
  C70      1.0000 0.73170  0.48460  0.82090  Biso   1.000  C
  C71      1.0000 0.76830  0.01540  0.82090  Biso   1.000  C
  C72      1.0000 0.01540  0.73170  0.82090  Biso   1.000  C
  C73      1.0000 0.73170  0.01540  0.32090  Biso   1.000  C
  C74      1.0000 0.48460  0.73170  0.32090  Biso   1.000  C
  C75      1.0000 0.01540  0.76830  0.32090  Biso   1.000  C
  C76      1.0000 0.51540  0.23170  0.17910  Biso   1.000  C
  C77      1.0000 0.76830  0.48460  0.32090  Biso   1.000  C
  C78      1.0000 0.26830  0.51540  0.17910  Biso   1.000  C
  C79      1.0000 0.23170  0.98460  0.17910  Biso   1.000  C
  C80      1.0000 0.98460  0.26830  0.17910  Biso   1.000  C
  H33      1.0000 0.26630  0.00500  0.72920  Biso   1.000  H
  H34      1.0000 0.49500  0.26630  0.72920  Biso   1.000  H
  H35      1.0000 0.00500  0.23370  0.72920  Biso   1.000  H
  H36      1.0000 0.50500  0.76630  0.77080  Biso   1.000  H
  H37      1.0000 0.23370  0.49500  0.72920  Biso   1.000  H
  H38      1.0000 0.73370  0.50500  0.77080  Biso   1.000  H
  H39      1.0000 0.76630  0.99500  0.77080  Biso   1.000  H
  H40      1.0000 0.99500  0.73370  0.77080  Biso   1.000  H
  H41      1.0000 0.73370  0.99500  0.27080  Biso   1.000  H
  H42      1.0000 0.50500  0.73370  0.27080  Biso   1.000  H
  H43      1.0000 0.99500  0.76630  0.27080  Biso   1.000  H
  H44      1.0000 0.49500  0.23370  0.22920  Biso   1.000  H
  H45      1.0000 0.76630  0.50500  0.27080  Biso   1.000  H
  H46      1.0000 0.26630  0.49500  0.22920  Biso   1.000  H
  H47      1.0000 0.23370  0.00500  0.22920  Biso   1.000  H
  H48      1.0000 0.00500  0.26630  0.22920  Biso   1.000  H
  C81      1.0000 0.33300  0.97640  0.64230  Biso   1.000  C
  C82      1.0000 0.52360  0.33300  0.64230  Biso   1.000  C
  C83      1.0000 0.97640  0.16700  0.64230  Biso   1.000  C
  C84      1.0000 0.47640  0.83300  0.85770  Biso   1.000  C
  C85      1.0000 0.16700  0.52360  0.64230  Biso   1.000  C
  C86      1.0000 0.66700  0.47640  0.85770  Biso   1.000  C
  C87      1.0000 0.83300  0.02360  0.85770  Biso   1.000  C
  C88      1.0000 0.02360  0.66700  0.85770  Biso   1.000  C
  C89      1.0000 0.66700  0.02360  0.35770  Biso   1.000  C
  C90      1.0000 0.47640  0.66700  0.35770  Biso   1.000  C
  C91      1.0000 0.02360  0.83300  0.35770  Biso   1.000  C
  C92      1.0000 0.52360  0.16700  0.14230  Biso   1.000  C
  C93      1.0000 0.83300  0.47640  0.35770  Biso   1.000  C
  C94      1.0000 0.33300  0.52360  0.14230  Biso   1.000  C
  C95      1.0000 0.16700  0.97640  0.14230  Biso   1.000  C
  C96      1.0000 0.97640  0.33300  0.14230  Biso   1.000  C
  O65      1.0000 0.28350  0.90370  0.45860  Biso   1.000  O
  O66      1.0000 0.59630  0.28350  0.45860  Biso   1.000  O
  O67      1.0000 0.90370  0.21650  0.45860  Biso   1.000  O
  O68      1.0000 0.40370  0.78350  0.04140  Biso   1.000  O
  O69      1.0000 0.21650  0.59630  0.45860  Biso   1.000  O
  O70      1.0000 0.71650  0.40370  0.04140  Biso   1.000  O
  O71      1.0000 0.78350  0.09630  0.04140  Biso   1.000  O
  O72      1.0000 0.09630  0.71650  0.04140  Biso   1.000  O
  O73      1.0000 0.71650  0.09630  0.54140  Biso   1.000  O
  O74      1.0000 0.40370  0.71650  0.54140  Biso   1.000  O
  O75      1.0000 0.09630  0.78350  0.54140  Biso   1.000  O
  O76      1.0000 0.59630  0.21650  0.95860  Biso   1.000  O
  O77      1.0000 0.78350  0.40370  0.54140  Biso   1.000  O
  O78      1.0000 0.28350  0.59630  0.95860  Biso   1.000  O
  O79      1.0000 0.21650  0.90370  0.95860  Biso   1.000  O
  O80      1.0000 0.90370  0.28350  0.95860  Biso   1.000  O
  C97      1.0000 0.13640  0.96940  0.68350  Biso   1.000  C
  C98      1.0000 0.53060  0.13640  0.68350  Biso   1.000  C
  C99      1.0000 0.96940  0.36360  0.68350  Biso   1.000  C
  C100     1.0000 0.46940  0.63640  0.81650  Biso   1.000  C
  C101     1.0000 0.36360  0.53060  0.68350  Biso   1.000  C
  C102     1.0000 0.86360  0.46940  0.81650  Biso   1.000  C
  C103     1.0000 0.63640  0.03060  0.81650  Biso   1.000  C
  C104     1.0000 0.03060  0.86360  0.81650  Biso   1.000  C
  C105     1.0000 0.86360  0.03060  0.31650  Biso   1.000  C
  C106     1.0000 0.46940  0.86360  0.31650  Biso   1.000  C
  C107     1.0000 0.03060  0.63640  0.31650  Biso   1.000  C
  C108     1.0000 0.53060  0.36360  0.18350  Biso   1.000  C
  C109     1.0000 0.63640  0.46940  0.31650  Biso   1.000  C
  C110     1.0000 0.13640  0.53060  0.18350  Biso   1.000  C
  C111     1.0000 0.36360  0.96940  0.18350  Biso   1.000  C
  C112     1.0000 0.96940  0.13640  0.18350  Biso   1.000  C
  C113     1.0000 0.22300  0.88280  0.41600  Biso   1.000  C
  C114     1.0000 0.61720  0.22300  0.41600  Biso   1.000  C
  C115     1.0000 0.88280  0.27700  0.41600  Biso   1.000  C
  C116     1.0000 0.38280  0.72300  0.08400  Biso   1.000  C
  C117     1.0000 0.27700  0.61720  0.41600  Biso   1.000  C
  C118     1.0000 0.77700  0.38280  0.08400  Biso   1.000  C
  C119     1.0000 0.72300  0.11720  0.08400  Biso   1.000  C
  C120     1.0000 0.11720  0.77700  0.08400  Biso   1.000  C
  C121     1.0000 0.77700  0.11720  0.58400  Biso   1.000  C
  C122     1.0000 0.38280  0.77700  0.58400  Biso   1.000  C
  C123     1.0000 0.11720  0.72300  0.58400  Biso   1.000  C
  C124     1.0000 0.61720  0.27700  0.91600  Biso   1.000  C
  C125     1.0000 0.72300  0.38280  0.58400  Biso   1.000  C
  C126     1.0000 0.22300  0.61720  0.91600  Biso   1.000  C
  C127     1.0000 0.27700  0.88280  0.91600  Biso   1.000  C
  C128     1.0000 0.88280  0.22300  0.91600  Biso   1.000  C
  H49      1.0000 0.19080  0.92360  0.40810  Biso   1.000  H
  H50      1.0000 0.57640  0.19080  0.40810  Biso   1.000  H
  H51      1.0000 0.92360  0.30920  0.40810  Biso   1.000  H
  H52      1.0000 0.42360  0.69080  0.09190  Biso   1.000  H
  H53      1.0000 0.30920  0.57640  0.40810  Biso   1.000  H
  H54      1.0000 0.80920  0.42360  0.09190  Biso   1.000  H
  H55      1.0000 0.69080  0.07640  0.09190  Biso   1.000  H
  H56      1.0000 0.07640  0.80920  0.09190  Biso   1.000  H
  H57      1.0000 0.80920  0.07640  0.59190  Biso   1.000  H
  H58      1.0000 0.42360  0.80920  0.59190  Biso   1.000  H
  H59      1.0000 0.07640  0.69080  0.59190  Biso   1.000  H
  H60      1.0000 0.57640  0.30920  0.90810  Biso   1.000  H
  H61      1.0000 0.69080  0.42360  0.59190  Biso   1.000  H
  H62      1.0000 0.19080  0.57640  0.90810  Biso   1.000  H
  H63      1.0000 0.30920  0.92360  0.90810  Biso   1.000  H
  H64      1.0000 0.92360  0.19080  0.90810  Biso   1.000  H
  H65      1.0000 0.19680  0.84510  0.44350  Biso   1.000  H
  H66      1.0000 0.65490  0.19680  0.44350  Biso   1.000  H
  H67      1.0000 0.84510  0.30320  0.44350  Biso   1.000  H
  H68      1.0000 0.34510  0.69680  0.05650  Biso   1.000  H
  H69      1.0000 0.30320  0.65490  0.44350  Biso   1.000  H
  H70      1.0000 0.80320  0.34510  0.05650  Biso   1.000  H
  H71      1.0000 0.69680  0.15490  0.05650  Biso   1.000  H
  H72      1.0000 0.15490  0.80320  0.05650  Biso   1.000  H
  H73      1.0000 0.80320  0.15490  0.55650  Biso   1.000  H
  H74      1.0000 0.34510  0.80320  0.55650  Biso   1.000  H
  H75      1.0000 0.15490  0.69680  0.55650  Biso   1.000  H
  H76      1.0000 0.65490  0.30320  0.94350  Biso   1.000  H
  H77      1.0000 0.69680  0.34510  0.55650  Biso   1.000  H
  H78      1.0000 0.19680  0.65490  0.94350  Biso   1.000  H
  H79      1.0000 0.30320  0.84510  0.94350  Biso   1.000  H
  H80      1.0000 0.84510  0.19680  0.94350  Biso   1.000  H
  C129     1.0000 0.71520  0.89130  0.54680  Biso   1.000  C
  C130     1.0000 0.60870  0.71520  0.54680  Biso   1.000  C
  C131     1.0000 0.89130  0.78480  0.54680  Biso   1.000  C
  C132     1.0000 0.39130  0.21520  0.95320  Biso   1.000  C
  C133     1.0000 0.78480  0.60870  0.54680  Biso   1.000  C
  C134     1.0000 0.28480  0.39130  0.95320  Biso   1.000  C
  C135     1.0000 0.21520  0.10870  0.95320  Biso   1.000  C
  C136     1.0000 0.10870  0.28480  0.95320  Biso   1.000  C
  C137     1.0000 0.28480  0.10870  0.45320  Biso   1.000  C
  C138     1.0000 0.39130  0.28480  0.45320  Biso   1.000  C
  C139     1.0000 0.10870  0.21520  0.45320  Biso   1.000  C
  C140     1.0000 0.60870  0.78480  0.04680  Biso   1.000  C
  C141     1.0000 0.21520  0.39130  0.45320  Biso   1.000  C
  C142     1.0000 0.71520  0.60870  0.04680  Biso   1.000  C
  C143     1.0000 0.78480  0.89130  0.04680  Biso   1.000  C
  C144     1.0000 0.89130  0.71520  0.04680  Biso   1.000  C
  H81      1.0000 0.76450  0.88330  0.55420  Biso   1.000  H
  H82      1.0000 0.61670  0.76450  0.55420  Biso   1.000  H
  H83      1.0000 0.88330  0.73550  0.55420  Biso   1.000  H
  H84      1.0000 0.38330  0.26450  0.94580  Biso   1.000  H
  H85      1.0000 0.73550  0.61670  0.55420  Biso   1.000  H
  H86      1.0000 0.23550  0.38330  0.94580  Biso   1.000  H
  H87      1.0000 0.26450  0.11670  0.94580  Biso   1.000  H
  H88      1.0000 0.11670  0.23550  0.94580  Biso   1.000  H
  H89      1.0000 0.23550  0.11670  0.44580  Biso   1.000  H
  H90      1.0000 0.38330  0.23550  0.44580  Biso   1.000  H
  H91      1.0000 0.11670  0.26450  0.44580  Biso   1.000  H
  H92      1.0000 0.61670  0.73550  0.05420  Biso   1.000  H
  H93      1.0000 0.26450  0.38330  0.44580  Biso   1.000  H
  H94      1.0000 0.76450  0.61670  0.05420  Biso   1.000  H
  H95      1.0000 0.73550  0.88330  0.05420  Biso   1.000  H
  H96      1.0000 0.88330  0.76450  0.05420  Biso   1.000  H
  C145     1.0000 0.68260  0.87420  0.47630  Biso   1.000  C
  C146     1.0000 0.62580  0.68260  0.47630  Biso   1.000  C
  C147     1.0000 0.87420  0.81740  0.47630  Biso   1.000  C
  C148     1.0000 0.37420  0.18260  0.02370  Biso   1.000  C
  C149     1.0000 0.81740  0.62580  0.47630  Biso   1.000  C
  C150     1.0000 0.31740  0.37420  0.02370  Biso   1.000  C
  C151     1.0000 0.18260  0.12580  0.02370  Biso   1.000  C
  C152     1.0000 0.12580  0.31740  0.02370  Biso   1.000  C
  C153     1.0000 0.31740  0.12580  0.52370  Biso   1.000  C
  C154     1.0000 0.37420  0.31740  0.52370  Biso   1.000  C
  C155     1.0000 0.12580  0.18260  0.52370  Biso   1.000  C
  C156     1.0000 0.62580  0.81740  0.97630  Biso   1.000  C
  C157     1.0000 0.18260  0.37420  0.52370  Biso   1.000  C
  C158     1.0000 0.68260  0.62580  0.97630  Biso   1.000  C
  C159     1.0000 0.81740  0.87420  0.97630  Biso   1.000  C
  C160     1.0000 0.87420  0.68260  0.97630  Biso   1.000  C
  H97      1.0000 0.70920  0.85520  0.43470  Biso   1.000  H
  H98      1.0000 0.64480  0.70920  0.43470  Biso   1.000  H
  H99      1.0000 0.85520  0.79080  0.43470  Biso   1.000  H
  H100     1.0000 0.35520  0.20920  0.06530  Biso   1.000  H
  H101     1.0000 0.79080  0.64480  0.43470  Biso   1.000  H
  H102     1.0000 0.29080  0.35520  0.06530  Biso   1.000  H
  H103     1.0000 0.20920  0.14480  0.06530  Biso   1.000  H
  H104     1.0000 0.14480  0.29080  0.06530  Biso   1.000  H
  H105     1.0000 0.29080  0.14480  0.56530  Biso   1.000  H
  H106     1.0000 0.35520  0.29080  0.56530  Biso   1.000  H
  H107     1.0000 0.14480  0.20920  0.56530  Biso   1.000  H
  H108     1.0000 0.64480  0.79080  0.93470  Biso   1.000  H
  H109     1.0000 0.20920  0.35520  0.56530  Biso   1.000  H
  H110     1.0000 0.70920  0.64480  0.93470  Biso   1.000  H
  H111     1.0000 0.79080  0.85520  0.93470  Biso   1.000  H
  H112     1.0000 0.85520  0.70920  0.93470  Biso   1.000  H
  C161     1.0000 0.27360  0.92960  0.53160  Biso   1.000  C
  C162     1.0000 0.57040  0.27360  0.53160  Biso   1.000  C
  C163     1.0000 0.92960  0.22640  0.53160  Biso   1.000  C
  C164     1.0000 0.42960  0.77360  0.96840  Biso   1.000  C
  C165     1.0000 0.22640  0.57040  0.53160  Biso   1.000  C
  C166     1.0000 0.72640  0.42960  0.96840  Biso   1.000  C
  C167     1.0000 0.77360  0.07040  0.96840  Biso   1.000  C
  C168     1.0000 0.07040  0.72640  0.96840  Biso   1.000  C
  C169     1.0000 0.72640  0.07040  0.46840  Biso   1.000  C
  C170     1.0000 0.42960  0.72640  0.46840  Biso   1.000  C
  C171     1.0000 0.07040  0.77360  0.46840  Biso   1.000  C
  C172     1.0000 0.57040  0.22640  0.03160  Biso   1.000  C
  C173     1.0000 0.77360  0.42960  0.46840  Biso   1.000  C
  C174     1.0000 0.27360  0.57040  0.03160  Biso   1.000  C
  C175     1.0000 0.22640  0.92960  0.03160  Biso   1.000  C
  C176     1.0000 0.92960  0.27360  0.03160  Biso   1.000  C
  C177     1.0000 0.61030  0.88590  0.46930  Biso   1.000  C
  C178     1.0000 0.61410  0.61030  0.46930  Biso   1.000  C
  C179     1.0000 0.88590  0.88970  0.46930  Biso   1.000  C
  C180     1.0000 0.38590  0.11030  0.03070  Biso   1.000  C
  C181     1.0000 0.88970  0.61410  0.46930  Biso   1.000  C
  C182     1.0000 0.38970  0.38590  0.03070  Biso   1.000  C
  C183     1.0000 0.11030  0.11410  0.03070  Biso   1.000  C
  C184     1.0000 0.11410  0.38970  0.03070  Biso   1.000  C
  C185     1.0000 0.38970  0.11410  0.53070  Biso   1.000  C
  C186     1.0000 0.38590  0.38970  0.53070  Biso   1.000  C
  C187     1.0000 0.11410  0.11030  0.53070  Biso   1.000  C
  C188     1.0000 0.61410  0.88970  0.96930  Biso   1.000  C
  C189     1.0000 0.11030  0.38590  0.53070  Biso   1.000  C
  C190     1.0000 0.61030  0.61410  0.96930  Biso   1.000  C
  C191     1.0000 0.88970  0.88590  0.96930  Biso   1.000  C
  C192     1.0000 0.88590  0.61030  0.96930  Biso   1.000  C
  H113     1.0000 0.58590  0.87410  0.42310  Biso   1.000  H
  H114     1.0000 0.62590  0.58590  0.42310  Biso   1.000  H
  H115     1.0000 0.87410  0.91410  0.42310  Biso   1.000  H
  H116     1.0000 0.37410  0.08590  0.07690  Biso   1.000  H
  H117     1.0000 0.91410  0.62590  0.42310  Biso   1.000  H
  H118     1.0000 0.41410  0.37410  0.07690  Biso   1.000  H
  H119     1.0000 0.08590  0.12590  0.07690  Biso   1.000  H
  H120     1.0000 0.12590  0.41410  0.07690  Biso   1.000  H
  H121     1.0000 0.41410  0.12590  0.57690  Biso   1.000  H
  H122     1.0000 0.37410  0.41410  0.57690  Biso   1.000  H
  H123     1.0000 0.12590  0.08590  0.57690  Biso   1.000  H
  H124     1.0000 0.62590  0.91410  0.92310  Biso   1.000  H
  H125     1.0000 0.08590  0.37410  0.57690  Biso   1.000  H
  H126     1.0000 0.58590  0.62590  0.92310  Biso   1.000  H
  H127     1.0000 0.91410  0.87410  0.92310  Biso   1.000  H
  H128     1.0000 0.87410  0.58590  0.92310  Biso   1.000  H
  C193     1.0000 0.67420  0.91990  0.60530  Biso   1.000  C
  C194     1.0000 0.58010  0.67420  0.60530  Biso   1.000  C
  C195     1.0000 0.91990  0.82580  0.60530  Biso   1.000  C
  C196     1.0000 0.41990  0.17420  0.89470  Biso   1.000  C
  C197     1.0000 0.82580  0.58010  0.60530  Biso   1.000  C
  C198     1.0000 0.32580  0.41990  0.89470  Biso   1.000  C
  C199     1.0000 0.17420  0.08010  0.89470  Biso   1.000  C
  C200     1.0000 0.08010  0.32580  0.89470  Biso   1.000  C
  C201     1.0000 0.32580  0.08010  0.39470  Biso   1.000  C
  C202     1.0000 0.41990  0.32580  0.39470  Biso   1.000  C
  C203     1.0000 0.08010  0.17420  0.39470  Biso   1.000  C
  C204     1.0000 0.58010  0.82580  0.10530  Biso   1.000  C
  C205     1.0000 0.17420  0.41990  0.39470  Biso   1.000  C
  C206     1.0000 0.67420  0.58010  0.10530  Biso   1.000  C
  C207     1.0000 0.82580  0.91990  0.10530  Biso   1.000  C
  C208     1.0000 0.91990  0.67420  0.10530  Biso   1.000  C
  H129     1.0000 0.69690  0.93070  0.65270  Biso   1.000  H
  H130     1.0000 0.56930  0.69690  0.65270  Biso   1.000  H
  H131     1.0000 0.93070  0.80310  0.65270  Biso   1.000  H
  H132     1.0000 0.43070  0.19690  0.84730  Biso   1.000  H
  H133     1.0000 0.80310  0.56930  0.65270  Biso   1.000  H
  H134     1.0000 0.30310  0.43070  0.84730  Biso   1.000  H
  H135     1.0000 0.19690  0.06930  0.84730  Biso   1.000  H
  H136     1.0000 0.06930  0.30310  0.84730  Biso   1.000  H
  H137     1.0000 0.30310  0.06930  0.34730  Biso   1.000  H
  H138     1.0000 0.43070  0.30310  0.34730  Biso   1.000  H
  H139     1.0000 0.06930  0.19690  0.34730  Biso   1.000  H
  H140     1.0000 0.56930  0.80310  0.15270  Biso   1.000  H
  H141     1.0000 0.19690  0.43070  0.34730  Biso   1.000  H
  H142     1.0000 0.69690  0.56930  0.15270  Biso   1.000  H
  H143     1.0000 0.80310  0.93070  0.15270  Biso   1.000  H
  H144     1.0000 0.93070  0.69690  0.15270  Biso   1.000  H
  C209     1.0000 0.57440  0.91540  0.53130  Biso   1.000  C
  C210     1.0000 0.58460  0.57440  0.53130  Biso   1.000  C
  C211     1.0000 0.91540  0.92560  0.53130  Biso   1.000  C
  C212     1.0000 0.41540  0.07440  0.96870  Biso   1.000  C
  C213     1.0000 0.92560  0.58460  0.53130  Biso   1.000  C
  C214     1.0000 0.42560  0.41540  0.96870  Biso   1.000  C
  C215     1.0000 0.07440  0.08460  0.96870  Biso   1.000  C
  C216     1.0000 0.08460  0.42560  0.96870  Biso   1.000  C
  C217     1.0000 0.42560  0.08460  0.46870  Biso   1.000  C
  C218     1.0000 0.41540  0.42560  0.46870  Biso   1.000  C
  C219     1.0000 0.08460  0.07440  0.46870  Biso   1.000  C
  C220     1.0000 0.58460  0.92560  0.03130  Biso   1.000  C
  C221     1.0000 0.07440  0.41540  0.46870  Biso   1.000  C
  C222     1.0000 0.57440  0.58460  0.03130  Biso   1.000  C
  C223     1.0000 0.92560  0.91540  0.03130  Biso   1.000  C
  C224     1.0000 0.91540  0.57440  0.03130  Biso   1.000  C
  H145     1.0000 0.52500  0.92360  0.52590  Biso   1.000  H
  H146     1.0000 0.57640  0.52500  0.52590  Biso   1.000  H
  H147     1.0000 0.92360  0.97500  0.52590  Biso   1.000  H
  H148     1.0000 0.42360  0.02500  0.97410  Biso   1.000  H
  H149     1.0000 0.97500  0.57640  0.52590  Biso   1.000  H
  H150     1.0000 0.47500  0.42360  0.97410  Biso   1.000  H
  H151     1.0000 0.02500  0.07640  0.97410  Biso   1.000  H
  H152     1.0000 0.07640  0.47500  0.97410  Biso   1.000  H
  H153     1.0000 0.47500  0.07640  0.47410  Biso   1.000  H
  H154     1.0000 0.42360  0.47500  0.47410  Biso   1.000  H
  H155     1.0000 0.07640  0.02500  0.47410  Biso   1.000  H
  H156     1.0000 0.57640  0.97500  0.02590  Biso   1.000  H
  H157     1.0000 0.02500  0.42360  0.47410  Biso   1.000  H
  H158     1.0000 0.52500  0.57640  0.02590  Biso   1.000  H
  H159     1.0000 0.97500  0.92360  0.02590  Biso   1.000  H
  H160     1.0000 0.92360  0.52500  0.02590  Biso   1.000  H
  C225     1.0000 0.25000  0.85580  0.33960  Biso   1.000  C
  C226     1.0000 0.64420  0.25000  0.33960  Biso   1.000  C
  C227     1.0000 0.85580  0.25000  0.33960  Biso   1.000  C
  C228     1.0000 0.35580  0.75000  0.16040  Biso   1.000  C
  C229     1.0000 0.25000  0.64420  0.33960  Biso   1.000  C
  C230     1.0000 0.75000  0.35580  0.16040  Biso   1.000  C
  C231     1.0000 0.75000  0.14420  0.16040  Biso   1.000  C
  C232     1.0000 0.14420  0.75000  0.16040  Biso   1.000  C
  C233     1.0000 0.75000  0.14420  0.66040  Biso   1.000  C
  C234     1.0000 0.35580  0.75000  0.66040  Biso   1.000  C
  C235     1.0000 0.14420  0.75000  0.66040  Biso   1.000  C
  C236     1.0000 0.64420  0.25000  0.83960  Biso   1.000  C
  C237     1.0000 0.75000  0.35580  0.66040  Biso   1.000  C
  C238     1.0000 0.25000  0.64420  0.83960  Biso   1.000  C
  C239     1.0000 0.25000  0.85580  0.83960  Biso   1.000  C
  C240     1.0000 0.85580  0.25000  0.83960  Biso   1.000  C
  H161     1.0000 0.27850  0.89260  0.31460  Biso   1.000  H
  H162     1.0000 0.60740  0.27850  0.31460  Biso   1.000  H
  H163     1.0000 0.89260  0.22150  0.31460  Biso   1.000  H
  H164     1.0000 0.39260  0.77850  0.18540  Biso   1.000  H
  H165     1.0000 0.22150  0.60740  0.31460  Biso   1.000  H
  H166     1.0000 0.72150  0.39260  0.18540  Biso   1.000  H
  H167     1.0000 0.77850  0.10740  0.18540  Biso   1.000  H
  H168     1.0000 0.10740  0.72150  0.18540  Biso   1.000  H
  H169     1.0000 0.72150  0.10740  0.68540  Biso   1.000  H
  H170     1.0000 0.39260  0.72150  0.68540  Biso   1.000  H
  H171     1.0000 0.10740  0.77850  0.68540  Biso   1.000  H
  H172     1.0000 0.60740  0.22150  0.81460  Biso   1.000  H
  H173     1.0000 0.77850  0.39260  0.68540  Biso   1.000  H
  H174     1.0000 0.27850  0.60740  0.81460  Biso   1.000  H
  H175     1.0000 0.22150  0.89260  0.81460  Biso   1.000  H
  H176     1.0000 0.89260  0.27850  0.81460  Biso   1.000  H
  H177     1.0000 0.20980  0.84360  0.30640  Biso   1.000  H
  H178     1.0000 0.65640  0.20980  0.30640  Biso   1.000  H
  H179     1.0000 0.84360  0.29020  0.30640  Biso   1.000  H
  H180     1.0000 0.34360  0.70980  0.19360  Biso   1.000  H
  H181     1.0000 0.29020  0.65640  0.30640  Biso   1.000  H
  H182     1.0000 0.79020  0.34360  0.19360  Biso   1.000  H
  H183     1.0000 0.70980  0.15640  0.19360  Biso   1.000  H
  H184     1.0000 0.15640  0.79020  0.19360  Biso   1.000  H
  H185     1.0000 0.79020  0.15640  0.69360  Biso   1.000  H
  H186     1.0000 0.34360  0.79020  0.69360  Biso   1.000  H
  H187     1.0000 0.15640  0.70980  0.69360  Biso   1.000  H
  H188     1.0000 0.65640  0.29020  0.80640  Biso   1.000  H
  H189     1.0000 0.70980  0.34360  0.69360  Biso   1.000  H
  H190     1.0000 0.20980  0.65640  0.80640  Biso   1.000  H
  H191     1.0000 0.29020  0.84360  0.80640  Biso   1.000  H
  H192     1.0000 0.84360  0.20980  0.80640  Biso   1.000  H
  H193     1.0000 0.27920  0.81360  0.34800  Biso   1.000  H
  H194     1.0000 0.68640  0.27920  0.34800  Biso   1.000  H
  H195     1.0000 0.81360  0.22080  0.34800  Biso   1.000  H
  H196     1.0000 0.31360  0.77920  0.15200  Biso   1.000  H
  H197     1.0000 0.22080  0.68640  0.34800  Biso   1.000  H
  H198     1.0000 0.72080  0.31360  0.15200  Biso   1.000  H
  H199     1.0000 0.77920  0.18640  0.15200  Biso   1.000  H
  H200     1.0000 0.18640  0.72080  0.15200  Biso   1.000  H
  H201     1.0000 0.72080  0.18640  0.65200  Biso   1.000  H
  H202     1.0000 0.31360  0.72080  0.65200  Biso   1.000  H
  H203     1.0000 0.18640  0.77920  0.65200  Biso   1.000  H
  H204     1.0000 0.68640  0.22080  0.84800  Biso   1.000  H
  H205     1.0000 0.77920  0.31360  0.65200  Biso   1.000  H
  H206     1.0000 0.27920  0.68640  0.84800  Biso   1.000  H
  H207     1.0000 0.22080  0.81360  0.84800  Biso   1.000  H
  H208     1.0000 0.81360  0.27920  0.84800  Biso   1.000  H
  O81      1.0000 0.66300  0.80500  0.77360  Biso   1.000  O
  O82      1.0000 0.69500  0.66300  0.77360  Biso   1.000  O
  O83      1.0000 0.80500  0.83700  0.77360  Biso   1.000  O
  O84      1.0000 0.30500  0.16300  0.72640  Biso   1.000  O
  O85      1.0000 0.83700  0.69500  0.77360  Biso   1.000  O
  O86      1.0000 0.33700  0.30500  0.72640  Biso   1.000  O
  O87      1.0000 0.16300  0.19500  0.72640  Biso   1.000  O
  O88      1.0000 0.19500  0.33700  0.72640  Biso   1.000  O
  O89      1.0000 0.33700  0.19500  0.22640  Biso   1.000  O
  O90      1.0000 0.30500  0.33700  0.22640  Biso   1.000  O
  O91      1.0000 0.19500  0.16300  0.22640  Biso   1.000  O
  O92      1.0000 0.69500  0.83700  0.27360  Biso   1.000  O
  O93      1.0000 0.16300  0.30500  0.22640  Biso   1.000  O
  O94      1.0000 0.66300  0.69500  0.27360  Biso   1.000  O
  O95      1.0000 0.83700  0.80500  0.27360  Biso   1.000  O
  O96      1.0000 0.80500  0.66300  0.27360  Biso   1.000  O
