data_image0
_cell_length_a       19.5148
_cell_length_b       12.7678
_cell_length_c       14.3466
_cell_angle_alpha    90
_cell_angle_beta     114.133
_cell_angle_gamma    90

_symmetry_space_group_name_H-M    "P 1"
_symmetry_int_tables_number       1

loop_
  _symmetry_equiv_pos_as_xyz
  'x, y, z'

loop_
  _atom_site_label
  _atom_site_occupancy
  _atom_site_fract_x
  _atom_site_fract_y
  _atom_site_fract_z
  _atom_site_thermal_displace_type
  _atom_site_B_iso_or_equiv
  _atom_site_type_symbol
  Cu1      1.0000 0.14867  0.81345  0.26790  Biso   1.000  Cu
  Cu2      1.0000 0.14867  0.18655  0.76790  Biso   1.000  Cu
  Cu3      1.0000 0.64867  0.31345  0.26790  Biso   1.000  Cu
  Cu4      1.0000 0.64867  0.68655  0.76790  Biso   1.000  Cu
  Cu5      1.0000 0.02975  0.68637  0.19909  Biso   1.000  Cu
  Cu6      1.0000 0.02975  0.31363  0.69909  Biso   1.000  Cu
  Cu7      1.0000 0.52975  0.18637  0.19909  Biso   1.000  Cu
  Cu8      1.0000 0.52975  0.81363  0.69909  Biso   1.000  Cu
  O1       1.0000 0.08880  0.89800  0.32500  Biso   1.000  O
  O2       1.0000 0.08880  0.10200  0.82500  Biso   1.000  O
  O3       1.0000 0.58880  0.39800  0.32500  Biso   1.000  O
  O4       1.0000 0.58880  0.60200  0.82500  Biso   1.000  O
  O5       1.0000 0.18800  0.70310  0.20700  Biso   1.000  O
  O6       1.0000 0.18800  0.29690  0.70700  Biso   1.000  O
  O7       1.0000 0.68800  0.20310  0.20700  Biso   1.000  O
  O8       1.0000 0.68800  0.79690  0.70700  Biso   1.000  O
  O9       1.0000 0.18200  0.27260  0.89230  Biso   1.000  O
  O10      1.0000 0.18200  0.72740  0.39230  Biso   1.000  O
  O11      1.0000 0.68200  0.77260  0.89230  Biso   1.000  O
  O12      1.0000 0.68200  0.22740  0.39230  Biso   1.000  O
  O13      1.0000 0.09730  0.11760  0.63540  Biso   1.000  O
  O14      1.0000 0.09730  0.88240  0.13540  Biso   1.000  O
  O15      1.0000 0.59730  0.61760  0.63540  Biso   1.000  O
  O16      1.0000 0.59730  0.38240  0.13540  Biso   1.000  O
  O17      1.0000 0.08060  0.61270  0.12500  Biso   1.000  O
  O18      1.0000 0.08060  0.38730  0.62500  Biso   1.000  O
  O19      1.0000 0.58060  0.11270  0.12500  Biso   1.000  O
  O20      1.0000 0.58060  0.88730  0.62500  Biso   1.000  O
  O21      1.0000 0.99000  0.20910  0.58840  Biso   1.000  O
  O22      1.0000 0.99000  0.79090  0.08840  Biso   1.000  O
  O23      1.0000 0.49000  0.70910  0.58840  Biso   1.000  O
  O24      1.0000 0.49000  0.29090  0.08840  Biso   1.000  O
  O25      1.0000 0.99670  0.77850  0.28250  Biso   1.000  O
  O26      1.0000 0.99670  0.22150  0.78250  Biso   1.000  O
  O27      1.0000 0.49670  0.27850  0.28250  Biso   1.000  O
  O28      1.0000 0.49670  0.72150  0.78250  Biso   1.000  O
  O29      1.0000 0.09130  0.39430  0.82580  Biso   1.000  O
  O30      1.0000 0.09130  0.60570  0.32580  Biso   1.000  O
  O31      1.0000 0.59130  0.89430  0.82580  Biso   1.000  O
  O32      1.0000 0.59130  0.10570  0.32580  Biso   1.000  O
  N1       1.0000 0.24810  0.90910  0.31620  Biso   1.000  N
  N2       1.0000 0.24810  0.09090  0.81620  Biso   1.000  N
  N3       1.0000 0.74810  0.40910  0.31620  Biso   1.000  N
  N4       1.0000 0.74810  0.59090  0.81620  Biso   1.000  N
  N5       1.0000 0.93440  0.58470  0.15880  Biso   1.000  N
  N6       1.0000 0.93440  0.41530  0.65880  Biso   1.000  N
  N7       1.0000 0.43440  0.08470  0.15880  Biso   1.000  N
  N8       1.0000 0.43440  0.91530  0.65880  Biso   1.000  N
  C1       1.0000 0.74320  0.37640  0.05870  Biso   1.000  C
  C2       1.0000 0.74320  0.62360  0.55870  Biso   1.000  C
  C3       1.0000 0.24320  0.87640  0.05870  Biso   1.000  C
  C4       1.0000 0.24320  0.12360  0.55870  Biso   1.000  C
  H1       1.0000 0.70690  0.39930  0.08560  Biso   1.000  H
  H2       1.0000 0.70690  0.60070  0.58560  Biso   1.000  H
  H3       1.0000 0.20690  0.89930  0.08560  Biso   1.000  H
  H4       1.0000 0.20690  0.10070  0.58560  Biso   1.000  H
  H5       1.0000 0.76050  0.30550  0.08320  Biso   1.000  H
  H6       1.0000 0.76050  0.69450  0.58320  Biso   1.000  H
  H7       1.0000 0.26050  0.80550  0.08320  Biso   1.000  H
  H8       1.0000 0.26050  0.19450  0.58320  Biso   1.000  H
  H9       1.0000 0.71920  0.37650  0.98390  Biso   1.000  H
  H10      1.0000 0.71920  0.62350  0.48390  Biso   1.000  H
  H11      1.0000 0.21920  0.87650  0.98390  Biso   1.000  H
  H12      1.0000 0.21920  0.12350  0.48390  Biso   1.000  H
  C5       1.0000 0.02880  0.86120  0.32470  Biso   1.000  C
  C6       1.0000 0.02880  0.13880  0.82470  Biso   1.000  C
  C7       1.0000 0.52880  0.36120  0.32470  Biso   1.000  C
  C8       1.0000 0.52880  0.63880  0.82470  Biso   1.000  C
  C9       1.0000 0.14930  0.63030  0.14900  Biso   1.000  C
  C10      1.0000 0.14930  0.36970  0.64900  Biso   1.000  C
  C11      1.0000 0.64930  0.13030  0.14900  Biso   1.000  C
  C12      1.0000 0.64930  0.86970  0.64900  Biso   1.000  C
  C13      1.0000 0.15020  0.35780  0.89360  Biso   1.000  C
  C14      1.0000 0.15020  0.64220  0.39360  Biso   1.000  C
  C15      1.0000 0.65020  0.85780  0.89360  Biso   1.000  C
  C16      1.0000 0.65020  0.14220  0.39360  Biso   1.000  C
  C17      1.0000 0.02880  0.13390  0.57940  Biso   1.000  C
  C18      1.0000 0.02880  0.86610  0.07940  Biso   1.000  C
  C19      1.0000 0.52880  0.63390  0.57940  Biso   1.000  C
  C20      1.0000 0.52880  0.36610  0.07940  Biso   1.000  C
  C21      1.0000 0.02820  0.99990  0.44890  Biso   1.000  C
  C22      1.0000 0.02820  0.00010  0.94890  Biso   1.000  C
  C23      1.0000 0.52820  0.49990  0.44890  Biso   1.000  C
  C24      1.0000 0.52820  0.50010  0.94890  Biso   1.000  C
  H13      1.0000 0.07890  0.01620  0.46250  Biso   1.000  H
  H14      1.0000 0.07890  0.98380  0.96250  Biso   1.000  H
  H15      1.0000 0.57890  0.51620  0.46250  Biso   1.000  H
  H16      1.0000 0.57890  0.48380  0.96250  Biso   1.000  H
  C25      1.0000 0.15190  0.49610  0.02140  Biso   1.000  C
  C26      1.0000 0.15190  0.50390  0.52140  Biso   1.000  C
  C27      1.0000 0.65190  0.99610  0.02140  Biso   1.000  C
  C28      1.0000 0.65190  0.00390  0.52140  Biso   1.000  C
  H17      1.0000 0.09920  0.50450  0.98520  Biso   1.000  H
  H18      1.0000 0.09920  0.49550  0.48520  Biso   1.000  H
  H19      1.0000 0.59920  0.00450  0.98520  Biso   1.000  H
  H20      1.0000 0.59920  0.99550  0.48520  Biso   1.000  H
  C29      1.0000 0.99040  0.05560  0.49820  Biso   1.000  C
  C30      1.0000 0.99040  0.94440  0.99820  Biso   1.000  C
  C31      1.0000 0.49040  0.55560  0.49820  Biso   1.000  C
  C32      1.0000 0.49040  0.44440  0.99820  Biso   1.000  C
  C33      1.0000 0.37790  0.03380  0.39170  Biso   1.000  C
  C34      1.0000 0.37790  0.96620  0.89170  Biso   1.000  C
  C35      1.0000 0.87790  0.53380  0.39170  Biso   1.000  C
  C36      1.0000 0.87790  0.46620  0.89170  Biso   1.000  C
  C37      1.0000 0.18970  0.42300  0.98780  Biso   1.000  C
  C38      1.0000 0.18970  0.57700  0.48780  Biso   1.000  C
  C39      1.0000 0.68970  0.92300  0.98780  Biso   1.000  C
  C40      1.0000 0.68970  0.07700  0.48780  Biso   1.000  C
  C41      1.0000 0.24370  0.01380  0.30920  Biso   1.000  C
  C42      1.0000 0.24370  0.98620  0.80920  Biso   1.000  C
  C43      1.0000 0.74370  0.51380  0.30920  Biso   1.000  C
  C44      1.0000 0.74370  0.48620  0.80920  Biso   1.000  C
  H21      1.0000 0.19560  0.04550  0.27740  Biso   1.000  H
  H22      1.0000 0.19560  0.95450  0.77740  Biso   1.000  H
  H23      1.0000 0.69560  0.54550  0.27740  Biso   1.000  H
  H24      1.0000 0.69560  0.45450  0.77740  Biso   1.000  H
  C45      1.0000 0.80140  0.55660  0.08390  Biso   1.000  C
  C46      1.0000 0.80140  0.44340  0.58390  Biso   1.000  C
  C47      1.0000 0.30140  0.05660  0.08390  Biso   1.000  C
  C48      1.0000 0.30140  0.94340  0.58390  Biso   1.000  C
  H25      1.0000 0.75260  0.58630  0.05320  Biso   1.000  H
  H26      1.0000 0.75260  0.41370  0.55320  Biso   1.000  H
  H27      1.0000 0.25260  0.08630  0.05320  Biso   1.000  H
  H28      1.0000 0.25260  0.91370  0.55320  Biso   1.000  H
  C49      1.0000 0.94250  0.48090  0.16990  Biso   1.000  C
  C50      1.0000 0.94250  0.51910  0.66990  Biso   1.000  C
  C51      1.0000 0.44250  0.98090  0.16990  Biso   1.000  C
  C52      1.0000 0.44250  0.01910  0.66990  Biso   1.000  C
  H29      1.0000 0.99180  0.45280  0.19950  Biso   1.000  H
  H30      1.0000 0.99180  0.54720  0.69950  Biso   1.000  H
  H31      1.0000 0.49180  0.95280  0.19950  Biso   1.000  H
  H32      1.0000 0.49180  0.04720  0.69950  Biso   1.000  H
  C53      1.0000 0.80940  0.45040  0.09480  Biso   1.000  C
  C54      1.0000 0.80940  0.54960  0.59480  Biso   1.000  C
  C55      1.0000 0.30940  0.95040  0.09480  Biso   1.000  C
  C56      1.0000 0.30940  0.04960  0.59480  Biso   1.000  C
  C57      1.0000 0.88280  0.41280  0.14070  Biso   1.000  C
  C58      1.0000 0.88280  0.58720  0.64070  Biso   1.000  C
  C59      1.0000 0.38280  0.91280  0.14070  Biso   1.000  C
  C60      1.0000 0.38280  0.08720  0.64070  Biso   1.000  C
  H33      1.0000 0.89160  0.33970  0.15180  Biso   1.000  H
  H34      1.0000 0.89160  0.66030  0.65180  Biso   1.000  H
  H35      1.0000 0.39160  0.83970  0.15180  Biso   1.000  H
  H36      1.0000 0.39160  0.16030  0.65180  Biso   1.000  H
  C61      1.0000 0.86330  0.62090  0.11680  Biso   1.000  C
  C62      1.0000 0.86330  0.37910  0.61680  Biso   1.000  C
  C63      1.0000 0.36330  0.12090  0.11680  Biso   1.000  C
  C64      1.0000 0.36330  0.87910  0.61680  Biso   1.000  C
  H37      1.0000 0.85560  0.69440  0.10960  Biso   1.000  H
  H38      1.0000 0.85560  0.30560  0.60960  Biso   1.000  H
  H39      1.0000 0.35560  0.19440  0.10960  Biso   1.000  H
  H40      1.0000 0.35560  0.80560  0.60960  Biso   1.000  H
  C65      1.0000 0.30660  0.07720  0.34650  Biso   1.000  C
  C66      1.0000 0.30660  0.92280  0.84650  Biso   1.000  C
  C67      1.0000 0.80660  0.57720  0.34650  Biso   1.000  C
  C68      1.0000 0.80660  0.42280  0.84650  Biso   1.000  C
  H41      1.0000 0.30090  0.15120  0.34110  Biso   1.000  H
  H42      1.0000 0.30090  0.84880  0.84110  Biso   1.000  H
  H43      1.0000 0.80090  0.65120  0.34110  Biso   1.000  H
  H44      1.0000 0.80090  0.34880  0.84110  Biso   1.000  H
  C69      1.0000 0.38160  0.92430  0.39610  Biso   1.000  C
  C70      1.0000 0.38160  0.07570  0.89610  Biso   1.000  C
  C71      1.0000 0.88160  0.42430  0.39610  Biso   1.000  C
  C72      1.0000 0.88160  0.57570  0.89610  Biso   1.000  C
  H45      1.0000 0.42890  0.89020  0.42530  Biso   1.000  H
  H46      1.0000 0.42890  0.10980  0.92530  Biso   1.000  H
  H47      1.0000 0.92890  0.39020  0.42530  Biso   1.000  H
  H48      1.0000 0.92890  0.60980  0.92530  Biso   1.000  H
  C73      1.0000 0.31660  0.86630  0.35800  Biso   1.000  C
  C74      1.0000 0.31660  0.13370  0.85800  Biso   1.000  C
  C75      1.0000 0.81660  0.36630  0.35800  Biso   1.000  C
  C76      1.0000 0.81660  0.63370  0.85800  Biso   1.000  C
  H49      1.0000 0.32050  0.79210  0.36150  Biso   1.000  H
  H50      1.0000 0.32050  0.20790  0.86150  Biso   1.000  H
  H51      1.0000 0.82050  0.29210  0.36150  Biso   1.000  H
  H52      1.0000 0.82050  0.70790  0.86150  Biso   1.000  H
  C77      1.0000 0.99120  0.92110  0.38040  Biso   1.000  C
  C78      1.0000 0.99120  0.07890  0.88040  Biso   1.000  C
  C79      1.0000 0.49120  0.42110  0.38040  Biso   1.000  C
  C80      1.0000 0.49120  0.57890  0.88040  Biso   1.000  C
  C81      1.0000 0.44740  0.10040  0.43420  Biso   1.000  C
  C82      1.0000 0.44740  0.89960  0.93420  Biso   1.000  C
  C83      1.0000 0.94740  0.60040  0.43420  Biso   1.000  C
  C84      1.0000 0.94740  0.39960  0.93420  Biso   1.000  C
  H53      1.0000 0.46660  0.11120  0.38160  Biso   1.000  H
  H54      1.0000 0.46660  0.88880  0.88160  Biso   1.000  H
  H55      1.0000 0.96660  0.61120  0.38160  Biso   1.000  H
  H56      1.0000 0.96660  0.38880  0.88160  Biso   1.000  H
  H57      1.0000 0.48570  0.06520  0.49320  Biso   1.000  H
  H58      1.0000 0.48570  0.93480  0.99320  Biso   1.000  H
  H59      1.0000 0.98570  0.56520  0.49320  Biso   1.000  H
  H60      1.0000 0.98570  0.43480  0.99320  Biso   1.000  H
  H61      1.0000 0.43530  0.16830  0.45550  Biso   1.000  H
  H62      1.0000 0.43530  0.83170  0.95550  Biso   1.000  H
  H63      1.0000 0.93530  0.66830  0.45550  Biso   1.000  H
  H64      1.0000 0.93530  0.33170  0.95550  Biso   1.000  H
  C85      1.0000 0.19050  0.55680  0.10730  Biso   1.000  C
  C86      1.0000 0.19050  0.44320  0.60730  Biso   1.000  C
  C87      1.0000 0.69050  0.05680  0.10730  Biso   1.000  C
  C88      1.0000 0.69050  0.94320  0.60730  Biso   1.000  C
  C89      1.0000 0.87950  0.95040  0.41090  Biso   1.000  C
  C90      1.0000 0.87950  0.04960  0.91090  Biso   1.000  C
  C91      1.0000 0.37950  0.45040  0.41090  Biso   1.000  C
  C92      1.0000 0.37950  0.54960  0.91090  Biso   1.000  C
  H65      1.0000 0.82890  0.93400  0.39780  Biso   1.000  H
  H66      1.0000 0.82890  0.06600  0.89780  Biso   1.000  H
  H67      1.0000 0.32890  0.43400  0.39780  Biso   1.000  H
  H68      1.0000 0.32890  0.56600  0.89780  Biso   1.000  H
  C93      1.0000 0.26810  0.54720  0.15850  Biso   1.000  C
  C94      1.0000 0.26810  0.45280  0.65850  Biso   1.000  C
  C95      1.0000 0.76810  0.04720  0.15850  Biso   1.000  C
  C96      1.0000 0.76810  0.95280  0.65850  Biso   1.000  C
  H69      1.0000 0.29510  0.59160  0.21470  Biso   1.000  H
  H70      1.0000 0.29510  0.40840  0.71470  Biso   1.000  H
  H71      1.0000 0.79510  0.09160  0.21470  Biso   1.000  H
  H72      1.0000 0.79510  0.90840  0.71470  Biso   1.000  H
  C97      1.0000 0.91730  0.89420  0.36400  Biso   1.000  C
  C98      1.0000 0.91730  0.10580  0.86400  Biso   1.000  C
  C99      1.0000 0.41730  0.39420  0.36400  Biso   1.000  C
  C100     1.0000 0.41730  0.60580  0.86400  Biso   1.000  C
  H73      1.0000 0.89310  0.83710  0.32050  Biso   1.000  H
  H74      1.0000 0.89310  0.16290  0.82050  Biso   1.000  H
  H75      1.0000 0.39310  0.33710  0.32050  Biso   1.000  H
  H76      1.0000 0.39310  0.66290  0.82050  Biso   1.000  H
  C101     1.0000 0.26690  0.40990  0.04320  Biso   1.000  C
  C102     1.0000 0.26690  0.59010  0.54320  Biso   1.000  C
  C103     1.0000 0.76690  0.90990  0.04320  Biso   1.000  C
  C104     1.0000 0.76690  0.09010  0.54320  Biso   1.000  C
  H77      1.0000 0.29280  0.35780  0.02310  Biso   1.000  H
  H78      1.0000 0.29280  0.64220  0.52310  Biso   1.000  H
  H79      1.0000 0.79280  0.85780  0.02310  Biso   1.000  H
  H80      1.0000 0.79280  0.14220  0.52310  Biso   1.000  H
  C105     1.0000 0.30580  0.47240  0.12730  Biso   1.000  C
  C106     1.0000 0.30580  0.52760  0.62730  Biso   1.000  C
  C107     1.0000 0.80580  0.97240  0.12730  Biso   1.000  C
  C108     1.0000 0.80580  0.02760  0.62730  Biso   1.000  C
  H81      1.0000 0.35850  0.46410  0.16360  Biso   1.000  H
  H82      1.0000 0.35850  0.53590  0.66360  Biso   1.000  H
  H83      1.0000 0.85850  0.96410  0.16360  Biso   1.000  H
  H84      1.0000 0.85850  0.03590  0.66360  Biso   1.000  H
  C109     1.0000 0.91630  0.03100  0.47710  Biso   1.000  C
  C110     1.0000 0.91630  0.96900  0.97710  Biso   1.000  C
  C111     1.0000 0.41630  0.53100  0.47710  Biso   1.000  C
  C112     1.0000 0.41630  0.46900  0.97710  Biso   1.000  C
  H85      1.0000 0.89020  0.07020  0.50870  Biso   1.000  H
  H86      1.0000 0.89020  0.92980  0.00870  Biso   1.000  H
  H87      1.0000 0.39020  0.57020  0.50870  Biso   1.000  H
  H88      1.0000 0.39020  0.42980  0.00870  Biso   1.000  H
  Cl1      1.0000 0.96511  0.86230  0.71000  Biso   1.000  Cl
  Cl2      1.0000 0.96511  0.13770  0.21000  Biso   1.000  Cl
  Cl3      1.0000 0.46511  0.36230  0.71000  Biso   1.000  Cl
  Cl4      1.0000 0.46511  0.63770  0.21000  Biso   1.000  Cl
  Cl5      1.0000 0.06045  0.72548  0.90326  Biso   1.000  Cl
  Cl6      1.0000 0.06045  0.27452  0.40326  Biso   1.000  Cl
  Cl7      1.0000 0.56045  0.22548  0.90326  Biso   1.000  Cl
  Cl8      1.0000 0.56045  0.77452  0.40326  Biso   1.000  Cl
  C113     1.0000 0.04460  0.79640  0.71740  Biso   1.000  C
  C114     1.0000 0.04460  0.20360  0.21740  Biso   1.000  C
  C115     1.0000 0.54460  0.29640  0.71740  Biso   1.000  C
  C116     1.0000 0.54460  0.70360  0.21740  Biso   1.000  C
  C117     1.0000 0.12990  0.75270  0.64030  Biso   1.000  C
  C118     1.0000 0.12990  0.24730  0.14030  Biso   1.000  C
  C119     1.0000 0.62990  0.25270  0.64030  Biso   1.000  C
  C120     1.0000 0.62990  0.74730  0.14030  Biso   1.000  C
  H89      1.0000 0.14470  0.75910  0.58510  Biso   1.000  H
  H90      1.0000 0.14470  0.24090  0.08510  Biso   1.000  H
  H91      1.0000 0.64470  0.25910  0.58510  Biso   1.000  H
  H92      1.0000 0.64470  0.74090  0.08510  Biso   1.000  H
  C121     1.0000 0.06710  0.80400  0.63830  Biso   1.000  C
  C122     1.0000 0.06710  0.19600  0.13830  Biso   1.000  C
  C123     1.0000 0.56710  0.30400  0.63830  Biso   1.000  C
  C124     1.0000 0.56710  0.69600  0.13830  Biso   1.000  C
  H93      1.0000 0.03860  0.84590  0.58070  Biso   1.000  H
  H94      1.0000 0.03860  0.15410  0.08070  Biso   1.000  H
  H95      1.0000 0.53860  0.34590  0.58070  Biso   1.000  H
  H96      1.0000 0.53860  0.65410  0.08070  Biso   1.000  H
  C125     1.0000 0.08650  0.73630  0.80260  Biso   1.000  C
  C126     1.0000 0.08650  0.26370  0.30260  Biso   1.000  C
  C127     1.0000 0.58650  0.23630  0.80260  Biso   1.000  C
  C128     1.0000 0.58650  0.76370  0.30260  Biso   1.000  C
  C129     1.0000 0.17130  0.69130  0.72530  Biso   1.000  C
  C130     1.0000 0.17130  0.30870  0.22530  Biso   1.000  C
  C131     1.0000 0.67130  0.19130  0.72530  Biso   1.000  C
  C132     1.0000 0.67130  0.80870  0.22530  Biso   1.000  C
  H97      1.0000 0.21480  0.65520  0.72860  Biso   1.000  H
  H98      1.0000 0.21480  0.34480  0.22860  Biso   1.000  H
  H99      1.0000 0.71480  0.15520  0.72860  Biso   1.000  H
  H100     1.0000 0.71480  0.84480  0.22860  Biso   1.000  H
  C133     1.0000 0.14860  0.68340  0.80530  Biso   1.000  C
  C134     1.0000 0.14860  0.31660  0.30530  Biso   1.000  C
  C135     1.0000 0.64860  0.18340  0.80530  Biso   1.000  C
  C136     1.0000 0.64860  0.81660  0.30530  Biso   1.000  C
  H101     1.0000 0.17640  0.64070  0.86260  Biso   1.000  H
  H102     1.0000 0.17640  0.35930  0.36260  Biso   1.000  H
  H103     1.0000 0.67640  0.14070  0.86260  Biso   1.000  H
  H104     1.0000 0.67640  0.85930  0.36260  Biso   1.000  H
