data_image0
_cell_length_a       10.2527
_cell_length_b       18.973
_cell_length_c       16.977
_cell_angle_alpha    90
_cell_angle_beta     100.46
_cell_angle_gamma    90

_symmetry_space_group_name_H-M    "P 1"
_symmetry_int_tables_number       1

loop_
  _symmetry_equiv_pos_as_xyz
  'x, y, z'

loop_
  _atom_site_label
  _atom_site_occupancy
  _atom_site_fract_x
  _atom_site_fract_y
  _atom_site_fract_z
  _atom_site_thermal_displace_type
  _atom_site_B_iso_or_equiv
  _atom_site_type_symbol
  Cu1      1.0000 0.61738  0.53054  0.00991  Biso   1.000  Cu
  Cu2      1.0000 0.38262  0.03054  0.99009  Biso   1.000  Cu
  Cu3      1.0000 0.38262  0.46946  0.99009  Biso   1.000  Cu
  Cu4      1.0000 0.61738  0.96946  0.00991  Biso   1.000  Cu
  Cu5      1.0000 0.95789  0.53277  0.55907  Biso   1.000  Cu
  Cu6      1.0000 0.04211  0.03277  0.44093  Biso   1.000  Cu
  Cu7      1.0000 0.04211  0.46723  0.44093  Biso   1.000  Cu
  Cu8      1.0000 0.95789  0.96723  0.55907  Biso   1.000  Cu
  O1       1.0000 0.58830  0.53120  0.12090  Biso   1.000  O
  O2       1.0000 0.41170  0.03120  0.87910  Biso   1.000  O
  O3       1.0000 0.41170  0.46880  0.87910  Biso   1.000  O
  O4       1.0000 0.58830  0.96880  0.12090  Biso   1.000  O
  O5       1.0000 0.38520  0.48400  0.10630  Biso   1.000  O
  O6       1.0000 0.61480  0.98400  0.89370  Biso   1.000  O
  O7       1.0000 0.61480  0.51600  0.89370  Biso   1.000  O
  O8       1.0000 0.38520  0.01600  0.10630  Biso   1.000  O
  O9       1.0000 0.51150  0.61690  0.98780  Biso   1.000  O
  O10      1.0000 0.48850  0.11690  0.01220  Biso   1.000  O
  O11      1.0000 0.48850  0.38310  0.01220  Biso   1.000  O
  O12      1.0000 0.51150  0.88310  0.98780  Biso   1.000  O
  O13      1.0000 0.31260  0.56500  0.96960  Biso   1.000  O
  O14      1.0000 0.68740  0.06500  0.03040  Biso   1.000  O
  O15      1.0000 0.68740  0.43500  0.03040  Biso   1.000  O
  O16      1.0000 0.31260  0.93500  0.96960  Biso   1.000  O
  O17      1.0000 0.78640  0.53620  0.48680  Biso   1.000  O
  O18      1.0000 0.21360  0.03620  0.51320  Biso   1.000  O
  O19      1.0000 0.21360  0.46380  0.51320  Biso   1.000  O
  O20      1.0000 0.78640  0.96380  0.48680  Biso   1.000  O
  O21      1.0000 0.85950  0.48310  0.38660  Biso   1.000  O
  O22      1.0000 0.14050  0.98310  0.61340  Biso   1.000  O
  O23      1.0000 0.14050  0.51690  0.61340  Biso   1.000  O
  O24      1.0000 0.85950  0.01690  0.38660  Biso   1.000  O
  O25      1.0000 0.01020  0.61910  0.50740  Biso   1.000  O
  O26      1.0000 0.98980  0.11910  0.49260  Biso   1.000  O
  O27      1.0000 0.98980  0.38090  0.49260  Biso   1.000  O
  O28      1.0000 0.01020  0.88090  0.50740  Biso   1.000  O
  O29      1.0000 0.08500  0.56330  0.40850  Biso   1.000  O
  O30      1.0000 0.91500  0.06330  0.59150  Biso   1.000  O
  O31      1.0000 0.91500  0.43670  0.59150  Biso   1.000  O
  O32      1.0000 0.08500  0.93670  0.40850  Biso   1.000  O
  N1       1.0000 0.80570  0.58310  0.04090  Biso   1.000  N
  N2       1.0000 0.19430  0.08310  0.95910  Biso   1.000  N
  N3       1.0000 0.19430  0.41690  0.95910  Biso   1.000  N
  N4       1.0000 0.80570  0.91690  0.04090  Biso   1.000  N
  N5       1.0000 0.89260  0.58330  0.65750  Biso   1.000  N
  N6       1.0000 0.10740  0.08330  0.34250  Biso   1.000  N
  N7       1.0000 0.10740  0.41670  0.34250  Biso   1.000  N
  N8       1.0000 0.89260  0.91670  0.65750  Biso   1.000  N
  C1       1.0000 0.48950  0.50920  0.14720  Biso   1.000  C
  C2       1.0000 0.51050  0.00920  0.85280  Biso   1.000  C
  C3       1.0000 0.51050  0.49080  0.85280  Biso   1.000  C
  C4       1.0000 0.48950  0.99080  0.14720  Biso   1.000  C
  C5       1.0000 0.38740  0.61800  0.97010  Biso   1.000  C
  C6       1.0000 0.61260  0.11800  0.02990  Biso   1.000  C
  C7       1.0000 0.61260  0.38200  0.02990  Biso   1.000  C
  C8       1.0000 0.38740  0.88200  0.97010  Biso   1.000  C
  C9       1.0000 0.49750  0.51420  0.23500  Biso   1.000  C
  C10      1.0000 0.50250  0.01420  0.76500  Biso   1.000  C
  C11      1.0000 0.50250  0.48580  0.76500  Biso   1.000  C
  C12      1.0000 0.49750  0.98580  0.23500  Biso   1.000  C
  C13      1.0000 0.38560  0.52490  0.27020  Biso   1.000  C
  C14      1.0000 0.61440  0.02490  0.72980  Biso   1.000  C
  C15      1.0000 0.61440  0.47510  0.72980  Biso   1.000  C
  C16      1.0000 0.38560  0.97510  0.27020  Biso   1.000  C
  H1       1.0000 0.29990  0.52560  0.23760  Biso   1.000  H
  H2       1.0000 0.70010  0.02560  0.76240  Biso   1.000  H
  H3       1.0000 0.70010  0.47440  0.76240  Biso   1.000  H
  H4       1.0000 0.29990  0.97440  0.23760  Biso   1.000  H
  C17      1.0000 0.39910  0.53440  0.35140  Biso   1.000  C
  C18      1.0000 0.60090  0.03440  0.64860  Biso   1.000  C
  C19      1.0000 0.60090  0.46560  0.64860  Biso   1.000  C
  C20      1.0000 0.39910  0.96560  0.35140  Biso   1.000  C
  H5       1.0000 0.32270  0.54270  0.37440  Biso   1.000  H
  H6       1.0000 0.67730  0.04270  0.62560  Biso   1.000  H
  H7       1.0000 0.67730  0.45730  0.62560  Biso   1.000  H
  H8       1.0000 0.32270  0.95730  0.37440  Biso   1.000  H
  C21      1.0000 0.52480  0.53190  0.40080  Biso   1.000  C
  C22      1.0000 0.47520  0.03190  0.59920  Biso   1.000  C
  C23      1.0000 0.47520  0.46810  0.59920  Biso   1.000  C
  C24      1.0000 0.52480  0.96810  0.40080  Biso   1.000  C
  H9       1.0000 0.53420  0.53880  0.45700  Biso   1.000  H
  H10      1.0000 0.46580  0.03880  0.54300  Biso   1.000  H
  H11      1.0000 0.46580  0.46120  0.54300  Biso   1.000  H
  H12      1.0000 0.53420  0.96120  0.45700  Biso   1.000  H
  C25      1.0000 0.63590  0.51910  0.36560  Biso   1.000  C
  C26      1.0000 0.36410  0.01910  0.63440  Biso   1.000  C
  C27      1.0000 0.36410  0.48090  0.63440  Biso   1.000  C
  C28      1.0000 0.63590  0.98090  0.36560  Biso   1.000  C
  C29      1.0000 0.77090  0.51170  0.41650  Biso   1.000  C
  C30      1.0000 0.22910  0.01170  0.58350  Biso   1.000  C
  C31      1.0000 0.22910  0.48830  0.58350  Biso   1.000  C
  C32      1.0000 0.77090  0.98830  0.41650  Biso   1.000  C
  C33      1.0000 0.62270  0.51060  0.28440  Biso   1.000  C
  C34      1.0000 0.37730  0.01060  0.71560  Biso   1.000  C
  C35      1.0000 0.37730  0.48940  0.71560  Biso   1.000  C
  C36      1.0000 0.62270  0.98940  0.28440  Biso   1.000  C
  H13      1.0000 0.69900  0.50210  0.26140  Biso   1.000  H
  H14      1.0000 0.30100  0.00210  0.73860  Biso   1.000  H
  H15      1.0000 0.30100  0.49790  0.73860  Biso   1.000  H
  H16      1.0000 0.69900  0.99790  0.26140  Biso   1.000  H
  C37      1.0000 0.06050  0.61800  0.44560  Biso   1.000  C
  C38      1.0000 0.93950  0.11800  0.55440  Biso   1.000  C
  C39      1.0000 0.93950  0.38200  0.55440  Biso   1.000  C
  C40      1.0000 0.06050  0.88200  0.44560  Biso   1.000  C
  C41      1.0000 0.09220  0.68620  0.40970  Biso   1.000  C
  C42      1.0000 0.90780  0.18620  0.59030  Biso   1.000  C
  C43      1.0000 0.90780  0.31380  0.59030  Biso   1.000  C
  C44      1.0000 0.09220  0.81380  0.40970  Biso   1.000  C
  C45      1.0000 0.14950  0.68690  0.34170  Biso   1.000  C
  C46      1.0000 0.85050  0.18690  0.65830  Biso   1.000  C
  C47      1.0000 0.85050  0.31310  0.65830  Biso   1.000  C
  C48      1.0000 0.14950  0.81310  0.34170  Biso   1.000  C
  H17      1.0000 0.17010  0.64360  0.31850  Biso   1.000  H
  H18      1.0000 0.82990  0.14360  0.68150  Biso   1.000  H
  H19      1.0000 0.82990  0.35640  0.68150  Biso   1.000  H
  H20      1.0000 0.17010  0.85640  0.31850  Biso   1.000  H
  C49      1.0000 0.06630  0.75000  0.44440  Biso   1.000  C
  C50      1.0000 0.93370  0.25000  0.55560  Biso   1.000  C
  H21      1.0000 0.03070  0.75000  0.49230  Biso   1.000  H
  H22      1.0000 0.96930  0.25000  0.50770  Biso   1.000  H
  C51      1.0000 0.17680  0.75000  0.30740  Biso   1.000  C
  C52      1.0000 0.82320  0.25000  0.69260  Biso   1.000  C
  H23      1.0000 0.21440  0.75000  0.26020  Biso   1.000  H
  H24      1.0000 0.78560  0.25000  0.73980  Biso   1.000  H
  C53      1.0000 0.32080  0.68720  0.94840  Biso   1.000  C
  C54      1.0000 0.67920  0.18720  0.05160  Biso   1.000  C
  C55      1.0000 0.67920  0.31280  0.05160  Biso   1.000  C
  C56      1.0000 0.32080  0.81280  0.94840  Biso   1.000  C
  C57      1.0000 0.38680  0.75000  0.96610  Biso   1.000  C
  C58      1.0000 0.61320  0.25000  0.03390  Biso   1.000  C
  H25      1.0000 0.47790  0.75000  0.99050  Biso   1.000  H
  H26      1.0000 0.52210  0.25000  0.00950  Biso   1.000  H
  C59      1.0000 0.18980  0.68680  0.90810  Biso   1.000  C
  C60      1.0000 0.81020  0.18680  0.09190  Biso   1.000  C
  C61      1.0000 0.81020  0.31320  0.09190  Biso   1.000  C
  C62      1.0000 0.18980  0.81320  0.90810  Biso   1.000  C
  H27      1.0000 0.14560  0.64340  0.89380  Biso   1.000  H
  H28      1.0000 0.85440  0.14340  0.10620  Biso   1.000  H
  H29      1.0000 0.85440  0.35660  0.10620  Biso   1.000  H
  H30      1.0000 0.14560  0.85660  0.89380  Biso   1.000  H
  C63      1.0000 0.12440  0.75000  0.88900  Biso   1.000  C
  C64      1.0000 0.87560  0.25000  0.11100  Biso   1.000  C
  H31      1.0000 0.03440  0.75000  0.86270  Biso   1.000  H
  H32      1.0000 0.96560  0.25000  0.13730  Biso   1.000  H
  C65      1.0000 0.94000  0.56270  0.73340  Biso   1.000  C
  C66      1.0000 0.06000  0.06270  0.26660  Biso   1.000  C
  C67      1.0000 0.06000  0.43730  0.26660  Biso   1.000  C
  C68      1.0000 0.94000  0.93730  0.73340  Biso   1.000  C
  H33      1.0000 0.00900  0.52860  0.74210  Biso   1.000  H
  H34      1.0000 0.99100  0.02860  0.25790  Biso   1.000  H
  H35      1.0000 0.99100  0.47140  0.25790  Biso   1.000  H
  H36      1.0000 0.00900  0.97140  0.74210  Biso   1.000  H
  C69      1.0000 0.79720  0.62650  0.64630  Biso   1.000  C
  C70      1.0000 0.20280  0.12650  0.35370  Biso   1.000  C
  C71      1.0000 0.20280  0.37350  0.35370  Biso   1.000  C
  C72      1.0000 0.79720  0.87350  0.64630  Biso   1.000  C
  C73      1.0000 0.89350  0.58850  0.79900  Biso   1.000  C
  C74      1.0000 0.10650  0.08850  0.20100  Biso   1.000  C
  C75      1.0000 0.10650  0.41150  0.20100  Biso   1.000  C
  C76      1.0000 0.89350  0.91150  0.79900  Biso   1.000  C
  H37      1.0000 0.92980  0.57260  0.85150  Biso   1.000  H
  H38      1.0000 0.07020  0.07260  0.14850  Biso   1.000  H
  H39      1.0000 0.07020  0.42740  0.14850  Biso   1.000  H
  H40      1.0000 0.92980  0.92740  0.85150  Biso   1.000  H
  C77      1.0000 0.80010  0.63450  0.78760  Biso   1.000  C
  C78      1.0000 0.19990  0.13450  0.21240  Biso   1.000  C
  C79      1.0000 0.19990  0.36550  0.21240  Biso   1.000  C
  C80      1.0000 0.80010  0.86550  0.78760  Biso   1.000  C
  H41      1.0000 0.76920  0.65360  0.83260  Biso   1.000  H
  H42      1.0000 0.23080  0.15360  0.16740  Biso   1.000  H
  H43      1.0000 0.23080  0.34640  0.16740  Biso   1.000  H
  H44      1.0000 0.76920  0.84640  0.83260  Biso   1.000  H
  C81      1.0000 0.74260  0.65720  0.71060  Biso   1.000  C
  C82      1.0000 0.25740  0.15720  0.28940  Biso   1.000  C
  C83      1.0000 0.25740  0.34280  0.28940  Biso   1.000  C
  C84      1.0000 0.74260  0.84280  0.71060  Biso   1.000  C
  H45      1.0000 0.67240  0.69060  0.70150  Biso   1.000  H
  H46      1.0000 0.32760  0.19060  0.29850  Biso   1.000  H
  H47      1.0000 0.32760  0.30940  0.29850  Biso   1.000  H
  H48      1.0000 0.67240  0.80940  0.70150  Biso   1.000  H
  C85      1.0000 0.04690  0.61360  0.10960  Biso   1.000  C
  C86      1.0000 0.95310  0.11360  0.89040  Biso   1.000  C
  C87      1.0000 0.95310  0.38640  0.89040  Biso   1.000  C
  C88      1.0000 0.04690  0.88640  0.10960  Biso   1.000  C
  C89      1.0000 0.83290  0.62510  0.10140  Biso   1.000  C
  C90      1.0000 0.16710  0.12510  0.89860  Biso   1.000  C
  C91      1.0000 0.16710  0.37490  0.89860  Biso   1.000  C
  C92      1.0000 0.83290  0.87490  0.10140  Biso   1.000  C
  C93      1.0000 0.96000  0.64770  0.13660  Biso   1.000  C
  C94      1.0000 0.04000  0.14770  0.86340  Biso   1.000  C
  C95      1.0000 0.04000  0.35230  0.86340  Biso   1.000  C
  C96      1.0000 0.96000  0.85230  0.13660  Biso   1.000  C
  C97      1.0000 0.91600  0.54410  0.02860  Biso   1.000  C
  C98      1.0000 0.08400  0.04410  0.97140  Biso   1.000  C
  C99      1.0000 0.08400  0.45590  0.97140  Biso   1.000  C
  C100     1.0000 0.91600  0.95590  0.02860  Biso   1.000  C
  C101     1.0000 0.04990  0.56550  0.05940  Biso   1.000  C
  C102     1.0000 0.95010  0.06550  0.94060  Biso   1.000  C
  C103     1.0000 0.95010  0.43450  0.94060  Biso   1.000  C
  C104     1.0000 0.04990  0.93450  0.05940  Biso   1.000  C
  C105     1.0000 0.80040  0.65710  0.00330  Biso   1.000  C
  C106     1.0000 0.19960  0.15710  0.99670  Biso   1.000  C
  C107     1.0000 0.19960  0.34290  0.99670  Biso   1.000  C
  C108     1.0000 0.80040  0.84290  0.00330  Biso   1.000  C
  C109     1.0000 0.90300  0.56920  0.08600  Biso   1.000  C
  C110     1.0000 0.09700  0.06920  0.91400  Biso   1.000  C
  C111     1.0000 0.09700  0.43080  0.91400  Biso   1.000  C
  C112     1.0000 0.90300  0.93080  0.08600  Biso   1.000  C
  C113     1.0000 0.02800  0.67240  0.06860  Biso   1.000  C
  C114     1.0000 0.97200  0.17240  0.93140  Biso   1.000  C
  C115     1.0000 0.97200  0.32760  0.93140  Biso   1.000  C
  C116     1.0000 0.02800  0.82760  0.06860  Biso   1.000  C
  C117     1.0000 0.90990  0.70010  0.01580  Biso   1.000  C
  C118     1.0000 0.09010  0.20010  0.98420  Biso   1.000  C
  C119     1.0000 0.09010  0.29990  0.98420  Biso   1.000  C
  C120     1.0000 0.90990  0.79990  0.01580  Biso   1.000  C
  O33      1.0000 0.41780  0.25000  0.16840  Biso   1.000  O
  O34      1.0000 0.58220  0.75000  0.83160  Biso   1.000  O
  O35      1.0000 0.48910  0.35140  0.18880  Biso   1.000  O
  O36      1.0000 0.51090  0.85140  0.81120  Biso   1.000  O
  O37      1.0000 0.51090  0.64860  0.81120  Biso   1.000  O
  O38      1.0000 0.48910  0.14860  0.18880  Biso   1.000  O
  N9       1.0000 0.50240  0.28870  0.19910  Biso   1.000  N
  N10      1.0000 0.49760  0.78870  0.80090  Biso   1.000  N
  N11      1.0000 0.49760  0.71130  0.80090  Biso   1.000  N
  N12      1.0000 0.50240  0.21130  0.19910  Biso   1.000  N
  C121     1.0000 0.70840  0.31770  0.27840  Biso   1.000  C
  C122     1.0000 0.29160  0.81770  0.72160  Biso   1.000  C
  C123     1.0000 0.29160  0.68230  0.72160  Biso   1.000  C
  C124     1.0000 0.70840  0.18230  0.27840  Biso   1.000  C
  C125     1.0000 0.62620  0.25000  0.24590  Biso   1.000  C
  C126     1.0000 0.37380  0.75000  0.75410  Biso   1.000  C
  C127     1.0000 0.84560  0.28620  0.33100  Biso   1.000  C
  C128     1.0000 0.15440  0.78620  0.66900  Biso   1.000  C
  C129     1.0000 0.15440  0.71380  0.66900  Biso   1.000  C
  C130     1.0000 0.84560  0.21380  0.33100  Biso   1.000  C
  O39      1.0000 0.35130  0.67010  0.16850  Biso   1.000  O
  O40      1.0000 0.64870  0.17010  0.83150  Biso   1.000  O
  O41      1.0000 0.64870  0.32990  0.83150  Biso   1.000  O
  O42      1.0000 0.35130  0.82990  0.16850  Biso   1.000  O
  O43      1.0000 0.33240  0.72040  0.14210  Biso   1.000  O
  O44      1.0000 0.66760  0.22040  0.85790  Biso   1.000  O
  O45      1.0000 0.66760  0.27960  0.85790  Biso   1.000  O
  O46      1.0000 0.33240  0.77960  0.14210  Biso   1.000  O
  N13      1.0000 0.39760  0.72890  0.16800  Biso   1.000  N
  N14      1.0000 0.60240  0.22890  0.83200  Biso   1.000  N
  N15      1.0000 0.60240  0.27110  0.83200  Biso   1.000  N
  N16      1.0000 0.39760  0.77110  0.16800  Biso   1.000  N
  C131     1.0000 0.59960  0.80380  0.18150  Biso   1.000  C
  C132     1.0000 0.40040  0.30380  0.81850  Biso   1.000  C
  C133     1.0000 0.40040  0.19620  0.81850  Biso   1.000  C
  C134     1.0000 0.59960  0.69620  0.18150  Biso   1.000  C
  C135     1.0000 0.59450  0.80810  0.25320  Biso   1.000  C
  C136     1.0000 0.40550  0.30810  0.74680  Biso   1.000  C
  C137     1.0000 0.40550  0.19190  0.74680  Biso   1.000  C
  C138     1.0000 0.59450  0.69190  0.25320  Biso   1.000  C
  C139     1.0000 0.80120  0.75000  0.26710  Biso   1.000  C
  C140     1.0000 0.19880  0.25000  0.73290  Biso   1.000  C
  C141     1.0000 0.73800  0.79870  0.29260  Biso   1.000  C
  C142     1.0000 0.26200  0.29870  0.70740  Biso   1.000  C
  C143     1.0000 0.26200  0.20130  0.70740  Biso   1.000  C
  C144     1.0000 0.73800  0.70130  0.29260  Biso   1.000  C
  C145     1.0000 0.74000  0.81100  0.21660  Biso   1.000  C
  C146     1.0000 0.26000  0.31100  0.78340  Biso   1.000  C
  C147     1.0000 0.26000  0.18900  0.78340  Biso   1.000  C
  C148     1.0000 0.74000  0.68900  0.21660  Biso   1.000  C
  C149     1.0000 0.53880  0.75000  0.19940  Biso   1.000  C
  C150     1.0000 0.46120  0.25000  0.80060  Biso   1.000  C
  O47      1.0000 0.46900  0.75000  0.49000  Biso   1.000  O
  O48      1.0000 0.53100  0.25000  0.51000  Biso   1.000  O
  O49      1.0000 0.58300  0.75000  0.47100  Biso   1.000  O
  O50      1.0000 0.41700  0.25000  0.52900  Biso   1.000  O
  O51      1.0000 0.67000  0.66450  0.57700  Biso   1.000  O
  O52      1.0000 0.33000  0.16450  0.42300  Biso   1.000  O
  O53      1.0000 0.33000  0.33550  0.42300  Biso   1.000  O
  O54      1.0000 0.67000  0.83550  0.57700  Biso   1.000  O
  C151     1.0000 0.53100  0.66300  0.59000  Biso   1.000  C
  C152     1.0000 0.46900  0.16300  0.41000  Biso   1.000  C
  C153     1.0000 0.46900  0.33700  0.41000  Biso   1.000  C
  C154     1.0000 0.53100  0.83700  0.59000  Biso   1.000  C
  C155     1.0000 0.67400  0.72800  0.47100  Biso   1.000  C
  C156     1.0000 0.32600  0.22800  0.52900  Biso   1.000  C
  C157     1.0000 0.32600  0.27200  0.52900  Biso   1.000  C
  C158     1.0000 0.67400  0.77200  0.47100  Biso   1.000  C
  C159     1.0000 0.43900  0.70900  0.54100  Biso   1.000  C
  C160     1.0000 0.56100  0.20900  0.45900  Biso   1.000  C
  C161     1.0000 0.56100  0.29100  0.45900  Biso   1.000  C
  C162     1.0000 0.43900  0.79100  0.54100  Biso   1.000  C
