data_image0
_cell_length_a       8.4851
_cell_length_b       14.639
_cell_length_c       11.1455
_cell_angle_alpha    90
_cell_angle_beta     93.392
_cell_angle_gamma    90

_symmetry_space_group_name_H-M    "P 1"
_symmetry_int_tables_number       1

loop_
  _symmetry_equiv_pos_as_xyz
  'x, y, z'

loop_
  _atom_site_label
  _atom_site_occupancy
  _atom_site_fract_x
  _atom_site_fract_y
  _atom_site_fract_z
  _atom_site_thermal_displace_type
  _atom_site_B_iso_or_equiv
  _atom_site_type_symbol
  Cu1      1.0000 0.38061  0.47210  0.06290  Biso   1.000  Cu
  Cu2      1.0000 0.88061  0.02790  0.56290  Biso   1.000  Cu
  Cu3      1.0000 0.61939  0.52790  0.93710  Biso   1.000  Cu
  Cu4      1.0000 0.11939  0.97210  0.43710  Biso   1.000  Cu
  O1       1.0000 0.30820  0.39610  0.92360  Biso   1.000  O
  O2       1.0000 0.80820  0.10390  0.42360  Biso   1.000  O
  O3       1.0000 0.69180  0.60390  0.07640  Biso   1.000  O
  O4       1.0000 0.19180  0.89610  0.57640  Biso   1.000  O
  O5       1.0000 0.02700  0.12600  0.61430  Biso   1.000  O
  O6       1.0000 0.52700  0.37400  0.11430  Biso   1.000  O
  O7       1.0000 0.97300  0.87400  0.38570  Biso   1.000  O
  O8       1.0000 0.47300  0.62600  0.88570  Biso   1.000  O
  O9       1.0000 0.22870  0.07860  0.50810  Biso   1.000  O
  O10      1.0000 0.72870  0.42140  0.00810  Biso   1.000  O
  O11      1.0000 0.77130  0.92140  0.49190  Biso   1.000  O
  O12      1.0000 0.27130  0.57860  0.99190  Biso   1.000  O
  O13      1.0000 0.51080  0.44510  0.82050  Biso   1.000  O
  O14      1.0000 0.01080  0.05490  0.32050  Biso   1.000  O
  O15      1.0000 0.48920  0.55490  0.17950  Biso   1.000  O
  O16      1.0000 0.98920  0.94510  0.67950  Biso   1.000  O
  N1       1.0000 0.20550  0.43960  0.18840  Biso   1.000  N
  N2       1.0000 0.70550  0.06040  0.68840  Biso   1.000  N
  N3       1.0000 0.79450  0.56040  0.81160  Biso   1.000  N
  N4       1.0000 0.29450  0.93960  0.31160  Biso   1.000  N
  C1       1.0000 0.06670  0.48020  0.19240  Biso   1.000  C
  C2       1.0000 0.56670  0.01980  0.69240  Biso   1.000  C
  C3       1.0000 0.93330  0.51980  0.80760  Biso   1.000  C
  C4       1.0000 0.43330  0.98020  0.30760  Biso   1.000  C
  H1       1.0000 0.03750  0.52400  0.13210  Biso   1.000  H
  H2       1.0000 0.53750  0.97600  0.63210  Biso   1.000  H
  H3       1.0000 0.96250  0.47600  0.86790  Biso   1.000  H
  H4       1.0000 0.46250  0.02400  0.36790  Biso   1.000  H
  C5       1.0000 0.23230  0.26660  0.72230  Biso   1.000  C
  C6       1.0000 0.73230  0.23340  0.22230  Biso   1.000  C
  C7       1.0000 0.76770  0.73340  0.27770  Biso   1.000  C
  C8       1.0000 0.26770  0.76660  0.77770  Biso   1.000  C
  H5       1.0000 0.13990  0.26700  0.76640  Biso   1.000  H
  H6       1.0000 0.63990  0.23300  0.26640  Biso   1.000  H
  H7       1.0000 0.86010  0.73300  0.23360  Biso   1.000  H
  H8       1.0000 0.36010  0.76700  0.73360  Biso   1.000  H
  C9       1.0000 0.36130  0.32400  0.74120  Biso   1.000  C
  C10      1.0000 0.86130  0.17600  0.24120  Biso   1.000  C
  C11      1.0000 0.63870  0.67600  0.25880  Biso   1.000  C
  C12      1.0000 0.13870  0.82400  0.75880  Biso   1.000  C
  C13      1.0000 0.16340  0.13210  0.57990  Biso   1.000  C
  C14      1.0000 0.66340  0.36790  0.07990  Biso   1.000  C
  C15      1.0000 0.83660  0.86790  0.42010  Biso   1.000  C
  C16      1.0000 0.33660  0.63210  0.92010  Biso   1.000  C
  C17      1.0000 0.26110  0.20900  0.62880  Biso   1.000  C
  C18      1.0000 0.76110  0.29100  0.12880  Biso   1.000  C
  C19      1.0000 0.73890  0.79100  0.37120  Biso   1.000  C
  C20      1.0000 0.23890  0.70900  0.87120  Biso   1.000  C
  C21      1.0000 0.96130  0.46220  0.28040  Biso   1.000  C
  C22      1.0000 0.46130  0.03780  0.78040  Biso   1.000  C
  C23      1.0000 0.03870  0.53780  0.71960  Biso   1.000  C
  C24      1.0000 0.53870  0.96220  0.21960  Biso   1.000  C
  H9       1.0000 0.86340  0.49370  0.27920  Biso   1.000  H
  H10      1.0000 0.36340  0.00630  0.77920  Biso   1.000  H
  H11      1.0000 0.13660  0.50630  0.72080  Biso   1.000  H
  H12      1.0000 0.63660  0.99370  0.22080  Biso   1.000  H
  C25      1.0000 0.39390  0.39430  0.83650  Biso   1.000  C
  C26      1.0000 0.89390  0.10570  0.33650  Biso   1.000  C
  C27      1.0000 0.60610  0.60570  0.16350  Biso   1.000  C
  C28      1.0000 0.10610  0.89430  0.66350  Biso   1.000  C
  C29      1.0000 0.24040  0.38080  0.27760  Biso   1.000  C
  C30      1.0000 0.74040  0.11920  0.77760  Biso   1.000  C
  C31      1.0000 0.75960  0.61920  0.72240  Biso   1.000  C
  C32      1.0000 0.25960  0.88080  0.22240  Biso   1.000  C
  H13      1.0000 0.34070  0.35180  0.28050  Biso   1.000  H
  H14      1.0000 0.84070  0.14820  0.78050  Biso   1.000  H
  H15      1.0000 0.65930  0.64820  0.71950  Biso   1.000  H
  H16      1.0000 0.15930  0.85180  0.21950  Biso   1.000  H
  C33      1.0000 0.99740  0.39960  0.36840  Biso   1.000  C
  C34      1.0000 0.49740  0.10040  0.86840  Biso   1.000  C
  C35      1.0000 0.00260  0.60040  0.63160  Biso   1.000  C
  C36      1.0000 0.50260  0.89960  0.13160  Biso   1.000  C
  C37      1.0000 0.88630  0.37720  0.46370  Biso   1.000  C
  C38      1.0000 0.38630  0.12280  0.96370  Biso   1.000  C
  C39      1.0000 0.11370  0.62280  0.53630  Biso   1.000  C
  C40      1.0000 0.61370  0.87720  0.03630  Biso   1.000  C
  H17      1.0000 0.87540  0.31070  0.46990  Biso   1.000  H
  H18      1.0000 0.37540  0.18930  0.96990  Biso   1.000  H
  H19      1.0000 0.12460  0.68930  0.53010  Biso   1.000  H
  H20      1.0000 0.62460  0.81070  0.03010  Biso   1.000  H
  H21      1.0000 0.78280  0.40440  0.44260  Biso   1.000  H
  H22      1.0000 0.28280  0.09560  0.94260  Biso   1.000  H
  H23      1.0000 0.21720  0.59560  0.55740  Biso   1.000  H
  H24      1.0000 0.71720  0.90440  0.05740  Biso   1.000  H
  H25      1.0000 0.92800  0.40180  0.54100  Biso   1.000  H
  H26      1.0000 0.42800  0.09820  0.04100  Biso   1.000  H
  H27      1.0000 0.07200  0.59820  0.45900  Biso   1.000  H
  H28      1.0000 0.57200  0.90180  0.95900  Biso   1.000  H
  C41      1.0000 0.14000  0.36010  0.36510  Biso   1.000  C
  C42      1.0000 0.64000  0.13990  0.86510  Biso   1.000  C
  C43      1.0000 0.86000  0.63990  0.63490  Biso   1.000  C
  C44      1.0000 0.36000  0.86010  0.13490  Biso   1.000  C
  H29      1.0000 0.17180  0.31670  0.42510  Biso   1.000  H
  H30      1.0000 0.67180  0.18330  0.92510  Biso   1.000  H
  H31      1.0000 0.82820  0.68330  0.57490  Biso   1.000  H
  H32      1.0000 0.32820  0.81670  0.07490  Biso   1.000  H
  C45      1.0000 0.02190  0.70530  0.01700  Biso   1.000  C
  C46      1.0000 0.52190  0.79470  0.51700  Biso   1.000  C
  C47      1.0000 0.97810  0.29470  0.98300  Biso   1.000  C
  C48      1.0000 0.47810  0.20530  0.48300  Biso   1.000  C
  H33      1.0000 0.91010  0.72190  0.01770  Biso   1.000  H
  H34      1.0000 0.41010  0.77810  0.51770  Biso   1.000  H
  H35      1.0000 0.08990  0.27810  0.98230  Biso   1.000  H
  H36      1.0000 0.58990  0.22190  0.48230  Biso   1.000  H
  H37      1.0000 0.08250  0.74000  0.07920  Biso   1.000  H
  H38      1.0000 0.58250  0.76000  0.57920  Biso   1.000  H
  H39      1.0000 0.91750  0.26000  0.92080  Biso   1.000  H
  H40      1.0000 0.41750  0.24000  0.42080  Biso   1.000  H
  H41      1.0000 0.03410  0.63980  0.03300  Biso   1.000  H
  H42      1.0000 0.53410  0.86020  0.53300  Biso   1.000  H
  H43      1.0000 0.96590  0.36020  0.96700  Biso   1.000  H
  H44      1.0000 0.46590  0.13980  0.46700  Biso   1.000  H
  C49      1.0000 0.46400  0.28900  0.65200  Biso   1.000  C
  C50      1.0000 0.96400  0.21100  0.15200  Biso   1.000  C
  C51      1.0000 0.53600  0.71100  0.34800  Biso   1.000  C
  C52      1.0000 0.03600  0.78900  0.84800  Biso   1.000  C
  N5       1.0000 0.07700  0.72500  0.90600  Biso   1.000  N
  N6       1.0000 0.57700  0.77500  0.40600  Biso   1.000  N
  N7       1.0000 0.92300  0.27500  0.09400  Biso   1.000  N
  N8       1.0000 0.42300  0.22500  0.59400  Biso   1.000  N
  C53      1.0000 0.63630  0.32430  0.66250  Biso   1.000  C
  C54      1.0000 0.13630  0.17570  0.16250  Biso   1.000  C
  C55      1.0000 0.36370  0.67570  0.33750  Biso   1.000  C
  C56      1.0000 0.86370  0.82430  0.83750  Biso   1.000  C
  H45      1.0000 0.67670  0.30100  0.58780  Biso   1.000  H
  H46      1.0000 0.17670  0.19900  0.08780  Biso   1.000  H
  H47      1.0000 0.32330  0.69900  0.41220  Biso   1.000  H
  H48      1.0000 0.82330  0.80100  0.91220  Biso   1.000  H
  H49      1.0000 0.69230  0.29450  0.73130  Biso   1.000  H
  H50      1.0000 0.19230  0.20550  0.23130  Biso   1.000  H
  H51      1.0000 0.30770  0.70550  0.26870  Biso   1.000  H
  H52      1.0000 0.80770  0.79450  0.76870  Biso   1.000  H
  H53      1.0000 0.65310  0.39040  0.66730  Biso   1.000  H
  H54      1.0000 0.15310  0.10960  0.16730  Biso   1.000  H
  H55      1.0000 0.34690  0.60960  0.33270  Biso   1.000  H
  H56      1.0000 0.84690  0.89040  0.83270  Biso   1.000  H
  N9       1.0000 0.47200  0.30520  0.66400  Biso   1.000  N
  N10      1.0000 0.97200  0.19480  0.16400  Biso   1.000  N
  N11      1.0000 0.52800  0.69480  0.33600  Biso   1.000  N
  N12      1.0000 0.02800  0.80520  0.83600  Biso   1.000  N
  C57      1.0000 0.39000  0.23700  0.58500  Biso   1.000  C
  C58      1.0000 0.89000  0.26300  0.08500  Biso   1.000  C
  C59      1.0000 0.61000  0.76300  0.41500  Biso   1.000  C
  C60      1.0000 0.11000  0.73700  0.91500  Biso   1.000  C
  O17      1.0000 0.50900  0.46700  0.43900  Biso   1.000  O
  O18      1.0000 0.00900  0.03300  0.93900  Biso   1.000  O
  O19      1.0000 0.49100  0.53300  0.56100  Biso   1.000  O
  O20      1.0000 0.99100  0.96700  0.06100  Biso   1.000  O
