data_image0
_cell_length_a       15.637
_cell_length_b       15.43
_cell_length_c       13.332
_cell_angle_alpha    90
_cell_angle_beta     116.692
_cell_angle_gamma    90

_symmetry_space_group_name_H-M    "P 1"
_symmetry_int_tables_number       1

loop_
  _symmetry_equiv_pos_as_xyz
  'x, y, z'

loop_
  _atom_site_label
  _atom_site_occupancy
  _atom_site_fract_x
  _atom_site_fract_y
  _atom_site_fract_z
  _atom_site_thermal_displace_type
  _atom_site_B_iso_or_equiv
  _atom_site_type_symbol
  Cu1      1.0000 0.66085  0.72504  0.95320  Biso   1.000  Cu
  Cu2      1.0000 0.16085  0.22504  0.95320  Biso   1.000  Cu
  Cu3      1.0000 0.66085  0.27496  0.45320  Biso   1.000  Cu
  Cu4      1.0000 0.16085  0.77496  0.45320  Biso   1.000  Cu
  Cu5      1.0000 0.33915  0.27496  0.04680  Biso   1.000  Cu
  Cu6      1.0000 0.83915  0.77496  0.04680  Biso   1.000  Cu
  Cu7      1.0000 0.33915  0.72504  0.54680  Biso   1.000  Cu
  Cu8      1.0000 0.83915  0.22504  0.54680  Biso   1.000  Cu
  S1       1.0000 0.76878  0.00449  0.76723  Biso   1.000  S
  S2       1.0000 0.26878  0.50449  0.76723  Biso   1.000  S
  S3       1.0000 0.76878  0.99551  0.26723  Biso   1.000  S
  S4       1.0000 0.26878  0.49551  0.26723  Biso   1.000  S
  S5       1.0000 0.23122  0.99551  0.23277  Biso   1.000  S
  S6       1.0000 0.73122  0.49551  0.23277  Biso   1.000  S
  S7       1.0000 0.23122  0.00449  0.73277  Biso   1.000  S
  S8       1.0000 0.73122  0.50449  0.73277  Biso   1.000  S
  O1       1.0000 0.64180  0.81770  0.84410  Biso   1.000  O
  O2       1.0000 0.14180  0.31770  0.84410  Biso   1.000  O
  O3       1.0000 0.64180  0.18230  0.34410  Biso   1.000  O
  O4       1.0000 0.14180  0.68230  0.34410  Biso   1.000  O
  O5       1.0000 0.35820  0.18230  0.15590  Biso   1.000  O
  O6       1.0000 0.85820  0.68230  0.15590  Biso   1.000  O
  O7       1.0000 0.35820  0.81770  0.65590  Biso   1.000  O
  O8       1.0000 0.85820  0.31770  0.65590  Biso   1.000  O
  O9       1.0000 0.64300  0.18650  0.54670  Biso   1.000  O
  O10      1.0000 0.14300  0.68650  0.54670  Biso   1.000  O
  O11      1.0000 0.64300  0.81350  0.04670  Biso   1.000  O
  O12      1.0000 0.14300  0.31350  0.04670  Biso   1.000  O
  O13      1.0000 0.35700  0.81350  0.45330  Biso   1.000  O
  O14      1.0000 0.85700  0.31350  0.45330  Biso   1.000  O
  O15      1.0000 0.35700  0.18650  0.95330  Biso   1.000  O
  O16      1.0000 0.85700  0.68650  0.95330  Biso   1.000  O
  O17      1.0000 0.51520  0.68200  0.86520  Biso   1.000  O
  O18      1.0000 0.01520  0.18200  0.86520  Biso   1.000  O
  O19      1.0000 0.51520  0.31800  0.36520  Biso   1.000  O
  O20      1.0000 0.01520  0.81800  0.36520  Biso   1.000  O
  O21      1.0000 0.48480  0.31800  0.13480  Biso   1.000  O
  O22      1.0000 0.98480  0.81800  0.13480  Biso   1.000  O
  O23      1.0000 0.48480  0.68200  0.63480  Biso   1.000  O
  O24      1.0000 0.98480  0.18200  0.63480  Biso   1.000  O
  O25      1.0000 0.79490  0.85870  0.92220  Biso   1.000  O
  O26      1.0000 0.29490  0.35870  0.92220  Biso   1.000  O
  O27      1.0000 0.79490  0.14130  0.42220  Biso   1.000  O
  O28      1.0000 0.29490  0.64130  0.42220  Biso   1.000  O
  O29      1.0000 0.20510  0.14130  0.07780  Biso   1.000  O
  O30      1.0000 0.70510  0.64130  0.07780  Biso   1.000  O
  O31      1.0000 0.20510  0.85870  0.57780  Biso   1.000  O
  O32      1.0000 0.70510  0.35870  0.57780  Biso   1.000  O
  O33      1.0000 0.79750  0.14490  0.63050  Biso   1.000  O
  O34      1.0000 0.29750  0.64490  0.63050  Biso   1.000  O
  O35      1.0000 0.79750  0.85510  0.13050  Biso   1.000  O
  O36      1.0000 0.29750  0.35510  0.13050  Biso   1.000  O
  O37      1.0000 0.20250  0.85510  0.36950  Biso   1.000  O
  O38      1.0000 0.70250  0.35510  0.36950  Biso   1.000  O
  O39      1.0000 0.20250  0.14490  0.86950  Biso   1.000  O
  O40      1.0000 0.70250  0.64490  0.86950  Biso   1.000  O
  C1       1.0000 0.70900  0.86490  0.85250  Biso   1.000  C
  C2       1.0000 0.20900  0.36490  0.85250  Biso   1.000  C
  C3       1.0000 0.70900  0.13510  0.35250  Biso   1.000  C
  C4       1.0000 0.20900  0.63510  0.35250  Biso   1.000  C
  C5       1.0000 0.29100  0.13510  0.14750  Biso   1.000  C
  C6       1.0000 0.79100  0.63510  0.14750  Biso   1.000  C
  C7       1.0000 0.29100  0.86490  0.64750  Biso   1.000  C
  C8       1.0000 0.79100  0.36490  0.64750  Biso   1.000  C
  C9       1.0000 0.71170  0.13820  0.60850  Biso   1.000  C
  C10      1.0000 0.21170  0.63820  0.60850  Biso   1.000  C
  C11      1.0000 0.71170  0.86180  0.10850  Biso   1.000  C
  C12      1.0000 0.21170  0.36180  0.10850  Biso   1.000  C
  C13      1.0000 0.28830  0.86180  0.39150  Biso   1.000  C
  C14      1.0000 0.78830  0.36180  0.39150  Biso   1.000  C
  C15      1.0000 0.28830  0.13820  0.89150  Biso   1.000  C
  C16      1.0000 0.78830  0.63820  0.89150  Biso   1.000  C
  C17      1.0000 0.68220  0.93700  0.76860  Biso   1.000  C
  C18      1.0000 0.18220  0.43700  0.76860  Biso   1.000  C
  C19      1.0000 0.68220  0.06300  0.26860  Biso   1.000  C
  C20      1.0000 0.18220  0.56300  0.26860  Biso   1.000  C
  C21      1.0000 0.31780  0.06300  0.23140  Biso   1.000  C
  C22      1.0000 0.81780  0.56300  0.23140  Biso   1.000  C
  C23      1.0000 0.31780  0.93700  0.73140  Biso   1.000  C
  C24      1.0000 0.81780  0.43700  0.73140  Biso   1.000  C
  C25      1.0000 0.68360  0.06340  0.65990  Biso   1.000  C
  C26      1.0000 0.18360  0.56340  0.65990  Biso   1.000  C
  C27      1.0000 0.68360  0.93660  0.15990  Biso   1.000  C
  C28      1.0000 0.18360  0.43660  0.15990  Biso   1.000  C
  C29      1.0000 0.31640  0.93660  0.34010  Biso   1.000  C
  C30      1.0000 0.81640  0.43660  0.34010  Biso   1.000  C
  C31      1.0000 0.31640  0.06340  0.84010  Biso   1.000  C
  C32      1.0000 0.81640  0.56340  0.84010  Biso   1.000  C
  C33      1.0000 0.59290  0.95960  0.69150  Biso   1.000  C
  C34      1.0000 0.09290  0.45960  0.69150  Biso   1.000  C
  C35      1.0000 0.59290  0.04040  0.19150  Biso   1.000  C
  C36      1.0000 0.09290  0.54040  0.19150  Biso   1.000  C
  C37      1.0000 0.40710  0.04040  0.30850  Biso   1.000  C
  C38      1.0000 0.90710  0.54040  0.30850  Biso   1.000  C
  C39      1.0000 0.40710  0.95960  0.80850  Biso   1.000  C
  C40      1.0000 0.90710  0.45960  0.80850  Biso   1.000  C
  H1       1.0000 0.53650  0.92950  0.68080  Biso   1.000  H
  H2       1.0000 0.03650  0.42950  0.68080  Biso   1.000  H
  H3       1.0000 0.53650  0.07050  0.18080  Biso   1.000  H
  H4       1.0000 0.03650  0.57050  0.18080  Biso   1.000  H
  H5       1.0000 0.46350  0.07050  0.31920  Biso   1.000  H
  H6       1.0000 0.96350  0.57050  0.31920  Biso   1.000  H
  H7       1.0000 0.46350  0.92950  0.81920  Biso   1.000  H
  H8       1.0000 0.96350  0.42950  0.81920  Biso   1.000  H
  C41      1.0000 0.59370  0.03310  0.62890  Biso   1.000  C
  C42      1.0000 0.09370  0.53310  0.62890  Biso   1.000  C
  C43      1.0000 0.59370  0.96690  0.12890  Biso   1.000  C
  C44      1.0000 0.09370  0.46690  0.12890  Biso   1.000  C
  C45      1.0000 0.40630  0.96690  0.37110  Biso   1.000  C
  C46      1.0000 0.90630  0.46690  0.37110  Biso   1.000  C
  C47      1.0000 0.40630  0.03310  0.87110  Biso   1.000  C
  C48      1.0000 0.90630  0.53310  0.87110  Biso   1.000  C
  H9       1.0000 0.53780  0.05850  0.57150  Biso   1.000  H
  H10      1.0000 0.03780  0.55850  0.57150  Biso   1.000  H
  H11      1.0000 0.53780  0.94150  0.07150  Biso   1.000  H
  H12      1.0000 0.03780  0.44150  0.07150  Biso   1.000  H
  H13      1.0000 0.46220  0.94150  0.42850  Biso   1.000  H
  H14      1.0000 0.96220  0.44150  0.42850  Biso   1.000  H
  H15      1.0000 0.46220  0.05850  0.92850  Biso   1.000  H
  H16      1.0000 0.96220  0.55850  0.92850  Biso   1.000  H
  C49      1.0000 0.44720  0.71530  0.89730  Biso   1.000  C
  C50      1.0000 0.94720  0.21530  0.89730  Biso   1.000  C
  C51      1.0000 0.44720  0.28470  0.39730  Biso   1.000  C
  C52      1.0000 0.94720  0.78470  0.39730  Biso   1.000  C
  C53      1.0000 0.55280  0.28470  0.10270  Biso   1.000  C
  C54      1.0000 0.05280  0.78470  0.10270  Biso   1.000  C
  C55      1.0000 0.55280  0.71530  0.60270  Biso   1.000  C
  C56      1.0000 0.05280  0.21530  0.60270  Biso   1.000  C
  H17      1.0000 0.46380  0.69730  0.97440  Biso   1.000  H
  H18      1.0000 0.96380  0.19730  0.97440  Biso   1.000  H
  H19      1.0000 0.46380  0.30270  0.47440  Biso   1.000  H
  H20      1.0000 0.96380  0.80270  0.47440  Biso   1.000  H
  H21      1.0000 0.53620  0.30270  0.02560  Biso   1.000  H
  H22      1.0000 0.03620  0.80270  0.02560  Biso   1.000  H
  H23      1.0000 0.53620  0.69730  0.52560  Biso   1.000  H
  H24      1.0000 0.03620  0.19730  0.52560  Biso   1.000  H
  H25      1.0000 0.38350  0.69310  0.84660  Biso   1.000  H
  H26      1.0000 0.88350  0.19310  0.84660  Biso   1.000  H
  H27      1.0000 0.38350  0.30690  0.34660  Biso   1.000  H
  H28      1.0000 0.88350  0.80690  0.34660  Biso   1.000  H
  H29      1.0000 0.61650  0.30690  0.15340  Biso   1.000  H
  H30      1.0000 0.11650  0.80690  0.15340  Biso   1.000  H
  H31      1.0000 0.61650  0.69310  0.65340  Biso   1.000  H
  H32      1.0000 0.11650  0.19310  0.65340  Biso   1.000  H
  H33      1.0000 0.44690  0.77880  0.89330  Biso   1.000  H
  H34      1.0000 0.94690  0.27880  0.89330  Biso   1.000  H
  H35      1.0000 0.44690  0.22120  0.39330  Biso   1.000  H
  H36      1.0000 0.94690  0.72120  0.39330  Biso   1.000  H
  H37      1.0000 0.55310  0.22120  0.10670  Biso   1.000  H
  H38      1.0000 0.05310  0.72120  0.10670  Biso   1.000  H
  H39      1.0000 0.55310  0.77880  0.60670  Biso   1.000  H
  H40      1.0000 0.05310  0.27880  0.60670  Biso   1.000  H
  O41      1.0000 0.01280  0.01080  0.90760  Biso   1.000  O
  O42      1.0000 0.51280  0.51080  0.90760  Biso   1.000  O
  O43      1.0000 0.01280  0.98920  0.40760  Biso   1.000  O
  O44      1.0000 0.51280  0.48920  0.40760  Biso   1.000  O
  O45      1.0000 0.98720  0.98920  0.09240  Biso   1.000  O
  O46      1.0000 0.48720  0.48920  0.09240  Biso   1.000  O
  O47      1.0000 0.98720  0.01080  0.59240  Biso   1.000  O
  O48      1.0000 0.48720  0.51080  0.59240  Biso   1.000  O
  C57      1.0000 0.25330  0.78290  0.96480  Biso   1.000  C
  C58      1.0000 0.75330  0.28290  0.96480  Biso   1.000  C
  C59      1.0000 0.25330  0.21710  0.46480  Biso   1.000  C
  C60      1.0000 0.75330  0.71710  0.46480  Biso   1.000  C
  C61      1.0000 0.74670  0.21710  0.03520  Biso   1.000  C
  C62      1.0000 0.24670  0.71710  0.03520  Biso   1.000  C
  C63      1.0000 0.74670  0.78290  0.53520  Biso   1.000  C
  C64      1.0000 0.24670  0.28290  0.53520  Biso   1.000  C
  C65      1.0000 0.12760  0.71130  0.80450  Biso   1.000  C
  C66      1.0000 0.62760  0.21130  0.80450  Biso   1.000  C
  C67      1.0000 0.12760  0.28870  0.30450  Biso   1.000  C
  C68      1.0000 0.62760  0.78870  0.30450  Biso   1.000  C
  C69      1.0000 0.87240  0.28870  0.19550  Biso   1.000  C
  C70      1.0000 0.37240  0.78870  0.19550  Biso   1.000  C
  C71      1.0000 0.87240  0.71130  0.69550  Biso   1.000  C
  C72      1.0000 0.37240  0.21130  0.69550  Biso   1.000  C
  H41      1.0000 0.08670  0.70860  0.72610  Biso   1.000  H
  H42      1.0000 0.58670  0.20860  0.72610  Biso   1.000  H
  H43      1.0000 0.08670  0.29140  0.22610  Biso   1.000  H
  H44      1.0000 0.58670  0.79140  0.22610  Biso   1.000  H
  H45      1.0000 0.91330  0.29140  0.27390  Biso   1.000  H
  H46      1.0000 0.41330  0.79140  0.27390  Biso   1.000  H
  H47      1.0000 0.91330  0.70860  0.77390  Biso   1.000  H
  H48      1.0000 0.41330  0.20860  0.77390  Biso   1.000  H
  C73      1.0000 0.19100  0.77930  0.84910  Biso   1.000  C
  C74      1.0000 0.69100  0.27930  0.84910  Biso   1.000  C
  C75      1.0000 0.19100  0.22070  0.34910  Biso   1.000  C
  C76      1.0000 0.69100  0.72070  0.34910  Biso   1.000  C
  C77      1.0000 0.80900  0.22070  0.15090  Biso   1.000  C
  C78      1.0000 0.30900  0.72070  0.15090  Biso   1.000  C
  C79      1.0000 0.80900  0.77930  0.65090  Biso   1.000  C
  C80      1.0000 0.30900  0.27930  0.65090  Biso   1.000  C
  H49      1.0000 0.19260  0.82410  0.80110  Biso   1.000  H
  H50      1.0000 0.69260  0.32410  0.80110  Biso   1.000  H
  H51      1.0000 0.19260  0.17590  0.30110  Biso   1.000  H
  H52      1.0000 0.69260  0.67590  0.30110  Biso   1.000  H
  H53      1.0000 0.80740  0.17590  0.19890  Biso   1.000  H
  H54      1.0000 0.30740  0.67590  0.19890  Biso   1.000  H
  H55      1.0000 0.80740  0.82410  0.69890  Biso   1.000  H
  H56      1.0000 0.30740  0.32410  0.69890  Biso   1.000  H
  C81      1.0000 0.12430  0.64630  0.87610  Biso   1.000  C
  C82      1.0000 0.62430  0.14630  0.87610  Biso   1.000  C
  C83      1.0000 0.12430  0.35370  0.37610  Biso   1.000  C
  C84      1.0000 0.62430  0.85370  0.37610  Biso   1.000  C
  C85      1.0000 0.87570  0.35370  0.12390  Biso   1.000  C
  C86      1.0000 0.37570  0.85370  0.12390  Biso   1.000  C
  C87      1.0000 0.87570  0.64630  0.62390  Biso   1.000  C
  C88      1.0000 0.37570  0.14630  0.62390  Biso   1.000  C
  H57      1.0000 0.08030  0.59970  0.84560  Biso   1.000  H
  H58      1.0000 0.58030  0.09970  0.84560  Biso   1.000  H
  H59      1.0000 0.08030  0.40030  0.34560  Biso   1.000  H
  H60      1.0000 0.58030  0.90030  0.34560  Biso   1.000  H
  H61      1.0000 0.91970  0.40030  0.15440  Biso   1.000  H
  H62      1.0000 0.41970  0.90030  0.15440  Biso   1.000  H
  H63      1.0000 0.91970  0.59970  0.65440  Biso   1.000  H
  H64      1.0000 0.41970  0.09970  0.65440  Biso   1.000  H
  C89      1.0000 0.31770  0.85140  0.01250  Biso   1.000  C
  C90      1.0000 0.81770  0.35140  0.01250  Biso   1.000  C
  C91      1.0000 0.31770  0.14860  0.51250  Biso   1.000  C
  C92      1.0000 0.81770  0.64860  0.51250  Biso   1.000  C
  C93      1.0000 0.68230  0.14860  0.98750  Biso   1.000  C
  C94      1.0000 0.18230  0.64860  0.98750  Biso   1.000  C
  C95      1.0000 0.68230  0.85140  0.48750  Biso   1.000  C
  C96      1.0000 0.18230  0.35140  0.48750  Biso   1.000  C
  H65      1.0000 0.32050  0.89670  0.96590  Biso   1.000  H
  H66      1.0000 0.82050  0.39670  0.96590  Biso   1.000  H
  H67      1.0000 0.32050  0.10330  0.46590  Biso   1.000  H
  H68      1.0000 0.82050  0.60330  0.46590  Biso   1.000  H
  H69      1.0000 0.67950  0.10330  0.03410  Biso   1.000  H
  H70      1.0000 0.17950  0.60330  0.03410  Biso   1.000  H
  H71      1.0000 0.67950  0.89670  0.53410  Biso   1.000  H
  H72      1.0000 0.17950  0.39670  0.53410  Biso   1.000  H
  C97      1.0000 0.08490  0.95630  0.90490  Biso   1.000  C
  C98      1.0000 0.58490  0.45630  0.90490  Biso   1.000  C
  C99      1.0000 0.08490  0.04370  0.40490  Biso   1.000  C
  C100     1.0000 0.58490  0.54370  0.40490  Biso   1.000  C
  C101     1.0000 0.91510  0.04370  0.09510  Biso   1.000  C
  C102     1.0000 0.41510  0.54370  0.09510  Biso   1.000  C
  C103     1.0000 0.91510  0.95630  0.59510  Biso   1.000  C
  C104     1.0000 0.41510  0.45630  0.59510  Biso   1.000  C
  H73      1.0000 0.09630  0.97200  0.84060  Biso   1.000  H
  H74      1.0000 0.59630  0.47200  0.84060  Biso   1.000  H
  H75      1.0000 0.09630  0.02800  0.34060  Biso   1.000  H
  H76      1.0000 0.59630  0.52800  0.34060  Biso   1.000  H
  H77      1.0000 0.90370  0.02800  0.15940  Biso   1.000  H
  H78      1.0000 0.40370  0.52800  0.15940  Biso   1.000  H
  H79      1.0000 0.90370  0.97200  0.65940  Biso   1.000  H
  H80      1.0000 0.40370  0.47200  0.65940  Biso   1.000  H
  H81      1.0000 0.06390  0.89580  0.89760  Biso   1.000  H
  H82      1.0000 0.56390  0.39580  0.89760  Biso   1.000  H
  H83      1.0000 0.06390  0.10420  0.39760  Biso   1.000  H
  H84      1.0000 0.56390  0.60420  0.39760  Biso   1.000  H
  H85      1.0000 0.93610  0.10420  0.10240  Biso   1.000  H
  H86      1.0000 0.43610  0.60420  0.10240  Biso   1.000  H
  H87      1.0000 0.93610  0.89580  0.60240  Biso   1.000  H
  H88      1.0000 0.43610  0.39580  0.60240  Biso   1.000  H
  H89      1.0000 0.14420  0.96340  0.97440  Biso   1.000  H
  H90      1.0000 0.64420  0.46340  0.97440  Biso   1.000  H
  H91      1.0000 0.14420  0.03660  0.47440  Biso   1.000  H
  H92      1.0000 0.64420  0.53660  0.47440  Biso   1.000  H
  H93      1.0000 0.85580  0.03660  0.02560  Biso   1.000  H
  H94      1.0000 0.35580  0.53660  0.02560  Biso   1.000  H
  H95      1.0000 0.85580  0.96340  0.52560  Biso   1.000  H
  H96      1.0000 0.35580  0.46340  0.52560  Biso   1.000  H
