data_image0
_cell_length_a       7.4582
_cell_length_b       9.4917
_cell_length_c       9.6997
_cell_angle_alpha    113.399
_cell_angle_beta     106.638
_cell_angle_gamma    98.603

_symmetry_space_group_name_H-M    "P 1"
_symmetry_int_tables_number       1

loop_
  _symmetry_equiv_pos_as_xyz
  'x, y, z'

loop_
  _atom_site_label
  _atom_site_occupancy
  _atom_site_fract_x
  _atom_site_fract_y
  _atom_site_fract_z
  _atom_site_thermal_displace_type
  _atom_site_B_iso_or_equiv
  _atom_site_type_symbol
  Cu1      1.0000 0.00000  0.00000  0.00000  Biso   1.000  Cu
  O1       1.0000 0.92370  0.30740  0.67043  Biso   1.000  O
  O2       1.0000 0.07630  0.69260  0.32957  Biso   1.000  O
  O3       1.0000 0.72350  0.92460  0.08030  Biso   1.000  O
  O4       1.0000 0.27650  0.07540  0.91970  Biso   1.000  O
  O5       1.0000 0.45670  0.87330  0.11960  Biso   1.000  O
  O6       1.0000 0.54330  0.12670  0.88040  Biso   1.000  O
  O7       1.0000 0.46770  0.72970  0.88560  Biso   1.000  O
  O8       1.0000 0.53230  0.27030  0.11440  Biso   1.000  O
  O9       1.0000 0.06770  0.79700  0.93265  Biso   1.000  O
  O10      1.0000 0.93230  0.20300  0.06735  Biso   1.000  O
  O11      1.0000 0.79760  0.54160  0.85560  Biso   1.000  O
  O12      1.0000 0.20240  0.45840  0.14440  Biso   1.000  O
  O13      1.0000 0.30220  0.43040  0.88960  Biso   1.000  O
  O14      1.0000 0.69780  0.56960  0.11040  Biso   1.000  O
  N1       1.0000 0.83230  0.92540  0.76580  Biso   1.000  N
  N2       1.0000 0.16770  0.07460  0.23420  Biso   1.000  N
  N3       1.0000 0.77540  0.05970  0.44960  Biso   1.000  N
  N4       1.0000 0.22460  0.94030  0.55040  Biso   1.000  N
  H1       1.0000 0.73530  0.00700  0.34310  Biso   1.000  H
  H2       1.0000 0.26470  0.99300  0.65690  Biso   1.000  H
  N5       1.0000 0.85110  0.28510  0.41760  Biso   1.000  N
  N6       1.0000 0.14890  0.71490  0.58240  Biso   1.000  N
  H3       1.0000 0.82310  0.22090  0.31450  Biso   1.000  H
  H4       1.0000 0.17690  0.77910  0.68550  Biso   1.000  H
  N7       1.0000 0.54910  0.84110  0.02620  Biso   1.000  N
  N8       1.0000 0.45090  0.15890  0.97380  Biso   1.000  N
  C1       1.0000 0.69830  0.78050  0.67870  Biso   1.000  C
  C2       1.0000 0.30170  0.21950  0.32130  Biso   1.000  C
  H5       1.0000 0.67850  0.71610  0.73020  Biso   1.000  H
  H6       1.0000 0.32150  0.28390  0.26980  Biso   1.000  H
  C3       1.0000 0.58750  0.72180  0.51490  Biso   1.000  C
  C4       1.0000 0.41250  0.27820  0.48510  Biso   1.000  C
  H7       1.0000 0.49410  0.61790  0.45490  Biso   1.000  H
  H8       1.0000 0.50590  0.38210  0.54510  Biso   1.000  H
  C5       1.0000 0.61420  0.81580  0.43980  Biso   1.000  C
  C6       1.0000 0.38580  0.18420  0.56020  Biso   1.000  C
  H9       1.0000 0.54020  0.77670  0.32750  Biso   1.000  H
  H10      1.0000 0.45980  0.22330  0.67250  Biso   1.000  H
  C7       1.0000 0.75080  0.96840  0.53050  Biso   1.000  C
  C8       1.0000 0.24920  0.03160  0.46950  Biso   1.000  C
  C9       1.0000 0.85980  0.01870  0.69440  Biso   1.000  C
  C10      1.0000 0.14020  0.98130  0.30560  Biso   1.000  C
  H11      1.0000 0.95580  0.12130  0.75710  Biso   1.000  H
  H12      1.0000 0.04420  0.87870  0.24290  Biso   1.000  H
  C11      1.0000 0.85570  0.22250  0.52080  Biso   1.000  C
  C12      1.0000 0.14430  0.77750  0.47920  Biso   1.000  C
  C13      1.0000 0.89220  0.45910  0.47550  Biso   1.000  C
  C14      1.0000 0.10780  0.54090  0.52450  Biso   1.000  C
  H13      1.0000 0.85440  0.50610  0.57000  Biso   1.000  H
  H14      1.0000 0.14560  0.49390  0.43000  Biso   1.000  H
  H15      1.0000 0.81200  0.47920  0.38850  Biso   1.000  H
  H16      1.0000 0.18800  0.52080  0.61150  Biso   1.000  H
  H17      1.0000 0.19300  0.81300  0.99300  Biso   1.000  H
  H18      1.0000 0.80700  0.18700  0.00700  Biso   1.000  H
  H19      1.0000 0.84700  0.46200  0.81000  Biso   1.000  H
  H20      1.0000 0.15300  0.53800  0.19000  Biso   1.000  H
  H21      1.0000 0.18300  0.39300  0.80900  Biso   1.000  H
  H22      1.0000 0.81700  0.60700  0.19100  Biso   1.000  H
  H23      1.0000 0.98100  0.70900  0.91600  Biso   1.000  H
  H24      1.0000 0.01900  0.29100  0.08400  Biso   1.000  H
  H25      1.0000 0.75200  0.55300  0.93500  Biso   1.000  H
  H26      1.0000 0.24800  0.44700  0.06500  Biso   1.000  H
  H27      1.0000 0.37400  0.52500  0.90600  Biso   1.000  H
  H28      1.0000 0.62600  0.47500  0.09400  Biso   1.000  H
