data_image0
_cell_length_a       8.102
_cell_length_b       9.979
_cell_length_c       12.705
_cell_angle_alpha    86.282
_cell_angle_beta     73.517
_cell_angle_gamma    89.107

_symmetry_space_group_name_H-M    "P 1"
_symmetry_int_tables_number       1

loop_
  _symmetry_equiv_pos_as_xyz
  'x, y, z'

loop_
  _atom_site_label
  _atom_site_occupancy
  _atom_site_fract_x
  _atom_site_fract_y
  _atom_site_fract_z
  _atom_site_thermal_displace_type
  _atom_site_B_iso_or_equiv
  _atom_site_type_symbol
  Cu1      1.0000 0.89319  0.06996  0.95500  Biso   1.000  Cu
  Cu2      1.0000 0.10681  0.93004  0.04500  Biso   1.000  Cu
  O1       1.0000 0.78490  0.89940  0.94660  Biso   1.000  O
  O2       1.0000 0.21510  0.10060  0.05340  Biso   1.000  O
  O3       1.0000 0.96770  0.78240  0.01760  Biso   1.000  O
  O4       1.0000 0.03230  0.21760  0.98240  Biso   1.000  O
  O5       1.0000 0.08160  0.03470  0.82170  Biso   1.000  O
  O6       1.0000 0.91840  0.96530  0.17830  Biso   1.000  O
  O7       1.0000 0.26380  0.92090  0.89440  Biso   1.000  O
  O8       1.0000 0.73620  0.07910  0.10560  Biso   1.000  O
  O9       1.0000 0.88390  0.51740  0.70060  Biso   1.000  O
  O10      1.0000 0.11610  0.48260  0.29940  Biso   1.000  O
  N1       1.0000 0.77190  0.19960  0.85830  Biso   1.000  N
  N2       1.0000 0.22810  0.80040  0.14170  Biso   1.000  N
  C1       1.0000 0.48080  0.55830  0.97250  Biso   1.000  C
  C2       1.0000 0.51920  0.44170  0.02750  Biso   1.000  C
  C3       1.0000 0.59010  0.67050  0.95440  Biso   1.000  C
  C4       1.0000 0.40990  0.32950  0.04560  Biso   1.000  C
  H1       1.0000 0.56460  0.74760  0.91690  Biso   1.000  H
  H2       1.0000 0.43540  0.25240  0.08310  Biso   1.000  H
  C5       1.0000 0.73270  0.66810  0.99090  Biso   1.000  C
  C6       1.0000 0.26730  0.33190  0.00910  Biso   1.000  C
  C7       1.0000 0.77440  0.54980  0.04520  Biso   1.000  C
  C8       1.0000 0.22560  0.45020  0.95480  Biso   1.000  C
  H3       1.0000 0.87320  0.54720  0.06880  Biso   1.000  H
  H4       1.0000 0.12680  0.45280  0.93120  Biso   1.000  H
  C9       1.0000 0.32950  0.56070  0.93680  Biso   1.000  C
  C10      1.0000 0.67050  0.43930  0.06320  Biso   1.000  C
  H5       1.0000 0.30110  0.63810  0.90090  Biso   1.000  H
  H6       1.0000 0.69890  0.36190  0.09910  Biso   1.000  H
  C11      1.0000 0.83800  0.79310  0.98280  Biso   1.000  C
  C12      1.0000 0.16200  0.20690  0.01720  Biso   1.000  C
  C13      1.0000 0.41600  0.02060  0.50540  Biso   1.000  C
  C14      1.0000 0.58400  0.97940  0.49460  Biso   1.000  C
  C15      1.0000 0.29810  0.01530  0.61300  Biso   1.000  C
  C16      1.0000 0.70190  0.98470  0.38700  Biso   1.000  C
  H7       1.0000 0.18540  0.04340  0.62140  Biso   1.000  H
  H8       1.0000 0.81460  0.95660  0.37860  Biso   1.000  H
  C17      1.0000 0.34510  0.97070  0.70340  Biso   1.000  C
  C18      1.0000 0.65490  0.02930  0.29660  Biso   1.000  C
  C19      1.0000 0.51380  0.92580  0.69030  Biso   1.000  C
  C20      1.0000 0.48620  0.07420  0.30970  Biso   1.000  C
  H9       1.0000 0.54600  0.89140  0.75130  Biso   1.000  H
  H10      1.0000 0.45400  0.10860  0.24870  Biso   1.000  H
  C21      1.0000 0.36820  0.06830  0.41090  Biso   1.000  C
  C22      1.0000 0.63180  0.93170  0.58910  Biso   1.000  C
  H11      1.0000 0.25570  0.09590  0.41770  Biso   1.000  H
  H12      1.0000 0.74430  0.90410  0.58230  Biso   1.000  H
  C23      1.0000 0.21910  0.97500  0.81590  Biso   1.000  C
  C24      1.0000 0.78090  0.02500  0.18410  Biso   1.000  C
  C25      1.0000 0.61990  0.17510  0.83920  Biso   1.000  C
  C26      1.0000 0.38010  0.82490  0.16080  Biso   1.000  C
  H13      1.0000 0.56020  0.09690  0.87100  Biso   1.000  H
  H14      1.0000 0.43980  0.90310  0.12900  Biso   1.000  H
  C27      1.0000 0.55070  0.25990  0.77550  Biso   1.000  C
  C28      1.0000 0.44930  0.74010  0.22450  Biso   1.000  C
  H15      1.0000 0.44480  0.24110  0.76490  Biso   1.000  H
  H16      1.0000 0.55520  0.75890  0.23510  Biso   1.000  H
  C29      1.0000 0.64050  0.37460  0.72690  Biso   1.000  C
  C30      1.0000 0.35950  0.62540  0.27310  Biso   1.000  C
  H17      1.0000 0.59600  0.43450  0.68280  Biso   1.000  H
  H18      1.0000 0.40400  0.56550  0.31720  Biso   1.000  H
  C31      1.0000 0.79560  0.39900  0.74420  Biso   1.000  C
  C32      1.0000 0.20440  0.60100  0.25580  Biso   1.000  C
  C33      1.0000 0.85380  0.31090  0.81170  Biso   1.000  C
  C34      1.0000 0.14620  0.68910  0.18830  Biso   1.000  C
  H19      1.0000 0.95710  0.33030  0.82580  Biso   1.000  H
  H20      1.0000 0.04290  0.66970  0.17420  Biso   1.000  H
  C35      1.0000 0.05670  0.50720  0.64640  Biso   1.000  C
  C36      1.0000 0.94330  0.49280  0.35360  Biso   1.000  C
  C37      1.0000 0.15990  0.61300  0.64520  Biso   1.000  C
  C38      1.0000 0.84010  0.38700  0.35480  Biso   1.000  C
  H21      1.0000 0.11450  0.68820  0.68280  Biso   1.000  H
  H22      1.0000 0.88550  0.31180  0.31720  Biso   1.000  H
  C39      1.0000 0.33290  0.60960  0.58810  Biso   1.000  C
  C40      1.0000 0.66710  0.39040  0.41190  Biso   1.000  C
  H23      1.0000 0.40170  0.68320  0.58850  Biso   1.000  H
  H24      1.0000 0.59830  0.31680  0.41150  Biso   1.000  H
  C41      1.0000 0.40720  0.50020  0.53050  Biso   1.000  C
  C42      1.0000 0.59280  0.49980  0.46950  Biso   1.000  C
  C43      1.0000 0.29750  0.39840  0.53340  Biso   1.000  C
  C44      1.0000 0.70250  0.60160  0.46660  Biso   1.000  C
  H25      1.0000 0.34120  0.32330  0.49510  Biso   1.000  H
  H26      1.0000 0.65880  0.67670  0.50490  Biso   1.000  H
  C45      1.0000 0.12430  0.39920  0.59000  Biso   1.000  C
  C46      1.0000 0.87570  0.60080  0.41000  Biso   1.000  C
  H27      1.0000 0.05480  0.32610  0.58940  Biso   1.000  H
  H28      1.0000 0.94520  0.67390  0.41060  Biso   1.000  H
