data_image0
_cell_length_a       10.1423
_cell_length_b       6.3388
_cell_length_c       3.4841
_cell_angle_alpha    99.17
_cell_angle_beta     96.567
_cell_angle_gamma    98.76

_symmetry_space_group_name_H-M    "P 1"
_symmetry_int_tables_number       1

loop_
  _symmetry_equiv_pos_as_xyz
  'x, y, z'

loop_
  _atom_site_label
  _atom_site_occupancy
  _atom_site_fract_x
  _atom_site_fract_y
  _atom_site_fract_z
  _atom_site_thermal_displace_type
  _atom_site_B_iso_or_equiv
  _atom_site_type_symbol
  Cu1      1.0000 0.00000  0.00000  0.00000  Biso   1.000  Cu
  Cu2      1.0000 0.00000  0.50000  0.50000  Biso   1.000  Cu
  O1       1.0000 0.19370  0.15310  0.08420  Biso   1.000  O
  O2       1.0000 0.80630  0.84690  0.91580  Biso   1.000  O
  O3       1.0000 0.15940  0.49520  0.19430  Biso   1.000  O
  O4       1.0000 0.84060  0.50480  0.80570  Biso   1.000  O
  O5       1.0000 0.94270  0.17670  0.39890  Biso   1.000  O
  O6       1.0000 0.05730  0.82330  0.60110  Biso   1.000  O
  C1       1.0000 0.38170  0.44320  0.06800  Biso   1.000  C
  C2       1.0000 0.61830  0.55680  0.93200  Biso   1.000  C
  C3       1.0000 0.41840  0.67040  0.12660  Biso   1.000  C
  C4       1.0000 0.58160  0.32960  0.87340  Biso   1.000  C
  C5       1.0000 0.45320  0.26710  0.96100  Biso   1.000  C
  C6       1.0000 0.54680  0.73290  0.03900  Biso   1.000  C
  C7       1.0000 0.23590  0.35880  0.12560  Biso   1.000  C
  C8       1.0000 0.76410  0.64120  0.87440  Biso   1.000  C
