data_image0
_cell_length_a       7.0253
_cell_length_b       9.7633
_cell_length_c       49.008
_cell_angle_alpha    90
_cell_angle_beta     90
_cell_angle_gamma    90

_symmetry_space_group_name_H-M    "P 1"
_symmetry_int_tables_number       1

loop_
  _symmetry_equiv_pos_as_xyz
  'x, y, z'

loop_
  _atom_site_label
  _atom_site_occupancy
  _atom_site_fract_x
  _atom_site_fract_y
  _atom_site_fract_z
  _atom_site_thermal_displace_type
  _atom_site_B_iso_or_equiv
  _atom_site_type_symbol
  Cu1      1.0000 0.18514  0.37018  0.85610  Biso   1.000  Cu
  Cu2      1.0000 0.31486  0.62982  0.35610  Biso   1.000  Cu
  Cu3      1.0000 0.81486  0.87018  0.64390  Biso   1.000  Cu
  Cu4      1.0000 0.68514  0.12982  0.14390  Biso   1.000  Cu
  Cu5      1.0000 0.69285  0.37292  0.89294  Biso   1.000  Cu
  Cu6      1.0000 0.80715  0.62708  0.39294  Biso   1.000  Cu
  Cu7      1.0000 0.30715  0.87292  0.60706  Biso   1.000  Cu
  Cu8      1.0000 0.19285  0.12708  0.10706  Biso   1.000  Cu
  C1       1.0000 0.21900  0.21670  0.80234  Biso   1.000  C
  C2       1.0000 0.28100  0.78330  0.30234  Biso   1.000  C
  C3       1.0000 0.78100  0.71670  0.69766  Biso   1.000  C
  C4       1.0000 0.71900  0.28330  0.19766  Biso   1.000  C
  H1       1.0000 0.20470  0.30200  0.79410  Biso   1.000  H
  H2       1.0000 0.29530  0.69800  0.29410  Biso   1.000  H
  H3       1.0000 0.79530  0.80200  0.70590  Biso   1.000  H
  H4       1.0000 0.70470  0.19800  0.20590  Biso   1.000  H
  C5       1.0000 0.22410  0.10230  0.78630  Biso   1.000  C
  C6       1.0000 0.27590  0.89770  0.28630  Biso   1.000  C
  C7       1.0000 0.77590  0.60230  0.71370  Biso   1.000  C
  C8       1.0000 0.72410  0.39770  0.21370  Biso   1.000  C
  C9       1.0000 0.19490  0.10390  0.75592  Biso   1.000  C
  C10      1.0000 0.30510  0.89610  0.25592  Biso   1.000  C
  C11      1.0000 0.80510  0.60390  0.74408  Biso   1.000  C
  C12      1.0000 0.69490  0.39610  0.24408  Biso   1.000  C
  H5       1.0000 0.17780  0.19500  0.74790  Biso   1.000  H
  H6       1.0000 0.32220  0.80500  0.24790  Biso   1.000  H
  H7       1.0000 0.82220  0.69500  0.75210  Biso   1.000  H
  H8       1.0000 0.67780  0.30500  0.25210  Biso   1.000  H
  C13      1.0000 0.34920  0.00980  0.74126  Biso   1.000  C
  C14      1.0000 0.15080  0.99020  0.24126  Biso   1.000  C
  C15      1.0000 0.65080  0.50980  0.75874  Biso   1.000  C
  C16      1.0000 0.84920  0.49020  0.25874  Biso   1.000  C
  C17      1.0000 0.55140  0.00280  0.75227  Biso   1.000  C
  C18      1.0000 0.94860  0.99720  0.25227  Biso   1.000  C
  C19      1.0000 0.44860  0.50280  0.74773  Biso   1.000  C
  C20      1.0000 0.05140  0.49720  0.24773  Biso   1.000  C
  H9       1.0000 0.62170  0.93430  0.74240  Biso   1.000  H
  H10      1.0000 0.87830  0.06570  0.24240  Biso   1.000  H
  H11      1.0000 0.37830  0.43430  0.75760  Biso   1.000  H
  H12      1.0000 0.12170  0.56570  0.25760  Biso   1.000  H
  H13      1.0000 0.54830  0.97950  0.77130  Biso   1.000  H
  H14      1.0000 0.95170  0.02050  0.27130  Biso   1.000  H
  H15      1.0000 0.45170  0.47950  0.72870  Biso   1.000  H
  H16      1.0000 0.04830  0.52050  0.22870  Biso   1.000  H
  H17      1.0000 0.61200  0.09020  0.75000  Biso   1.000  H
  H18      1.0000 0.88800  0.90980  0.25000  Biso   1.000  H
  H19      1.0000 0.38800  0.59020  0.75000  Biso   1.000  H
  H20      1.0000 0.11200  0.40980  0.25000  Biso   1.000  H
  C21      1.0000 0.04800  0.99910  0.74777  Biso   1.000  C
  C22      1.0000 0.45200  0.00090  0.24777  Biso   1.000  C
  C23      1.0000 0.95200  0.49910  0.75223  Biso   1.000  C
  C24      1.0000 0.54800  0.50090  0.25223  Biso   1.000  C
  H21      1.0000 0.99950  0.00960  0.72940  Biso   1.000  H
  H22      1.0000 0.50050  0.99040  0.22940  Biso   1.000  H
  H23      1.0000 0.00050  0.50960  0.77060  Biso   1.000  H
  H24      1.0000 0.49950  0.49040  0.27060  Biso   1.000  H
  H25      1.0000 0.94590  0.98670  0.76090  Biso   1.000  H
  H26      1.0000 0.55410  0.01330  0.26090  Biso   1.000  H
  H27      1.0000 0.05410  0.48670  0.73910  Biso   1.000  H
  H28      1.0000 0.44590  0.51330  0.23910  Biso   1.000  H
  C25      1.0000 0.35130  0.03180  0.71045  Biso   1.000  C
  C26      1.0000 0.14870  0.96820  0.21045  Biso   1.000  C
  C27      1.0000 0.64870  0.53180  0.78955  Biso   1.000  C
  C28      1.0000 0.85130  0.46820  0.28955  Biso   1.000  C
  H29      1.0000 0.45770  0.98410  0.70270  Biso   1.000  H
  H30      1.0000 0.04230  0.01590  0.20270  Biso   1.000  H
  H31      1.0000 0.54230  0.48410  0.79730  Biso   1.000  H
  H32      1.0000 0.95770  0.51590  0.29730  Biso   1.000  H
  H33      1.0000 0.36210  0.12780  0.70660  Biso   1.000  H
  H34      1.0000 0.13790  0.87220  0.20660  Biso   1.000  H
  H35      1.0000 0.63790  0.62780  0.79340  Biso   1.000  H
  H36      1.0000 0.86210  0.37220  0.29340  Biso   1.000  H
  H37      1.0000 0.23530  0.99710  0.70270  Biso   1.000  H
  H38      1.0000 0.26470  0.00290  0.20270  Biso   1.000  H
  H39      1.0000 0.76470  0.49710  0.79730  Biso   1.000  H
  H40      1.0000 0.73530  0.50290  0.29730  Biso   1.000  H
  C29      1.0000 0.21710  0.89340  0.75064  Biso   1.000  C
  C30      1.0000 0.28290  0.10660  0.25064  Biso   1.000  C
  C31      1.0000 0.78290  0.39340  0.74936  Biso   1.000  C
  C32      1.0000 0.71710  0.60660  0.24936  Biso   1.000  C
  H41      1.0000 0.20990  0.81670  0.73780  Biso   1.000  H
  H42      1.0000 0.29010  0.18330  0.23780  Biso   1.000  H
  H43      1.0000 0.79010  0.31670  0.76220  Biso   1.000  H
  H44      1.0000 0.70990  0.68330  0.26220  Biso   1.000  H
  C33      1.0000 0.24980  0.84990  0.78001  Biso   1.000  C
  C34      1.0000 0.25020  0.15010  0.28001  Biso   1.000  C
  C35      1.0000 0.75020  0.34990  0.71999  Biso   1.000  C
  C36      1.0000 0.74980  0.65010  0.21999  Biso   1.000  C
  H45      1.0000 0.37070  0.80250  0.78150  Biso   1.000  H
  H46      1.0000 0.12930  0.19750  0.28150  Biso   1.000  H
  H47      1.0000 0.62930  0.30250  0.71850  Biso   1.000  H
  H48      1.0000 0.87070  0.69750  0.21850  Biso   1.000  H
  H49      1.0000 0.14990  0.78750  0.78570  Biso   1.000  H
  H50      1.0000 0.35010  0.21250  0.28570  Biso   1.000  H
  H51      1.0000 0.85010  0.28750  0.71430  Biso   1.000  H
  H52      1.0000 0.64990  0.71250  0.21430  Biso   1.000  H
  C37      1.0000 0.25030  0.97710  0.79875  Biso   1.000  C
  C38      1.0000 0.24970  0.02290  0.29875  Biso   1.000  C
  C39      1.0000 0.74970  0.47710  0.70125  Biso   1.000  C
  C40      1.0000 0.75030  0.52290  0.20125  Biso   1.000  C
  C41      1.0000 0.26860  0.96980  0.82629  Biso   1.000  C
  C42      1.0000 0.23140  0.03020  0.32629  Biso   1.000  C
  C43      1.0000 0.73140  0.46980  0.67371  Biso   1.000  C
  C44      1.0000 0.76860  0.53020  0.17371  Biso   1.000  C
  H53      1.0000 0.28730  0.88580  0.83480  Biso   1.000  H
  H54      1.0000 0.21270  0.11420  0.33480  Biso   1.000  H
  H55      1.0000 0.71270  0.38580  0.66520  Biso   1.000  H
  H56      1.0000 0.78730  0.61420  0.16520  Biso   1.000  H
  C45      1.0000 0.25910  0.08910  0.84155  Biso   1.000  C
  C46      1.0000 0.24090  0.91090  0.34155  Biso   1.000  C
  C47      1.0000 0.74090  0.58910  0.65845  Biso   1.000  C
  C48      1.0000 0.75910  0.41090  0.15845  Biso   1.000  C
  C49      1.0000 0.26800  0.09360  0.87138  Biso   1.000  C
  C50      1.0000 0.23200  0.90640  0.37138  Biso   1.000  C
  C51      1.0000 0.73200  0.59360  0.62862  Biso   1.000  C
  C52      1.0000 0.76800  0.40640  0.12862  Biso   1.000  C
  C53      1.0000 0.30390  0.98400  0.88787  Biso   1.000  C
  C54      1.0000 0.19610  0.01600  0.38787  Biso   1.000  C
  C55      1.0000 0.69610  0.48400  0.61213  Biso   1.000  C
  C56      1.0000 0.80390  0.51600  0.11213  Biso   1.000  C
  H57      1.0000 0.31980  0.89730  0.88040  Biso   1.000  H
  H58      1.0000 0.18020  0.10270  0.38040  Biso   1.000  H
  H59      1.0000 0.68020  0.39730  0.61960  Biso   1.000  H
  H60      1.0000 0.81980  0.60270  0.11960  Biso   1.000  H
  C57      1.0000 0.31660  0.00240  0.91607  Biso   1.000  C
  C58      1.0000 0.18340  0.99760  0.41607  Biso   1.000  C
  C59      1.0000 0.68340  0.50240  0.58393  Biso   1.000  C
  C60      1.0000 0.81660  0.49760  0.08393  Biso   1.000  C
  H61      1.0000 0.34410  0.92900  0.92750  Biso   1.000  H
  H62      1.0000 0.15590  0.07100  0.42750  Biso   1.000  H
  H63      1.0000 0.65590  0.42900  0.57250  Biso   1.000  H
  H64      1.0000 0.84410  0.57100  0.07250  Biso   1.000  H
  C61      1.0000 0.28760  0.13190  0.92662  Biso   1.000  C
  C62      1.0000 0.21240  0.86810  0.42662  Biso   1.000  C
  C63      1.0000 0.71240  0.63190  0.57338  Biso   1.000  C
  C64      1.0000 0.78760  0.36810  0.07338  Biso   1.000  C
  H65      1.0000 0.29400  0.14690  0.94530  Biso   1.000  H
  H66      1.0000 0.20600  0.85310  0.44530  Biso   1.000  H
  H67      1.0000 0.70600  0.64690  0.55470  Biso   1.000  H
  H68      1.0000 0.79400  0.35310  0.05470  Biso   1.000  H
  C65      1.0000 0.24940  0.23730  0.90930  Biso   1.000  C
  C66      1.0000 0.25060  0.76270  0.40930  Biso   1.000  C
  C67      1.0000 0.75060  0.73730  0.59070  Biso   1.000  C
  C68      1.0000 0.74940  0.26270  0.09070  Biso   1.000  C
  H69      1.0000 0.23150  0.32480  0.91630  Biso   1.000  H
  H70      1.0000 0.26850  0.67520  0.41630  Biso   1.000  H
  H71      1.0000 0.76850  0.82480  0.58370  Biso   1.000  H
  H72      1.0000 0.73150  0.17520  0.08370  Biso   1.000  H
  C69      1.0000 0.71830  0.23560  0.83857  Biso   1.000  C
  C70      1.0000 0.78170  0.76440  0.33857  Biso   1.000  C
  C71      1.0000 0.28170  0.73560  0.66143  Biso   1.000  C
  C72      1.0000 0.21830  0.26440  0.16143  Biso   1.000  C
  H73      1.0000 0.68670  0.32080  0.83140  Biso   1.000  H
  H74      1.0000 0.81330  0.67920  0.33140  Biso   1.000  H
  H75      1.0000 0.31330  0.82080  0.66860  Biso   1.000  H
  H76      1.0000 0.18670  0.17920  0.16860  Biso   1.000  H
  C73      1.0000 0.74550  0.12690  0.82119  Biso   1.000  C
  C74      1.0000 0.75450  0.87310  0.32119  Biso   1.000  C
  C75      1.0000 0.25450  0.62690  0.67881  Biso   1.000  C
  C76      1.0000 0.24550  0.37310  0.17881  Biso   1.000  C
  H77      1.0000 0.74100  0.13990  0.80240  Biso   1.000  H
  H78      1.0000 0.75900  0.86010  0.30240  Biso   1.000  H
  H79      1.0000 0.25900  0.63990  0.69760  Biso   1.000  H
  H80      1.0000 0.24100  0.36010  0.19760  Biso   1.000  H
  C77      1.0000 0.77940  0.99940  0.83170  Biso   1.000  C
  C78      1.0000 0.72060  0.00060  0.33170  Biso   1.000  C
  C79      1.0000 0.22060  0.49940  0.66830  Biso   1.000  C
  C80      1.0000 0.27940  0.50060  0.16830  Biso   1.000  C
  H81      1.0000 0.78850  0.92400  0.82020  Biso   1.000  H
  H82      1.0000 0.71150  0.07600  0.32020  Biso   1.000  H
  H83      1.0000 0.21150  0.42400  0.67980  Biso   1.000  H
  H84      1.0000 0.28850  0.57600  0.17980  Biso   1.000  H
  C81      1.0000 0.79990  0.98350  0.85925  Biso   1.000  C
  C82      1.0000 0.70010  0.01650  0.35925  Biso   1.000  C
  C83      1.0000 0.20010  0.48350  0.64075  Biso   1.000  C
  C84      1.0000 0.29990  0.51650  0.14075  Biso   1.000  C
  H85      1.0000 0.83250  0.89880  0.86650  Biso   1.000  H
  H86      1.0000 0.66750  0.10120  0.36650  Biso   1.000  H
  H87      1.0000 0.16750  0.39880  0.63350  Biso   1.000  H
  H88      1.0000 0.33250  0.60120  0.13350  Biso   1.000  H
  C85      1.0000 0.77110  0.09640  0.87634  Biso   1.000  C
  C86      1.0000 0.72890  0.90360  0.37634  Biso   1.000  C
  C87      1.0000 0.22890  0.59640  0.62366  Biso   1.000  C
  C88      1.0000 0.27110  0.40360  0.12366  Biso   1.000  C
  C89      1.0000 0.78950  0.09220  0.90641  Biso   1.000  C
  C90      1.0000 0.71050  0.90780  0.40641  Biso   1.000  C
  C91      1.0000 0.21050  0.59220  0.59359  Biso   1.000  C
  C92      1.0000 0.28950  0.40780  0.09359  Biso   1.000  C
  C93      1.0000 0.82570  0.97460  0.92097  Biso   1.000  C
  C94      1.0000 0.67430  0.02540  0.42097  Biso   1.000  C
  C95      1.0000 0.17430  0.47460  0.57903  Biso   1.000  C
  C96      1.0000 0.32570  0.52540  0.07903  Biso   1.000  C
  H89      1.0000 0.84100  0.89080  0.91220  Biso   1.000  H
  H90      1.0000 0.65900  0.10920  0.41220  Biso   1.000  H
  H91      1.0000 0.15900  0.39080  0.58780  Biso   1.000  H
  H92      1.0000 0.34100  0.60920  0.08780  Biso   1.000  H
  C97      1.0000 0.83860  0.98540  0.94876  Biso   1.000  C
  C98      1.0000 0.66140  0.01460  0.44876  Biso   1.000  C
  C99      1.0000 0.16140  0.48540  0.55124  Biso   1.000  C
  C100     1.0000 0.33860  0.51460  0.05124  Biso   1.000  C
  C101     1.0000 0.87200  0.86270  0.96780  Biso   1.000  C
  C102     1.0000 0.62800  0.13730  0.46780  Biso   1.000  C
  C103     1.0000 0.12800  0.36270  0.53220  Biso   1.000  C
  C104     1.0000 0.37200  0.63730  0.03220  Biso   1.000  C
  H93      1.0000 0.99030  0.81760  0.96290  Biso   1.000  H
  H94      1.0000 0.50970  0.18240  0.46290  Biso   1.000  H
  H95      1.0000 0.00970  0.31760  0.53710  Biso   1.000  H
  H96      1.0000 0.49030  0.68240  0.03710  Biso   1.000  H
  H97      1.0000 0.76930  0.79710  0.96570  Biso   1.000  H
  H98      1.0000 0.73070  0.20290  0.46570  Biso   1.000  H
  H99      1.0000 0.23070  0.29710  0.53430  Biso   1.000  H
  H100     1.0000 0.26930  0.70290  0.03430  Biso   1.000  H
  C105     1.0000 0.88130  0.91120  0.99794  Biso   1.000  C
  C106     1.0000 0.61870  0.08880  0.49794  Biso   1.000  C
  C107     1.0000 0.11870  0.41120  0.50206  Biso   1.000  C
  C108     1.0000 0.38130  0.58880  0.00206  Biso   1.000  C
  H101     1.0000 0.91290  0.83960  0.01120  Biso   1.000  H
  H102     1.0000 0.58710  0.16040  0.51120  Biso   1.000  H
  H103     1.0000 0.08710  0.33960  0.48880  Biso   1.000  H
  H104     1.0000 0.41290  0.66040  0.98880  Biso   1.000  H
  C109     1.0000 0.83300  0.11690  0.99211  Biso   1.000  C
  C110     1.0000 0.66700  0.88310  0.49211  Biso   1.000  C
  C111     1.0000 0.16700  0.61690  0.50789  Biso   1.000  C
  C112     1.0000 0.33300  0.38310  0.00789  Biso   1.000  C
  H105     1.0000 0.82210  0.20830  0.00020  Biso   1.000  H
  H106     1.0000 0.67790  0.79170  0.50020  Biso   1.000  H
  H107     1.0000 0.17790  0.70830  0.49980  Biso   1.000  H
  H108     1.0000 0.32210  0.29170  0.99980  Biso   1.000  H
  C113     1.0000 0.00900  0.03580  0.99865  Biso   1.000  C
  C114     1.0000 0.49100  0.96420  0.49865  Biso   1.000  C
  C115     1.0000 0.99100  0.53580  0.50135  Biso   1.000  C
  C116     1.0000 0.50900  0.46420  0.00135  Biso   1.000  C
  H109     1.0000 0.06330  0.05520  0.01640  Biso   1.000  H
  H110     1.0000 0.43670  0.94480  0.51640  Biso   1.000  H
  H111     1.0000 0.93670  0.55520  0.48360  Biso   1.000  H
  H112     1.0000 0.56330  0.44480  0.98360  Biso   1.000  H
  H113     1.0000 0.10530  0.03750  0.98450  Biso   1.000  H
  H114     1.0000 0.39470  0.96250  0.48450  Biso   1.000  H
  H115     1.0000 0.89470  0.53750  0.51550  Biso   1.000  H
  H116     1.0000 0.60530  0.46250  0.01550  Biso   1.000  H
  C117     1.0000 0.71070  0.99860  0.00531  Biso   1.000  C
  C118     1.0000 0.78930  0.00140  0.50531  Biso   1.000  C
  C119     1.0000 0.28930  0.49860  0.49469  Biso   1.000  C
  C120     1.0000 0.21070  0.50140  0.99469  Biso   1.000  C
  C121     1.0000 0.69590  0.01960  0.03578  Biso   1.000  C
  C122     1.0000 0.80410  0.98040  0.53578  Biso   1.000  C
  C123     1.0000 0.30410  0.51960  0.46422  Biso   1.000  C
  C124     1.0000 0.19590  0.48040  0.96422  Biso   1.000  C
  H117     1.0000 0.66640  0.93390  0.04440  Biso   1.000  H
  H118     1.0000 0.83360  0.06610  0.54440  Biso   1.000  H
  H119     1.0000 0.33360  0.43390  0.45560  Biso   1.000  H
  H120     1.0000 0.16640  0.56610  0.95560  Biso   1.000  H
  H121     1.0000 0.59710  0.08460  0.03960  Biso   1.000  H
  H122     1.0000 0.90290  0.91540  0.53960  Biso   1.000  H
  H123     1.0000 0.40290  0.58460  0.46040  Biso   1.000  H
  H124     1.0000 0.09710  0.41540  0.96040  Biso   1.000  H
  H125     1.0000 0.81500  0.05340  0.04260  Biso   1.000  H
  H126     1.0000 0.68500  0.94660  0.54260  Biso   1.000  H
  H127     1.0000 0.18500  0.55340  0.45740  Biso   1.000  H
  H128     1.0000 0.31500  0.44660  0.95740  Biso   1.000  H
  C125     1.0000 0.51760  0.97110  0.99353  Biso   1.000  C
  C126     1.0000 0.98240  0.02890  0.49353  Biso   1.000  C
  C127     1.0000 0.48240  0.47110  0.50647  Biso   1.000  C
  C128     1.0000 0.01760  0.52890  0.00647  Biso   1.000  C
  H129     1.0000 0.45840  0.05620  0.98860  Biso   1.000  H
  H130     1.0000 0.04160  0.94380  0.48860  Biso   1.000  H
  H131     1.0000 0.54160  0.55620  0.51140  Biso   1.000  H
  H132     1.0000 0.95840  0.44380  0.01140  Biso   1.000  H
  H133     1.0000 0.44050  0.92490  0.00680  Biso   1.000  H
  H134     1.0000 0.05950  0.07510  0.50680  Biso   1.000  H
  H135     1.0000 0.55950  0.42490  0.49320  Biso   1.000  H
  H136     1.0000 0.94050  0.57510  0.99320  Biso   1.000  H
  H137     1.0000 0.53010  0.91450  0.97760  Biso   1.000  H
  H138     1.0000 0.96990  0.08550  0.47760  Biso   1.000  H
  H139     1.0000 0.46990  0.41450  0.52240  Biso   1.000  H
  H140     1.0000 0.03010  0.58550  0.02240  Biso   1.000  H
  C129     1.0000 0.81410  0.10680  0.96163  Biso   1.000  C
  C130     1.0000 0.68590  0.89320  0.46163  Biso   1.000  C
  C131     1.0000 0.18590  0.60680  0.53837  Biso   1.000  C
  C132     1.0000 0.31410  0.39320  0.03837  Biso   1.000  C
  C133     1.0000 0.77350  0.22280  0.94486  Biso   1.000  C
  C134     1.0000 0.72650  0.77720  0.44486  Biso   1.000  C
  C135     1.0000 0.22650  0.72280  0.55514  Biso   1.000  C
  C136     1.0000 0.27350  0.27720  0.05514  Biso   1.000  C
  H141     1.0000 0.75360  0.30710  0.95320  Biso   1.000  H
  H142     1.0000 0.74640  0.69290  0.45320  Biso   1.000  H
  H143     1.0000 0.24640  0.80710  0.54680  Biso   1.000  H
  H144     1.0000 0.25360  0.19290  0.04680  Biso   1.000  H
  N1       1.0000 0.23440  0.20950  0.82987  Biso   1.000  N
  N2       1.0000 0.26560  0.79050  0.32987  Biso   1.000  N
  N3       1.0000 0.76560  0.70950  0.67013  Biso   1.000  N
  N4       1.0000 0.73440  0.29050  0.17013  Biso   1.000  N
  N5       1.0000 0.23720  0.21760  0.88242  Biso   1.000  N
  N6       1.0000 0.26280  0.78240  0.38242  Biso   1.000  N
  N7       1.0000 0.76280  0.71760  0.61758  Biso   1.000  N
  N8       1.0000 0.73720  0.28240  0.11758  Biso   1.000  N
  N9       1.0000 0.73640  0.22140  0.86583  Biso   1.000  N
  N10      1.0000 0.76360  0.77860  0.36583  Biso   1.000  N
  N11      1.0000 0.26360  0.72140  0.63417  Biso   1.000  N
  N12      1.0000 0.23640  0.27860  0.13417  Biso   1.000  N
  N13      1.0000 0.76320  0.21570  0.91850  Biso   1.000  N
  N14      1.0000 0.73680  0.78430  0.41850  Biso   1.000  N
  N15      1.0000 0.23680  0.71570  0.58150  Biso   1.000  N
  N16      1.0000 0.26320  0.28430  0.08150  Biso   1.000  N
  N17      1.0000 0.65700  0.49300  0.92359  Biso   1.000  N
  N18      1.0000 0.84300  0.50700  0.42359  Biso   1.000  N
  N19      1.0000 0.34300  0.99300  0.57641  Biso   1.000  N
  N20      1.0000 0.15700  0.00700  0.07641  Biso   1.000  N
  N21      1.0000 0.58860  0.60240  0.92460  Biso   1.000  N
  N22      1.0000 0.91140  0.39760  0.42460  Biso   1.000  N
  N23      1.0000 0.41140  0.10240  0.57540  Biso   1.000  N
  N24      1.0000 0.08860  0.89760  0.07540  Biso   1.000  N
  N25      1.0000 0.52090  0.70720  0.92756  Biso   1.000  N
  N26      1.0000 0.97910  0.29280  0.42756  Biso   1.000  N
  N27      1.0000 0.47910  0.20720  0.57244  Biso   1.000  N
  N28      1.0000 0.02090  0.79280  0.07244  Biso   1.000  N
  N29      1.0000 0.50320  0.46160  0.86836  Biso   1.000  N
  N30      1.0000 0.99680  0.53840  0.36836  Biso   1.000  N
  N31      1.0000 0.49680  0.96160  0.63164  Biso   1.000  N
  N32      1.0000 0.00320  0.03840  0.13164  Biso   1.000  N
  N33      1.0000 0.51510  0.57850  0.86223  Biso   1.000  N
  N34      1.0000 0.98490  0.42150  0.36223  Biso   1.000  N
  N35      1.0000 0.48490  0.07850  0.63777  Biso   1.000  N
  N36      1.0000 0.01510  0.92150  0.13777  Biso   1.000  N
  N37      1.0000 0.51690  0.68940  0.85477  Biso   1.000  N
  N38      1.0000 0.98310  0.31060  0.35477  Biso   1.000  N
  N39      1.0000 0.48310  0.18940  0.64523  Biso   1.000  N
  N40      1.0000 0.01690  0.81060  0.14523  Biso   1.000  N
  N41      1.0000 0.00260  0.45810  0.88174  Biso   1.000  N
  N42      1.0000 0.49740  0.54190  0.38174  Biso   1.000  N
  N43      1.0000 0.99740  0.95810  0.61826  Biso   1.000  N
  N44      1.0000 0.50260  0.04190  0.11826  Biso   1.000  N
  N45      1.0000 0.02250  0.57150  0.88941  Biso   1.000  N
  N46      1.0000 0.47750  0.42850  0.38941  Biso   1.000  N
  N47      1.0000 0.97750  0.07150  0.61059  Biso   1.000  N
  N48      1.0000 0.52250  0.92850  0.11059  Biso   1.000  N
  N49      1.0000 0.04550  0.67950  0.89978  Biso   1.000  N
  N50      1.0000 0.45450  0.32050  0.39978  Biso   1.000  N
  N51      1.0000 0.95450  0.17950  0.60022  Biso   1.000  N
  N52      1.0000 0.54550  0.82050  0.10022  Biso   1.000  N
  N53      1.0000 0.14990  0.50170  0.82529  Biso   1.000  N
  N54      1.0000 0.35010  0.49830  0.32529  Biso   1.000  N
  N55      1.0000 0.85010  0.00170  0.67471  Biso   1.000  N
  N56      1.0000 0.64990  0.99830  0.17471  Biso   1.000  N
  N57      1.0000 0.07200  0.60010  0.82841  Biso   1.000  N
  N58      1.0000 0.42800  0.39990  0.32841  Biso   1.000  N
  N59      1.0000 0.92800  0.10010  0.67159  Biso   1.000  N
  N60      1.0000 0.57200  0.89990  0.17159  Biso   1.000  N
  N61      1.0000 0.98570  0.70440  0.83069  Biso   1.000  N
  N62      1.0000 0.51430  0.29560  0.33069  Biso   1.000  N
  N63      1.0000 0.01430  0.20440  0.66931  Biso   1.000  N
  N64      1.0000 0.48570  0.79560  0.16931  Biso   1.000  N
