data_image0
_cell_length_a       6.5647
_cell_length_b       6.5793
_cell_length_c       12.272
_cell_angle_alpha    90
_cell_angle_beta     95.39
_cell_angle_gamma    90

_symmetry_space_group_name_H-M    "P 1"
_symmetry_int_tables_number       1

loop_
  _symmetry_equiv_pos_as_xyz
  'x, y, z'

loop_
  _atom_site_label
  _atom_site_occupancy
  _atom_site_fract_x
  _atom_site_fract_y
  _atom_site_fract_z
  _atom_site_thermal_displace_type
  _atom_site_B_iso_or_equiv
  _atom_site_type_symbol
  Cu1      1.0000 0.00000  0.00000  0.00000  Biso   1.000  Cu
  Cu2      1.0000 0.00000  0.50000  0.50000  Biso   1.000  Cu
  Cl1      1.0000 0.21769  0.27193  0.98426  Biso   1.000  Cl
  Cl2      1.0000 0.78231  0.77193  0.51574  Biso   1.000  Cl
  Cl3      1.0000 0.78231  0.72807  0.01574  Biso   1.000  Cl
  Cl4      1.0000 0.21769  0.22807  0.48426  Biso   1.000  Cl
  N1       1.0000 0.73230  0.17780  0.69899  Biso   1.000  N
  N2       1.0000 0.26770  0.67780  0.80101  Biso   1.000  N
  N3       1.0000 0.26770  0.82220  0.30101  Biso   1.000  N
  N4       1.0000 0.73230  0.32220  0.19899  Biso   1.000  N
  N5       1.0000 0.56670  0.15520  0.75656  Biso   1.000  N
  N6       1.0000 0.43330  0.65520  0.74344  Biso   1.000  N
  N7       1.0000 0.43330  0.84480  0.24344  Biso   1.000  N
  N8       1.0000 0.56670  0.34480  0.25656  Biso   1.000  N
  N9       1.0000 0.63440  0.09910  0.85318  Biso   1.000  N
  N10      1.0000 0.36560  0.59910  0.64682  Biso   1.000  N
  N11      1.0000 0.36560  0.90090  0.14682  Biso   1.000  N
  N12      1.0000 0.63440  0.40090  0.35318  Biso   1.000  N
  N13      1.0000 0.84240  0.08130  0.86107  Biso   1.000  N
  N14      1.0000 0.15760  0.58130  0.63893  Biso   1.000  N
  N15      1.0000 0.15760  0.91870  0.13893  Biso   1.000  N
  N16      1.0000 0.84240  0.41870  0.36107  Biso   1.000  N
  C1       1.0000 0.90300  0.13230  0.76377  Biso   1.000  C
  C2       1.0000 0.09700  0.63230  0.73623  Biso   1.000  C
  C3       1.0000 0.09700  0.86770  0.23623  Biso   1.000  C
  C4       1.0000 0.90300  0.36770  0.26377  Biso   1.000  C
  N17      1.0000 0.72540  0.25380  0.59219  Biso   1.000  N
  N18      1.0000 0.27460  0.75380  0.90781  Biso   1.000  N
  N19      1.0000 0.27460  0.74620  0.40781  Biso   1.000  N
  N20      1.0000 0.72540  0.24620  0.09219  Biso   1.000  N
  H1       1.0000 0.62300  0.32500  0.57700  Biso   1.000  H
  H2       1.0000 0.37700  0.82500  0.92300  Biso   1.000  H
  H3       1.0000 0.37700  0.67500  0.42300  Biso   1.000  H
  H4       1.0000 0.62300  0.17500  0.07700  Biso   1.000  H
  H5       1.0000 0.71600  0.15500  0.54500  Biso   1.000  H
  H6       1.0000 0.28400  0.65500  0.95500  Biso   1.000  H
  H7       1.0000 0.28400  0.84500  0.45500  Biso   1.000  H
  H8       1.0000 0.71600  0.34500  0.04500  Biso   1.000  H
  N21      1.0000 0.09150  0.12790  0.73264  Biso   1.000  N
  N22      1.0000 0.90850  0.62790  0.76736  Biso   1.000  N
  N23      1.0000 0.90850  0.87210  0.26736  Biso   1.000  N
  N24      1.0000 0.09150  0.37210  0.23264  Biso   1.000  N
  H9       1.0000 0.19400  0.13900  0.78300  Biso   1.000  H
  H10      1.0000 0.80600  0.63900  0.71700  Biso   1.000  H
  H11      1.0000 0.80600  0.86100  0.21700  Biso   1.000  H
  H12      1.0000 0.19400  0.36100  0.28300  Biso   1.000  H
  H13      1.0000 0.11300  0.16200  0.66600  Biso   1.000  H
  H14      1.0000 0.88700  0.66200  0.83400  Biso   1.000  H
  H15      1.0000 0.88700  0.83800  0.33400  Biso   1.000  H
  H16      1.0000 0.11300  0.33800  0.16600  Biso   1.000  H
