data_image0
_cell_length_a       14.4861
_cell_length_b       14.5856
_cell_length_c       22.0546
_cell_angle_alpha    75.001
_cell_angle_beta     75.107
_cell_angle_gamma    67.849

_symmetry_space_group_name_H-M    "P 1"
_symmetry_int_tables_number       1

loop_
  _symmetry_equiv_pos_as_xyz
  'x, y, z'

loop_
  _atom_site_label
  _atom_site_occupancy
  _atom_site_fract_x
  _atom_site_fract_y
  _atom_site_fract_z
  _atom_site_thermal_displace_type
  _atom_site_B_iso_or_equiv
  _atom_site_type_symbol
  Cu1      1.0000 0.03113  0.43626  0.44657  Biso   1.000  Cu
  Cu2      1.0000 0.96887  0.56374  0.55343  Biso   1.000  Cu
  Cu3      1.0000 0.45393  0.42734  0.04944  Biso   1.000  Cu
  Cu4      1.0000 0.54607  0.57266  0.95056  Biso   1.000  Cu
  Cu5      1.0000 0.94835  0.58815  0.14393  Biso   1.000  Cu
  Cu6      1.0000 0.05165  0.41185  0.85607  Biso   1.000  Cu
  Cu7      1.0000 0.18885  0.53896  0.02766  Biso   1.000  Cu
  Cu8      1.0000 0.81115  0.46104  0.97234  Biso   1.000  Cu
  Cu9      1.0000 0.88158  0.54651  0.31959  Biso   1.000  Cu
  Cu10     1.0000 0.11842  0.45349  0.68041  Biso   1.000  Cu
  Cu11     1.0000 0.28965  0.33443  0.45077  Biso   1.000  Cu
  Cu12     1.0000 0.71035  0.66557  0.54923  Biso   1.000  Cu
  Cu13     1.0000 0.52824  0.28359  0.34996  Biso   1.000  Cu
  Cu14     1.0000 0.47176  0.71641  0.65004  Biso   1.000  Cu
  Cu15     1.0000 0.59665  0.32316  0.17778  Biso   1.000  Cu
  Cu16     1.0000 0.40335  0.67684  0.82222  Biso   1.000  Cu
  O1       1.0000 0.32544  0.43636  0.02977  Biso   1.000  O
  O2       1.0000 0.67456  0.56364  0.97023  Biso   1.000  O
  O3       1.0000 0.89501  0.68088  0.28882  Biso   1.000  O
  O4       1.0000 0.10499  0.31912  0.71118  Biso   1.000  O
  O5       1.0000 0.42011  0.57326  0.03733  Biso   1.000  O
  O6       1.0000 0.57989  0.42674  0.96267  Biso   1.000  O
  O7       1.0000 0.90118  0.52262  0.23199  Biso   1.000  O
  O8       1.0000 0.09882  0.47738  0.76801  Biso   1.000  O
  O9       1.0000 0.89782  0.40211  0.34511  Biso   1.000  O
  O10      1.0000 0.10218  0.59789  0.65489  Biso   1.000  O
  O11      1.0000 0.06532  0.61850  0.07943  Biso   1.000  O
  O12      1.0000 0.93468  0.38150  0.92057  Biso   1.000  O
  O13      1.0000 0.98040  0.45529  0.12192  Biso   1.000  O
  O14      1.0000 0.01960  0.54471  0.87808  Biso   1.000  O
  O15      1.0000 0.59642  0.43939  0.20755  Biso   1.000  O
  O16      1.0000 0.40358  0.56061  0.79245  Biso   1.000  O
  O17      1.0000 0.93967  0.70753  0.17417  Biso   1.000  O
  O18      1.0000 0.06033  0.29247  0.82583  Biso   1.000  O
  O19      1.0000 0.54282  0.42216  0.10576  Biso   1.000  O
  O20      1.0000 0.45718  0.57784  0.89424  Biso   1.000  O
  O21      1.0000 0.24090  0.64828  0.02469  Biso   1.000  O
  O22      1.0000 0.75910  0.35172  0.97531  Biso   1.000  O
  O23      1.0000 0.42214  0.34930  0.41569  Biso   1.000  O
  O24      1.0000 0.57786  0.65070  0.58431  Biso   1.000  O
  O25      1.0000 0.57738  0.21290  0.15195  Biso   1.000  O
  O26      1.0000 0.42262  0.78710  0.84805  Biso   1.000  O
  O27      1.0000 0.99284  0.33061  0.43139  Biso   1.000  O
  O28      1.0000 0.00716  0.66939  0.56861  Biso   1.000  O
  O29      1.0000 0.15360  0.32832  0.46973  Biso   1.000  O
  O30      1.0000 0.84640  0.67168  0.53027  Biso   1.000  O
  O31      1.0000 0.55303  0.41244  0.32236  Biso   1.000  O
  O32      1.0000 0.44697  0.58756  0.67764  Biso   1.000  O
  C1       1.0000 0.44362  0.58897  0.31957  Biso   1.000  C
  C2       1.0000 0.55638  0.41103  0.68043  Biso   1.000  C
  O33      1.0000 0.14132  0.42349  0.04730  Biso   1.000  O
  O34      1.0000 0.85868  0.57651  0.95270  Biso   1.000  O
  O35      1.0000 0.24986  0.47106  0.46770  Biso   1.000  O
  O36      1.0000 0.75014  0.52894  0.53230  Biso   1.000  O
  O37      1.0000 0.94654  0.54296  0.39062  Biso   1.000  O
  O38      1.0000 0.05346  0.45704  0.60938  Biso   1.000  O
  O39      1.0000 0.07288  0.54414  0.45828  Biso   1.000  O
  O40      1.0000 0.92712  0.45586  0.54172  Biso   1.000  O
  O41      1.0000 0.57711  0.24585  0.26493  Biso   1.000  O
  O42      1.0000 0.42289  0.75415  0.73507  Biso   1.000  O
  O43      1.0000 0.48318  0.28313  0.06569  Biso   1.000  O
  O44      1.0000 0.51682  0.71687  0.93431  Biso   1.000  O
  C3       1.0000 0.48696  0.61690  0.19964  Biso   1.000  C
  C4       1.0000 0.51304  0.38310  0.80036  Biso   1.000  C
  O45      1.0000 0.49131  0.15947  0.37414  Biso   1.000  O
  O46      1.0000 0.50869  0.84053  0.62586  Biso   1.000  O
  C5       1.0000 0.08952  0.17561  0.38877  Biso   1.000  C
  C6       1.0000 0.91048  0.82439  0.61123  Biso   1.000  C
  C7       1.0000 0.03773  0.28070  0.17879  Biso   1.000  C
  C8       1.0000 0.96227  0.71930  0.82121  Biso   1.000  C
  C9       1.0000 0.94501  0.35612  0.29263  Biso   1.000  C
  C10      1.0000 0.05499  0.64388  0.70737  Biso   1.000  C
  O47      1.0000 0.33367  0.19124  0.44918  Biso   1.000  O
  O48      1.0000 0.66633  0.80876  0.55082  Biso   1.000  O
  C11      1.0000 0.38029  0.17299  0.11072  Biso   1.000  C
  C12      1.0000 0.61971  0.82701  0.88928  Biso   1.000  C
  C13      1.0000 0.19958  0.24745  0.10114  Biso   1.000  C
  C14      1.0000 0.80042  0.75255  0.89886  Biso   1.000  C
  C15      1.0000 0.26994  0.10003  0.39902  Biso   1.000  C
  C16      1.0000 0.73006  0.89997  0.60098  Biso   1.000  C
  C17      1.0000 0.39605  0.68781  0.10845  Biso   1.000  C
  C18      1.0000 0.60395  0.31219  0.89155  Biso   1.000  C
  C19      1.0000 0.00897  0.76517  0.29622  Biso   1.000  C
  C20      1.0000 0.99103  0.23483  0.70378  Biso   1.000  C
  C21      1.0000 0.28413  0.62064  0.39855  Biso   1.000  C
  C22      1.0000 0.71587  0.37936  0.60145  Biso   1.000  C
  C23      1.0000 0.96258  0.69127  0.31869  Biso   1.000  C
  C24      1.0000 0.03742  0.30873  0.68131  Biso   1.000  C
  C25      1.0000 0.21412  0.76219  0.09743  Biso   1.000  C
  C26      1.0000 0.78588  0.23781  0.90257  Biso   1.000  C
  C27      1.0000 0.99463  0.25208  0.29647  Biso   1.000  C
  C28      1.0000 0.00537  0.74792  0.70353  Biso   1.000  C
  C29      1.0000 0.18496  0.10143  0.37892  Biso   1.000  C
  C30      1.0000 0.81504  0.89857  0.62108  Biso   1.000  C
  H1       1.0000 0.19240  0.04960  0.35760  Biso   1.000  H
  H2       1.0000 0.80760  0.95040  0.64240  Biso   1.000  H
  C31      1.0000 0.47707  0.10077  0.20122  Biso   1.000  C
  C32      1.0000 0.52293  0.89923  0.79878  Biso   1.000  C
  C33      1.0000 0.10095  0.69475  0.38681  Biso   1.000  C
  C34      1.0000 0.89905  0.30525  0.61319  Biso   1.000  C
  C35      1.0000 0.42962  0.05691  0.25866  Biso   1.000  C
  C36      1.0000 0.57038  0.94309  0.74134  Biso   1.000  C
  H3       1.0000 0.39380  0.01510  0.25710  Biso   1.000  H
  H4       1.0000 0.60620  0.98490  0.74290  Biso   1.000  H
  C37      1.0000 0.05524  0.79311  0.17621  Biso   1.000  C
  C38      1.0000 0.94476  0.20689  0.82379  Biso   1.000  C
  C39      1.0000 0.44052  0.59437  0.08897  Biso   1.000  C
  C40      1.0000 0.55948  0.40563  0.91103  Biso   1.000  C
  C41      1.0000 0.14851  0.80741  0.14849  Biso   1.000  C
  C42      1.0000 0.85149  0.19259  0.85151  Biso   1.000  C
  H5       1.0000 0.16830  0.84980  0.16510  Biso   1.000  H
  H6       1.0000 0.83170  0.15020  0.83490  Biso   1.000  H
  C43      1.0000 0.28262  0.16691  0.12138  Biso   1.000  C
  C44      1.0000 0.71738  0.83309  0.87862  Biso   1.000  C
  H7       1.0000 0.27240  0.10530  0.14330  Biso   1.000  H
  H8       1.0000 0.72760  0.89470  0.85670  Biso   1.000  H
  C45      1.0000 0.18266  0.70069  0.07399  Biso   1.000  C
  C46      1.0000 0.81734  0.29931  0.92601  Biso   1.000  C
  O49      1.0000 0.15782  0.58943  0.93245  Biso   1.000  O
  O50      1.0000 0.84218  0.41057  0.06755  Biso   1.000  O
  C47      1.0000 0.41990  0.69653  0.16431  Biso   1.000  C
  C48      1.0000 0.58010  0.30347  0.83569  Biso   1.000  C
  H9       1.0000 0.38920  0.75910  0.17870  Biso   1.000  H
  H10      1.0000 0.61080  0.24090  0.82130  Biso   1.000  H
  C49      1.0000 0.31899  0.77187  0.07171  Biso   1.000  C
  C50      1.0000 0.68101  0.22813  0.92829  Biso   1.000  C
  H11      1.0000 0.33800  0.76020  0.02670  Biso   1.000  H
  H12      1.0000 0.66200  0.23980  0.97330  Biso   1.000  H
  C51      1.0000 0.05305  0.62184  0.40685  Biso   1.000  C
  C52      1.0000 0.94695  0.37816  0.59315  Biso   1.000  C
  C53      1.0000 0.98691  0.38387  0.17738  Biso   1.000  C
  C54      1.0000 0.01309  0.61613  0.82262  Biso   1.000  C
  C55      1.0000 0.21642  0.33729  0.06905  Biso   1.000  C
  C56      1.0000 0.78358  0.66271  0.93095  Biso   1.000  C
  C57      1.0000 0.43216  0.07137  0.31840  Biso   1.000  C
  C58      1.0000 0.56784  0.92863  0.68160  Biso   1.000  C
  C59      1.0000 0.53039  0.52547  0.17760  Biso   1.000  C
  C60      1.0000 0.46961  0.47453  0.82240  Biso   1.000  C
  C61      1.0000 0.04074  0.21741  0.23884  Biso   1.000  C
  C62      1.0000 0.95926  0.78259  0.76116  Biso   1.000  C
  H13      1.0000 0.07590  0.14740  0.24040  Biso   1.000  H
  H14      1.0000 0.92410  0.85260  0.75960  Biso   1.000  H
  C63      1.0000 0.07936  0.25013  0.42175  Biso   1.000  C
  C64      1.0000 0.92064  0.74987  0.57825  Biso   1.000  C
  C65      1.0000 0.99950  0.18245  0.36174  Biso   1.000  C
  C66      1.0000 0.00050  0.81755  0.63826  Biso   1.000  C
  H15      1.0000 0.93720  0.21520  0.39130  Biso   1.000  H
  H16      1.0000 0.06280  0.78480  0.60870  Biso   1.000  H
  C67      1.0000 0.07785  0.76465  0.33137  Biso   1.000  C
  C68      1.0000 0.92215  0.23535  0.66863  Biso   1.000  C
  H17      1.0000 0.11010  0.81420  0.31670  Biso   1.000  H
  H18      1.0000 0.88990  0.18580  0.68330  Biso   1.000  H
  N1       1.0000 0.81881  0.67246  0.09877  Biso   1.000  N
  N2       1.0000 0.18119  0.32754  0.90123  Biso   1.000  N
  C69      1.0000 0.39243  0.26494  0.07830  Biso   1.000  C
  C70      1.0000 0.60757  0.73506  0.92170  Biso   1.000  C
  C71      1.0000 0.98715  0.83904  0.23403  Biso   1.000  C
  C72      1.0000 0.01285  0.16096  0.76597  Biso   1.000  C
  H19      1.0000 0.91610  0.84920  0.23110  Biso   1.000  H
  H20      1.0000 0.08390  0.15080  0.76890  Biso   1.000  H
  C73      1.0000 0.48528  0.13409  0.31928  Biso   1.000  C
  C74      1.0000 0.51472  0.86591  0.68072  Biso   1.000  C
  C75      1.0000 0.64689  0.79820  0.04809  Biso   1.000  C
  C76      1.0000 0.35311  0.20180  0.95191  Biso   1.000  C
  H21      1.0000 0.58800  0.84130  0.03110  Biso   1.000  H
  H22      1.0000 0.41200  0.15870  0.96890  Biso   1.000  H
  C77      1.0000 0.46807  0.48603  0.34537  Biso   1.000  C
  C78      1.0000 0.53193  0.51397  0.65463  Biso   1.000  C
  N3       1.0000 0.72758  0.59967  0.36986  Biso   1.000  N
  N4       1.0000 0.27242  0.40033  0.63014  Biso   1.000  N
  C79      1.0000 0.35205  0.65383  0.34721  Biso   1.000  C
  C80      1.0000 0.64795  0.34617  0.65279  Biso   1.000  C
  H23      1.0000 0.33480  0.72390  0.33050  Biso   1.000  H
  H24      1.0000 0.66520  0.27610  0.66950  Biso   1.000  H
  C81      1.0000 0.09078  0.68419  0.10012  Biso   1.000  C
  C82      1.0000 0.90922  0.31581  0.89988  Biso   1.000  C
  C83      1.0000 0.40225  0.45122  0.39611  Biso   1.000  C
  C84      1.0000 0.59775  0.54878  0.60389  Biso   1.000  C
  C85      1.0000 0.09279  0.24154  0.11687  Biso   1.000  C
  C86      1.0000 0.90721  0.75846  0.88313  Biso   1.000  C
  H25      1.0000 0.05620  0.28920  0.08230  Biso   1.000  H
  H26      1.0000 0.94380  0.71080  0.91770  Biso   1.000  H
  C87      1.0000 0.53256  0.17912  0.26305  Biso   1.000  C
  C88      1.0000 0.46744  0.82088  0.73695  Biso   1.000  C
  C89      1.0000 0.73946  0.64171  0.10546  Biso   1.000  C
  C90      1.0000 0.26054  0.35829  0.89454  Biso   1.000  C
  H27      1.0000 0.74280  0.57610  0.12850  Biso   1.000  H
  H28      1.0000 0.25720  0.42390  0.87150  Biso   1.000  H
  C91      1.0000 0.16184  0.24910  0.44326  Biso   1.000  C
  C92      1.0000 0.83816  0.75090  0.55674  Biso   1.000  C
  C93      1.0000 0.02755  0.73050  0.15069  Biso   1.000  C
  C94      1.0000 0.97245  0.26950  0.84931  Biso   1.000  C
  C95      1.0000 0.65348  0.70130  0.08030  Biso   1.000  C
  C96      1.0000 0.34652  0.29870  0.91970  Biso   1.000  C
  H29      1.0000 0.59970  0.67650  0.08500  Biso   1.000  H
  H30      1.0000 0.40030  0.32350  0.91500  Biso   1.000  H
  C97      1.0000 0.50640  0.51468  0.12330  Biso   1.000  C
  C98      1.0000 0.49360  0.48532  0.87670  Biso   1.000  C
  O51      1.0000 0.76445  0.26968  0.15429  Biso   1.000  O
  O52      1.0000 0.23555  0.73032  0.84571  Biso   1.000  O
  C99      1.0000 0.94254  0.42112  0.23398  Biso   1.000  C
  C100     1.0000 0.05746  0.57888  0.76602  Biso   1.000  C
  C101     1.0000 0.37594  0.02644  0.38099  Biso   1.000  C
  C102     1.0000 0.62406  0.97356  0.61901  Biso   1.000  C
  H31      1.0000 0.41430  0.01740  0.41510  Biso   1.000  H
  H32      1.0000 0.58570  0.98260  0.58490  Biso   1.000  H
  C103     1.0000 0.25624  0.17639  0.43180  Biso   1.000  C
  C104     1.0000 0.74376  0.82361  0.56820  Biso   1.000  C
  C105     1.0000 0.32061  0.87741  0.06888  Biso   1.000  C
  C106     1.0000 0.67939  0.12259  0.93112  Biso   1.000  C
  H33      1.0000 0.26770  0.92770  0.04610  Biso   1.000  H
  H34      1.0000 0.73230  0.07230  0.95390  Biso   1.000  H
  H35      1.0000 0.38690  0.88220  0.04640  Biso   1.000  H
  H36      1.0000 0.61310  0.11780  0.95360  Biso   1.000  H
  H37      1.0000 0.30830  0.88990  0.11230  Biso   1.000  H
  H38      1.0000 0.69170  0.11010  0.88770  Biso   1.000  H
  C107     1.0000 0.52927  0.16214  0.20468  Biso   1.000  C
  C108     1.0000 0.47073  0.83786  0.79532  Biso   1.000  C
  C109     1.0000 0.51254  0.62527  0.26090  Biso   1.000  C
  C110     1.0000 0.48746  0.37473  0.73910  Biso   1.000  C
  H39      1.0000 0.58280  0.57730  0.26350  Biso   1.000  H
  H40      1.0000 0.41720  0.42270  0.73650  Biso   1.000  H
  C111     1.0000 0.46903  0.08796  0.13650  Biso   1.000  C
  C112     1.0000 0.53097  0.91204  0.86350  Biso   1.000  C
  H41      1.0000 0.53190  0.09460  0.10640  Biso   1.000  H
  H42      1.0000 0.46810  0.90540  0.89360  Biso   1.000  H
  C113     1.0000 0.31189  0.51751  0.42207  Biso   1.000  C
  C114     1.0000 0.68811  0.48249  0.57793  Biso   1.000  C
  C115     1.0000 0.69565  0.68780  0.39046  Biso   1.000  C
  C116     1.0000 0.30435  0.31220  0.60954  Biso   1.000  C
  H43      1.0000 0.73830  0.72790  0.37760  Biso   1.000  H
  H44      1.0000 0.26170  0.27210  0.62240  Biso   1.000  H
  C117     1.0000 0.66770  0.54310  0.38994  Biso   1.000  C
  C118     1.0000 0.33230  0.45690  0.61006  Biso   1.000  C
  H45      1.0000 0.69030  0.48000  0.37670  Biso   1.000  H
  H46      1.0000 0.30970  0.52000  0.62330  Biso   1.000  H
  C119     1.0000 0.98589  0.61940  0.37306  Biso   1.000  C
  C120     1.0000 0.01411  0.38060  0.62694  Biso   1.000  C
  C121     1.0000 0.99539  0.07926  0.36161  Biso   1.000  C
  C122     1.0000 0.00461  0.92074  0.63839  Biso   1.000  C
  H47      1.0000 0.05600  0.04320  0.33400  Biso   1.000  H
  H48      1.0000 0.94400  0.95680  0.66600  Biso   1.000  H
  H49      1.0000 0.93490  0.08800  0.34560  Biso   1.000  H
  H50      1.0000 0.06510  0.91200  0.65440  Biso   1.000  H
  H51      1.0000 0.99260  0.04040  0.40520  Biso   1.000  H
  H52      1.0000 0.00740  0.95960  0.59480  Biso   1.000  H
  C123     1.0000 0.17923  0.69105  0.42339  Biso   1.000  C
  C124     1.0000 0.82077  0.30895  0.57661  Biso   1.000  C
  H53      1.0000 0.15930  0.66000  0.46860  Biso   1.000  H
  H54      1.0000 0.84070  0.34000  0.53140  Biso   1.000  H
  C125     1.0000 0.46650  0.98365  0.13679  Biso   1.000  C
  C126     1.0000 0.53350  0.01635  0.86321  Biso   1.000  C
  H55      1.0000 0.52540  0.93170  0.15310  Biso   1.000  H
  H56      1.0000 0.47460  0.06830  0.84690  Biso   1.000  H
  H57      1.0000 0.46840  0.97750  0.09320  Biso   1.000  H
  H58      1.0000 0.53160  0.02250  0.90680  Biso   1.000  H
  H59      1.0000 0.40430  0.97510  0.16420  Biso   1.000  H
  H60      1.0000 0.59570  0.02490  0.83580  Biso   1.000  H
  C127     1.0000 0.51530  0.72947  0.25984  Biso   1.000  C
  C128     1.0000 0.48470  0.27053  0.74016  Biso   1.000  C
  H61      1.0000 0.44810  0.77970  0.25630  Biso   1.000  H
  H62      1.0000 0.55190  0.22030  0.74370  Biso   1.000  H
  H63      1.0000 0.56500  0.74610  0.22320  Biso   1.000  H
  H64      1.0000 0.43500  0.25390  0.77680  Biso   1.000  H
  H65      1.0000 0.53440  0.72950  0.29930  Biso   1.000  H
  H66      1.0000 0.46560  0.27050  0.70070  Biso   1.000  H
  C129     1.0000 0.99070  0.94277  0.23341  Biso   1.000  C
  C130     1.0000 0.00930  0.05723  0.76659  Biso   1.000  C
  H67      1.0000 0.05970  0.93670  0.23520  Biso   1.000  H
  H68      1.0000 0.94030  0.06330  0.76480  Biso   1.000  H
  H69      1.0000 0.94390  0.96970  0.27040  Biso   1.000  H
  H70      1.0000 0.05610  0.03030  0.72960  Biso   1.000  H
  H71      1.0000 0.97080  0.98840  0.19420  Biso   1.000  H
  H72      1.0000 0.02920  0.01160  0.80580  Biso   1.000  H
  O53      1.0000 0.66350  0.20050  0.39371  Biso   1.000  O
  O54      1.0000 0.33650  0.79950  0.60629  Biso   1.000  O
  C131     1.0000 0.31139  0.34580  0.05816  Biso   1.000  C
  C132     1.0000 0.68861  0.65420  0.94184  Biso   1.000  C
  C133     1.0000 0.17860  0.79551  0.42480  Biso   1.000  C
  C134     1.0000 0.82140  0.20449  0.57520  Biso   1.000  C
  H73      1.0000 0.20010  0.82810  0.38140  Biso   1.000  H
  H74      1.0000 0.79990  0.17190  0.61860  Biso   1.000  H
  H75      1.0000 0.22540  0.78910  0.45210  Biso   1.000  H
  H76      1.0000 0.77460  0.21090  0.54790  Biso   1.000  H
  H77      1.0000 0.11010  0.83640  0.44180  Biso   1.000  H
  H78      1.0000 0.88990  0.16360  0.55820  Biso   1.000  H
  C135     1.0000 0.60260  0.72240  0.42991  Biso   1.000  C
  C136     1.0000 0.39740  0.27760  0.57009  Biso   1.000  C
  H79      1.0000 0.58150  0.78520  0.44320  Biso   1.000  H
  H80      1.0000 0.41850  0.21480  0.55680  Biso   1.000  H
  N5       1.0000 0.25860  0.39798  0.32328  Biso   1.000  N
  N6       1.0000 0.74140  0.60202  0.67672  Biso   1.000  N
  C137     1.0000 0.37580  0.92199  0.37975  Biso   1.000  C
  C138     1.0000 0.62420  0.07801  0.62025  Biso   1.000  C
  H81      1.0000 0.34430  0.89400  0.42180  Biso   1.000  H
  H82      1.0000 0.65570  0.10600  0.57820  Biso   1.000  H
  H83      1.0000 0.44570  0.87760  0.36920  Biso   1.000  H
  H84      1.0000 0.55430  0.12240  0.63080  Biso   1.000  H
  H85      1.0000 0.33740  0.92750  0.34750  Biso   1.000  H
  H86      1.0000 0.66260  0.07250  0.65250  Biso   1.000  H
  C139     1.0000 0.08970  0.13752  0.11756  Biso   1.000  C
  C140     1.0000 0.91030  0.86248  0.88244  Biso   1.000  C
  H87      1.0000 0.12260  0.11800  0.07590  Biso   1.000  H
  H88      1.0000 0.87740  0.88200  0.92410  Biso   1.000  H
  H89      1.0000 0.01910  0.13980  0.12650  Biso   1.000  H
  H90      1.0000 0.98090  0.86020  0.87350  Biso   1.000  H
  H91      1.0000 0.12530  0.08820  0.15070  Biso   1.000  H
  H92      1.0000 0.87470  0.91180  0.84930  Biso   1.000  H
  C141     1.0000 0.25150  0.33489  0.29114  Biso   1.000  C
  C142     1.0000 0.74850  0.66511  0.70886  Biso   1.000  C
  H93      1.0000 0.25830  0.26770  0.31240  Biso   1.000  H
  H94      1.0000 0.74170  0.73230  0.68760  Biso   1.000  H
  C143     1.0000 0.24910  0.49219  0.29192  Biso   1.000  C
  C144     1.0000 0.75090  0.50781  0.70808  Biso   1.000  C
  H95      1.0000 0.25290  0.53840  0.31390  Biso   1.000  H
  H96      1.0000 0.74710  0.46160  0.68610  Biso   1.000  H
  C145     1.0000 0.54170  0.66280  0.44918  Biso   1.000  C
  C146     1.0000 0.45830  0.33720  0.55082  Biso   1.000  C
  H97      1.0000 0.47780  0.68440  0.47610  Biso   1.000  H
  H98      1.0000 0.52220  0.31560  0.52390  Biso   1.000  H
  C147     1.0000 0.23520  0.36160  0.22972  Biso   1.000  C
  C148     1.0000 0.76480  0.63840  0.77028  Biso   1.000  C
  H99      1.0000 0.22970  0.31440  0.20930  Biso   1.000  H
  H100     1.0000 0.77030  0.68560  0.79070  Biso   1.000  H
  C149     1.0000 0.57380  0.57230  0.42930  Biso   1.000  C
  C150     1.0000 0.42620  0.42770  0.57070  Biso   1.000  C
  H101     1.0000 0.53280  0.53050  0.44220  Biso   1.000  H
  H102     1.0000 0.46720  0.46950  0.55780  Biso   1.000  H
  C151     1.0000 0.72720  0.83080  0.04121  Biso   1.000  C
  C152     1.0000 0.27280  0.16920  0.95879  Biso   1.000  C
  H103     1.0000 0.72460  0.89680  0.01930  Biso   1.000  H
  H104     1.0000 0.27540  0.10320  0.98070  Biso   1.000  H
  C153     1.0000 0.23410  0.52580  0.22944  Biso   1.000  C
  C154     1.0000 0.76590  0.47420  0.77056  Biso   1.000  C
  H105     1.0000 0.22900  0.59290  0.20880  Biso   1.000  H
  H106     1.0000 0.77100  0.40710  0.79120  Biso   1.000  H
  C155     1.0000 0.81200  0.76600  0.06682  Biso   1.000  C
  C156     1.0000 0.18800  0.23400  0.93318  Biso   1.000  C
  H107     1.0000 0.86750  0.78870  0.06150  Biso   1.000  H
  H108     1.0000 0.13250  0.21130  0.93850  Biso   1.000  H
  C157     1.0000 0.22690  0.45910  0.19764  Biso   1.000  C
  C158     1.0000 0.77310  0.54090  0.80236  Biso   1.000  C
  H109     1.0000 0.21630  0.47970  0.15470  Biso   1.000  H
  H110     1.0000 0.78370  0.52030  0.84530  Biso   1.000  H
  C159     1.0000 0.80370  0.24090  0.21640  Biso   1.000  C
  C160     1.0000 0.19630  0.75910  0.78360  Biso   1.000  C
  H111     1.0000 0.79380  0.30200  0.23160  Biso   1.000  H
  H112     1.0000 0.20620  0.69800  0.76840  Biso   1.000  H
  H113     1.0000 0.87600  0.20150  0.20940  Biso   1.000  H
  H114     1.0000 0.12400  0.79850  0.79060  Biso   1.000  H
  H115     1.0000 0.76660  0.20050  0.24840  Biso   1.000  H
  H116     1.0000 0.23340  0.79950  0.75160  Biso   1.000  H
  C161     1.0000 0.72250  0.24420  0.41010  Biso   1.000  C
  C162     1.0000 0.27750  0.75580  0.58990  Biso   1.000  C
  H117     1.0000 0.76840  0.26330  0.37190  Biso   1.000  H
  H118     1.0000 0.23160  0.73670  0.62810  Biso   1.000  H
  H119     1.0000 0.76210  0.19560  0.44170  Biso   1.000  H
  H120     1.0000 0.23790  0.80440  0.55830  Biso   1.000  H
  H121     1.0000 0.67830  0.30410  0.42810  Biso   1.000  H
  H122     1.0000 0.32170  0.69590  0.57190  Biso   1.000  H
  O55      1.0000 0.81780  0.20190  0.25650  Biso   1.000  O
  O56      1.0000 0.18220  0.79810  0.74350  Biso   1.000  O
