data_image0
_cell_length_a       15.268
_cell_length_b       15.399
_cell_length_c       26.583
_cell_angle_alpha    103.563
_cell_angle_beta     96.004
_cell_angle_gamma    97.402

_symmetry_space_group_name_H-M    "P 1"
_symmetry_int_tables_number       1

loop_
  _symmetry_equiv_pos_as_xyz
  'x, y, z'

loop_
  _atom_site_label
  _atom_site_occupancy
  _atom_site_fract_x
  _atom_site_fract_y
  _atom_site_fract_z
  _atom_site_thermal_displace_type
  _atom_site_B_iso_or_equiv
  _atom_site_type_symbol
  Cu1      1.0000 0.26056  0.48773  0.24639  Biso   1.000  Cu
  Cu2      1.0000 0.73944  0.51227  0.75361  Biso   1.000  Cu
  S1       1.0000 0.47490  0.37520  0.09530  Biso   1.000  S
  S2       1.0000 0.52510  0.62480  0.90470  Biso   1.000  S
  O1       1.0000 0.78740  0.12900  0.31850  Biso   1.000  O
  O2       1.0000 0.21260  0.87100  0.68150  Biso   1.000  O
  C1       1.0000 0.85100  0.26760  0.38600  Biso   1.000  C
  C2       1.0000 0.14900  0.73240  0.61400  Biso   1.000  C
  Cu3      1.0000 0.25261  0.27559  0.28763  Biso   1.000  Cu
  Cu4      1.0000 0.74739  0.72441  0.71237  Biso   1.000  Cu
  S3       1.0000 0.32520  0.54780  0.07790  Biso   1.000  S
  S4       1.0000 0.67480  0.45220  0.92210  Biso   1.000  S
  O3       1.0000 0.94660  0.08690  0.30670  Biso   1.000  O
  O4       1.0000 0.05340  0.91310  0.69330  Biso   1.000  O
  C3       1.0000 0.85770  0.18820  0.35040  Biso   1.000  C
  C4       1.0000 0.14230  0.81180  0.64960  Biso   1.000  C
  Cu5      1.0000 0.07609  0.09679  0.29398  Biso   1.000  Cu
  Cu6      1.0000 0.92391  0.90321  0.70602  Biso   1.000  Cu
  S5       1.0000 0.48170  0.31510  0.30970  Biso   1.000  S
  S6       1.0000 0.51830  0.68490  0.69030  Biso   1.000  S
  O5       1.0000 0.09790  0.18580  0.36050  Biso   1.000  O
  O6       1.0000 0.90210  0.81420  0.63950  Biso   1.000  O
  C5       1.0000 0.94100  0.15930  0.34410  Biso   1.000  C
  C6       1.0000 0.05900  0.84070  0.65590  Biso   1.000  C
  Cu7      1.0000 0.83152  0.05040  0.26066  Biso   1.000  Cu
  Cu8      1.0000 0.16848  0.94960  0.73934  Biso   1.000  Cu
  S7       1.0000 0.13840  0.92120  0.29430  Biso   1.000  S
  S8       1.0000 0.86160  0.07880  0.70570  Biso   1.000  S
  O7       1.0000 0.21490  0.30370  0.35600  Biso   1.000  O
  O8       1.0000 0.78510  0.69630  0.64400  Biso   1.000  O
  C7       1.0000 0.01990  0.21910  0.37300  Biso   1.000  C
  C8       1.0000 0.98010  0.78090  0.62700  Biso   1.000  C
  Cu9      1.0000 0.66511  0.17064  0.20608  Biso   1.000  Cu
  Cu10     1.0000 0.33489  0.82936  0.79392  Biso   1.000  Cu
  O9       1.0000 0.26440  0.40930  0.29560  Biso   1.000  O
  O10      1.0000 0.73560  0.59070  0.70440  Biso   1.000  O
  C9       1.0000 0.01300  0.29540  0.40800  Biso   1.000  C
  C10      1.0000 0.98700  0.70460  0.59200  Biso   1.000  C
  Cu11     1.0000 0.67632  0.37988  0.16466  Biso   1.000  Cu
  Cu12     1.0000 0.32368  0.62012  0.83534  Biso   1.000  Cu
  O11      1.0000 0.22270  0.57350  0.30450  Biso   1.000  O
  O12      1.0000 0.77730  0.42650  0.69550  Biso   1.000  O
  C11      1.0000 0.93170  0.31970  0.41500  Biso   1.000  C
  C12      1.0000 0.06830  0.68030  0.58500  Biso   1.000  C
  H1       1.0000 0.92890  0.37380  0.44040  Biso   1.000  H
  H2       1.0000 0.07110  0.62620  0.55960  Biso   1.000  H
  Cu13     1.0000 0.85249  0.56026  0.15886  Biso   1.000  Cu
  Cu14     1.0000 0.14751  0.43974  0.84114  Biso   1.000  Cu
  O13      1.0000 0.11520  0.64990  0.26780  Biso   1.000  O
  O14      1.0000 0.88480  0.35010  0.73220  Biso   1.000  O
  C13      1.0000 0.09830  0.35440  0.43820  Biso   1.000  C
  C14      1.0000 0.90170  0.64560  0.56180  Biso   1.000  C
  H3       1.0000 0.14270  0.31290  0.44150  Biso   1.000  H
  H4       1.0000 0.85730  0.68710  0.55850  Biso   1.000  H
  Cu15     1.0000 0.09193  0.60436  0.19209  Biso   1.000  Cu
  Cu16     1.0000 0.90807  0.39564  0.80791  Biso   1.000  Cu
  O15      1.0000 0.96690  0.62330  0.20080  Biso   1.000  O
  O16      1.0000 0.03310  0.37670  0.79920  Biso   1.000  O
  C15      1.0000 0.13610  0.41820  0.40410  Biso   1.000  C
  C16      1.0000 0.86390  0.58180  0.59590  Biso   1.000  C
  O17      1.0000 0.80370  0.59570  0.22550  Biso   1.000  O
  O18      1.0000 0.19630  0.40430  0.77450  Biso   1.000  O
  C17      1.0000 0.19050  0.39090  0.36560  Biso   1.000  C
  C18      1.0000 0.80950  0.60910  0.63440  Biso   1.000  C
  O19      1.0000 0.68970  0.47450  0.22870  Biso   1.000  O
  O20      1.0000 0.31030  0.52550  0.77130  Biso   1.000  O
  C19      1.0000 0.21690  0.44520  0.33510  Biso   1.000  C
  C20      1.0000 0.78310  0.55480  0.66490  Biso   1.000  C
  O21      1.0000 0.65010  0.29830  0.21040  Biso   1.000  O
  O22      1.0000 0.34990  0.70170  0.78960  Biso   1.000  O
  C21      1.0000 0.19390  0.52720  0.33850  Biso   1.000  C
  C22      1.0000 0.80610  0.47280  0.66150  Biso   1.000  C
  O23      1.0000 0.67980  0.20920  0.28270  Biso   1.000  O
  O24      1.0000 0.32020  0.79080  0.71730  Biso   1.000  O
  C23      1.0000 0.14010  0.56230  0.37650  Biso   1.000  C
  C24      1.0000 0.85990  0.43770  0.62350  Biso   1.000  C
  O25      1.0000 0.67780  0.28020  0.10340  Biso   1.000  O
  O26      1.0000 0.32220  0.71980  0.89660  Biso   1.000  O
  C25      1.0000 0.11460  0.50350  0.40800  Biso   1.000  C
  C26      1.0000 0.88540  0.49650  0.59200  Biso   1.000  C
  H5       1.0000 0.07940  0.52490  0.43430  Biso   1.000  H
  H6       1.0000 0.92060  0.47510  0.56570  Biso   1.000  H
  O27      1.0000 0.75810  0.45190  0.13160  Biso   1.000  O
  O28      1.0000 0.24190  0.54810  0.86840  Biso   1.000  O
  C27      1.0000 0.10870  0.65360  0.37960  Biso   1.000  C
  C28      1.0000 0.89130  0.34640  0.62040  Biso   1.000  C
  H7       1.0000 0.15750  0.69090  0.36800  Biso   1.000  H
  H8       1.0000 0.84250  0.30910  0.63200  Biso   1.000  H
  O29      1.0000 0.90440  0.51100  0.09540  Biso   1.000  O
  O30      1.0000 0.09560  0.48900  0.90460  Biso   1.000  O
  C29      1.0000 0.02700  0.64180  0.33800  Biso   1.000  C
  C30      1.0000 0.97300  0.35820  0.66200  Biso   1.000  C
  O31      1.0000 0.06420  0.54120  0.11880  Biso   1.000  O
  O32      1.0000 0.93580  0.45880  0.88120  Biso   1.000  O
  C31      1.0000 0.03190  0.64030  0.28890  Biso   1.000  C
  C32      1.0000 0.96810  0.35970  0.71110  Biso   1.000  C
  O33      1.0000 0.19120  0.53040  0.19250  Biso   1.000  O
  O34      1.0000 0.80880  0.46960  0.80750  Biso   1.000  O
  C33      1.0000 0.96020  0.62970  0.25170  Biso   1.000  C
  C34      1.0000 0.03980  0.37030  0.74830  Biso   1.000  C
  O35      1.0000 0.27570  0.39110  0.18620  Biso   1.000  O
  O36      1.0000 0.72430  0.60890  0.81380  Biso   1.000  O
  C35      1.0000 0.87290  0.61230  0.26550  Biso   1.000  C
  C36      1.0000 0.12710  0.38770  0.73450  Biso   1.000  C
  O37      1.0000 0.26990  0.25110  0.21490  Biso   1.000  O
  O38      1.0000 0.73010  0.74890  0.78510  Biso   1.000  O
  C37      1.0000 0.86460  0.61390  0.31590  Biso   1.000  C
  C38      1.0000 0.13540  0.38610  0.68410  Biso   1.000  C
  O39      1.0000 0.18080  0.15270  0.26720  Biso   1.000  O
  O40      1.0000 0.81920  0.84730  0.73280  Biso   1.000  O
  C39      1.0000 0.94000  0.62930  0.35330  Biso   1.000  C
  C40      1.0000 0.06000  0.37070  0.64670  Biso   1.000  C
  H9       1.0000 0.93360  0.63140  0.38870  Biso   1.000  H
  H10      1.0000 0.06640  0.36860  0.61130  Biso   1.000  H
  O41      1.0000 0.04650  0.02240  0.22340  Biso   1.000  O
  O42      1.0000 0.95350  0.97760  0.77660  Biso   1.000  O
  C41      1.0000 0.77040  0.59300  0.33040  Biso   1.000  C
  C42      1.0000 0.22960  0.40700  0.66960  Biso   1.000  C
  H11      1.0000 0.72830  0.61410  0.30620  Biso   1.000  H
  H12      1.0000 0.27170  0.38590  0.69380  Biso   1.000  H
  O43      1.0000 0.88530  0.99230  0.19940  Biso   1.000  O
  O44      1.0000 0.11470  0.00770  0.80060  Biso   1.000  O
  C43      1.0000 0.74250  0.48960  0.32060  Biso   1.000  C
  C44      1.0000 0.25750  0.51040  0.67940  Biso   1.000  C
  O45      1.0000 0.74510  0.07920  0.20700  Biso   1.000  O
  O46      1.0000 0.25490  0.92080  0.79300  Biso   1.000  O
  C45      1.0000 0.70740  0.43920  0.27180  Biso   1.000  C
  C46      1.0000 0.29260  0.56080  0.72820  Biso   1.000  C
  O47      1.0000 0.67400  0.14400  0.13230  Biso   1.000  O
  O48      1.0000 0.32600  0.85600  0.86770  Biso   1.000  O
  C47      1.0000 0.68340  0.34280  0.25890  Biso   1.000  C
  C48      1.0000 0.31660  0.65720  0.74110  Biso   1.000  C
  C49      1.0000 0.70110  0.30160  0.29970  Biso   1.000  C
  C50      1.0000 0.29890  0.69840  0.70030  Biso   1.000  C
  C51      1.0000 0.73720  0.34670  0.34760  Biso   1.000  C
  C52      1.0000 0.26280  0.65330  0.65240  Biso   1.000  C
  C53      1.0000 0.75840  0.44270  0.35990  Biso   1.000  C
  C54      1.0000 0.24160  0.55730  0.64010  Biso   1.000  C
  H13      1.0000 0.78320  0.47550  0.39440  Biso   1.000  H
  H14      1.0000 0.21680  0.52450  0.60560  Biso   1.000  H
  C55      1.0000 0.76300  0.29810  0.38970  Biso   1.000  C
  C56      1.0000 0.23700  0.70190  0.61030  Biso   1.000  C
  H15      1.0000 0.71890  0.24100  0.38090  Biso   1.000  H
  H16      1.0000 0.28110  0.75900  0.61910  Biso   1.000  H
  C57      1.0000 0.09270  0.40700  0.49260  Biso   1.000  C
  C58      1.0000 0.90730  0.59300  0.50740  Biso   1.000  C
  H17      1.0000 0.05210  0.45100  0.49120  Biso   1.000  H
  H18      1.0000 0.94790  0.54900  0.50880  Biso   1.000  H
  H19      1.0000 0.15220  0.43900  0.50930  Biso   1.000  H
  H20      1.0000 0.84780  0.56100  0.49070  Biso   1.000  H
  H21      1.0000 0.07040  0.36550  0.51290  Biso   1.000  H
  H22      1.0000 0.92960  0.63450  0.48710  Biso   1.000  H
  O49      1.0000 0.54340  0.41290  0.14330  Biso   1.000  O
  O50      1.0000 0.45660  0.58710  0.85670  Biso   1.000  O
  C59      1.0000 0.10100  0.70620  0.43420  Biso   1.000  C
  C60      1.0000 0.89900  0.29380  0.56580  Biso   1.000  C
  H23      1.0000 0.05710  0.67120  0.44910  Biso   1.000  H
  H24      1.0000 0.94290  0.32880  0.55090  Biso   1.000  H
  H25      1.0000 0.08170  0.76400  0.43270  Biso   1.000  H
  H26      1.0000 0.91830  0.23600  0.56730  Biso   1.000  H
  H27      1.0000 0.15910  0.71770  0.45610  Biso   1.000  H
  H28      1.0000 0.84090  0.28230  0.54390  Biso   1.000  H
  O51      1.0000 0.41720  0.58400  0.07050  Biso   1.000  O
  O52      1.0000 0.58280  0.41600  0.92950  Biso   1.000  O
  C61      1.0000 0.75940  0.64070  0.38580  Biso   1.000  C
  C62      1.0000 0.24060  0.35930  0.61420  Biso   1.000  C
  H29      1.0000 0.69650  0.62930  0.39060  Biso   1.000  H
  H30      1.0000 0.30350  0.37070  0.60940  Biso   1.000  H
  H31      1.0000 0.77870  0.70590  0.39170  Biso   1.000  H
  H32      1.0000 0.22130  0.29410  0.60830  Biso   1.000  H
  H33      1.0000 0.79580  0.61770  0.41080  Biso   1.000  H
  H34      1.0000 0.20420  0.38230  0.58920  Biso   1.000  H
  O53      1.0000 0.39010  0.26470  0.31650  Biso   1.000  O
  O54      1.0000 0.60990  0.73530  0.68350  Biso   1.000  O
  C63      1.0000 0.74990  0.34670  0.44370  Biso   1.000  C
  C64      1.0000 0.25010  0.65330  0.55630  Biso   1.000  C
  H35      1.0000 0.75780  0.30740  0.46750  Biso   1.000  H
  H36      1.0000 0.24220  0.69260  0.53250  Biso   1.000  H
  H37      1.0000 0.68960  0.36210  0.44300  Biso   1.000  H
  H38      1.0000 0.31040  0.63790  0.55700  Biso   1.000  H
  H39      1.0000 0.79370  0.40210  0.45590  Biso   1.000  H
  H40      1.0000 0.20630  0.59790  0.54410  Biso   1.000  H
  O55      1.0000 0.11840  0.99530  0.32980  Biso   1.000  O
  O56      1.0000 0.88160  0.00470  0.67020  Biso   1.000  O
  C65      1.0000 0.78960  0.23990  0.04710  Biso   1.000  C
  C66      1.0000 0.21040  0.76010  0.95290  Biso   1.000  C
  C67      1.0000 0.75180  0.30100  0.08010  Biso   1.000  C
  C68      1.0000 0.24820  0.69900  0.91990  Biso   1.000  C
  C69      1.0000 0.79190  0.39040  0.09470  Biso   1.000  C
  C70      1.0000 0.20810  0.60960  0.90530  Biso   1.000  C
  C71      1.0000 0.86810  0.41830  0.07650  Biso   1.000  C
  C72      1.0000 0.13190  0.58170  0.92350  Biso   1.000  C
  C73      1.0000 0.90730  0.35810  0.04410  Biso   1.000  C
  C74      1.0000 0.09270  0.64190  0.95590  Biso   1.000  C
  C75      1.0000 0.86990  0.26890  0.02840  Biso   1.000  C
  C76      1.0000 0.13010  0.73110  0.97160  Biso   1.000  C
  H41      1.0000 0.89700  0.22670  0.00540  Biso   1.000  H
  H42      1.0000 0.10300  0.77330  0.99460  Biso   1.000  H
  C77      1.0000 0.99820  0.39180  0.02490  Biso   1.000  C
  C78      1.0000 0.00180  0.60820  0.97510  Biso   1.000  C
  H43      1.0000 0.99870  0.45670  0.02450  Biso   1.000  H
  H44      1.0000 0.00130  0.54330  0.97550  Biso   1.000  H
  C79      1.0000 0.07650  0.38880  0.06800  Biso   1.000  C
  C80      1.0000 0.92350  0.61120  0.93200  Biso   1.000  C
  C81      1.0000 0.10400  0.45970  0.10910  Biso   1.000  C
  C82      1.0000 0.89600  0.54030  0.89090  Biso   1.000  C
  C83      1.0000 0.16960  0.45750  0.14850  Biso   1.000  C
  C84      1.0000 0.83040  0.54250  0.85150  Biso   1.000  C
  C85      1.0000 0.21010  0.38450  0.14480  Biso   1.000  C
  C86      1.0000 0.78990  0.61550  0.85520  Biso   1.000  C
  C87      1.0000 0.18750  0.31230  0.10420  Biso   1.000  C
  C88      1.0000 0.81250  0.68770  0.89580  Biso   1.000  C
  C89      1.0000 0.12010  0.31470  0.06580  Biso   1.000  C
  C90      1.0000 0.87990  0.68530  0.93420  Biso   1.000  C
  H45      1.0000 0.10290  0.26360  0.03680  Biso   1.000  H
  H46      1.0000 0.89710  0.73640  0.96320  Biso   1.000  H
  C91      1.0000 0.23260  0.22590  0.10090  Biso   1.000  C
  C92      1.0000 0.76740  0.77410  0.89910  Biso   1.000  C
  H47      1.0000 0.29480  0.24670  0.11960  Biso   1.000  H
  H48      1.0000 0.70520  0.75330  0.88040  Biso   1.000  H
  C93      1.0000 0.18360  0.16310  0.13160  Biso   1.000  C
  C94      1.0000 0.81640  0.83690  0.86840  Biso   1.000  C
  C95      1.0000 0.20530  0.18140  0.18360  Biso   1.000  C
  C96      1.0000 0.79470  0.81860  0.81640  Biso   1.000  C
  C97      1.0000 0.16150  0.13240  0.21520  Biso   1.000  C
  C98      1.0000 0.83850  0.86760  0.78480  Biso   1.000  C
  C99      1.0000 0.08920  0.06200  0.18860  Biso   1.000  C
  C100     1.0000 0.91080  0.93800  0.81140  Biso   1.000  C
  C101     1.0000 0.06590  0.04220  0.13730  Biso   1.000  C
  C102     1.0000 0.93410  0.95780  0.86270  Biso   1.000  C
  C103     1.0000 0.11340  0.09370  0.10670  Biso   1.000  C
  C104     1.0000 0.88660  0.90630  0.89330  Biso   1.000  C
  H49      1.0000 0.09690  0.08040  0.06990  Biso   1.000  H
  H50      1.0000 0.90310  0.91960  0.93010  Biso   1.000  H
  C105     1.0000 0.98200  0.97030  0.11030  Biso   1.000  C
  C106     1.0000 0.01800  0.02970  0.88970  Biso   1.000  C
  H51      1.0000 0.97600  0.92490  0.13170  Biso   1.000  H
  H52      1.0000 0.02400  0.07510  0.86830  Biso   1.000  H
  C107     1.0000 0.89560  0.01500  0.11180  Biso   1.000  C
  C108     1.0000 0.10440  0.98500  0.88820  Biso   1.000  C
  C109     1.0000 0.85620  0.02260  0.15820  Biso   1.000  C
  C110     1.0000 0.14380  0.97740  0.84180  Biso   1.000  C
  C111     1.0000 0.78090  0.06690  0.16260  Biso   1.000  C
  C112     1.0000 0.21910  0.93310  0.83740  Biso   1.000  C
  C113     1.0000 0.74750  0.09950  0.12240  Biso   1.000  C
  C114     1.0000 0.25250  0.90050  0.87760  Biso   1.000  C
  C115     1.0000 0.78450  0.09230  0.07640  Biso   1.000  C
  C116     1.0000 0.21550  0.90770  0.92360  Biso   1.000  C
  C117     1.0000 0.86040  0.04740  0.07290  Biso   1.000  C
  C118     1.0000 0.13960  0.95260  0.92710  Biso   1.000  C
  H53      1.0000 0.88710  0.04010  0.04180  Biso   1.000  H
  H54      1.0000 0.11290  0.95990  0.95820  Biso   1.000  H
  C119     1.0000 0.74930  0.13530  0.03440  Biso   1.000  C
  C120     1.0000 0.25070  0.86470  0.96560  Biso   1.000  C
  H55      1.0000 0.68380  0.13240  0.03580  Biso   1.000  H
  H56      1.0000 0.31620  0.86760  0.96420  Biso   1.000  H
  C121     1.0000 0.00670  0.34160  0.97130  Biso   1.000  C
  C122     1.0000 0.99330  0.65840  0.02870  Biso   1.000  C
  H57      1.0000 0.06410  0.36450  0.96200  Biso   1.000  H
  H58      1.0000 0.93590  0.63550  0.03800  Biso   1.000  H
  H59      1.0000 0.95810  0.35000  0.94670  Biso   1.000  H
  H60      1.0000 0.04190  0.65000  0.05330  Biso   1.000  H
  H61      1.0000 0.00370  0.27710  0.96990  Biso   1.000  H
  H62      1.0000 0.99630  0.72290  0.03010  Biso   1.000  H
  C123     1.0000 0.24020  0.17680  0.04620  Biso   1.000  C
  C124     1.0000 0.75980  0.82320  0.95380  Biso   1.000  C
  H63      1.0000 0.27440  0.12740  0.04700  Biso   1.000  H
  H64      1.0000 0.72560  0.87260  0.95300  Biso   1.000  H
  H65      1.0000 0.27070  0.21890  0.02870  Biso   1.000  H
  H66      1.0000 0.72930  0.78110  0.97130  Biso   1.000  H
  H67      1.0000 0.18040  0.15190  0.02700  Biso   1.000  H
  H68      1.0000 0.81960  0.84810  0.97300  Biso   1.000  H
  C125     1.0000 0.99050  0.92010  0.05670  Biso   1.000  C
  C126     1.0000 0.00950  0.07990  0.94330  Biso   1.000  C
  H69      1.0000 0.93540  0.87780  0.04160  Biso   1.000  H
  H70      1.0000 0.06460  0.12220  0.95840  Biso   1.000  H
  H71      1.0000 0.04060  0.88630  0.05800  Biso   1.000  H
  H72      1.0000 0.95940  0.11370  0.94200  Biso   1.000  H
  H73      1.0000 0.00130  0.96290  0.03510  Biso   1.000  H
  H74      1.0000 0.99870  0.03710  0.96490  Biso   1.000  H
  C127     1.0000 0.75830  0.08690  0.97920  Biso   1.000  C
  C128     1.0000 0.24170  0.91310  0.02080  Biso   1.000  C
  H75      1.0000 0.82020  0.07720  0.97730  Biso   1.000  H
  H76      1.0000 0.17980  0.92280  0.02270  Biso   1.000  H
  H77      1.0000 0.74180  0.12380  0.95540  Biso   1.000  H
  H78      1.0000 0.25820  0.87620  0.04460  Biso   1.000  H
  H79      1.0000 0.71880  0.02840  0.96910  Biso   1.000  H
  H80      1.0000 0.28120  0.97160  0.03090  Biso   1.000  H
  N1       1.0000 0.39210  0.57020  0.25510  Biso   1.000  N
  N2       1.0000 0.60790  0.42980  0.74490  Biso   1.000  N
  C129     1.0000 0.44060  0.56930  0.21910  Biso   1.000  C
  C130     1.0000 0.55940  0.43070  0.78090  Biso   1.000  C
  H81      1.0000 0.42560  0.52030  0.18880  Biso   1.000  H
  H82      1.0000 0.57440  0.47970  0.81120  Biso   1.000  H
  C131     1.0000 0.51500  0.63500  0.22030  Biso   1.000  C
  C132     1.0000 0.48500  0.36500  0.77970  Biso   1.000  C
  H83      1.0000 0.54730  0.62840  0.19130  Biso   1.000  H
  H84      1.0000 0.45270  0.37160  0.80870  Biso   1.000  H
  C133     1.0000 0.54110  0.70720  0.26190  Biso   1.000  C
  C134     1.0000 0.45890  0.29280  0.73810  Biso   1.000  C
  C135     1.0000 0.48880  0.71140  0.30350  Biso   1.000  C
  C136     1.0000 0.51120  0.28860  0.69650  Biso   1.000  C
  H85      1.0000 0.50190  0.75950  0.33430  Biso   1.000  H
  H86      1.0000 0.49810  0.24050  0.66570  Biso   1.000  H
  C137     1.0000 0.41450  0.63860  0.29660  Biso   1.000  C
  C138     1.0000 0.58550  0.36140  0.70340  Biso   1.000  C
  H87      1.0000 0.37940  0.64070  0.32420  Biso   1.000  H
  H88      1.0000 0.62060  0.35930  0.67580  Biso   1.000  H
  C139     1.0000 0.61370  0.78380  0.26410  Biso   1.000  C
  C140     1.0000 0.38630  0.21620  0.73590  Biso   1.000  C
  C141     1.0000 0.60560  0.87110  0.29050  Biso   1.000  C
  C142     1.0000 0.39440  0.12890  0.70950  Biso   1.000  C
  H89      1.0000 0.55400  0.88180  0.30660  Biso   1.000  H
  H90      1.0000 0.44600  0.11820  0.69340  Biso   1.000  H
  C143     1.0000 0.67310  0.94260  0.29340  Biso   1.000  C
  C144     1.0000 0.32690  0.05740  0.70660  Biso   1.000  C
  H91      1.0000 0.66750  0.00220  0.31140  Biso   1.000  H
  H92      1.0000 0.33250  0.99780  0.68860  Biso   1.000  H
  N3       1.0000 0.74860  0.92690  0.26980  Biso   1.000  N
  N4       1.0000 0.25140  0.07310  0.73020  Biso   1.000  N
  C145     1.0000 0.75670  0.83970  0.24340  Biso   1.000  C
  C146     1.0000 0.24330  0.16030  0.75660  Biso   1.000  C
  H93      1.0000 0.80830  0.82890  0.22730  Biso   1.000  H
  H94      1.0000 0.19170  0.17110  0.77270  Biso   1.000  H
  C147     1.0000 0.68920  0.76810  0.24050  Biso   1.000  C
  C148     1.0000 0.31080  0.23190  0.75950  Biso   1.000  C
  H95      1.0000 0.69480  0.70850  0.22250  Biso   1.000  H
  H96      1.0000 0.30520  0.29150  0.77750  Biso   1.000  H
  N5       1.0000 0.53590  0.08160  0.19560  Biso   1.000  N
  N6       1.0000 0.46410  0.91840  0.80440  Biso   1.000  N
  C149     1.0000 0.54710  0.99170  0.18910  Biso   1.000  C
  C150     1.0000 0.45290  0.00830  0.81090  Biso   1.000  C
  H97      1.0000 0.60490  0.97540  0.18720  Biso   1.000  H
  H98      1.0000 0.39510  0.02460  0.81280  Biso   1.000  H
  C151     1.0000 0.47390  0.92560  0.18540  Biso   1.000  C
  C152     1.0000 0.52610  0.07440  0.81460  Biso   1.000  C
  H99      1.0000 0.48160  0.86410  0.18100  Biso   1.000  H
  H100     1.0000 0.51840  0.13590  0.81900  Biso   1.000  H
  C153     1.0000 0.38950  0.94940  0.18820  Biso   1.000  C
  C154     1.0000 0.61050  0.05060  0.81180  Biso   1.000  C
  C155     1.0000 0.37820  0.03930  0.19470  Biso   1.000  C
  C156     1.0000 0.62180  0.96070  0.80530  Biso   1.000  C
  H101     1.0000 0.32050  0.05560  0.19660  Biso   1.000  H
  H102     1.0000 0.67950  0.94440  0.80340  Biso   1.000  H
  C157     1.0000 0.45140  0.10540  0.19840  Biso   1.000  C
  C158     1.0000 0.54860  0.89460  0.80160  Biso   1.000  C
  H103     1.0000 0.44380  0.16690  0.20290  Biso   1.000  H
  H104     1.0000 0.55620  0.83310  0.79710  Biso   1.000  H
  C159     1.0000 0.31030  0.87560  0.18820  Biso   1.000  C
  C160     1.0000 0.68970  0.12440  0.81180  Biso   1.000  C
  C161     1.0000 0.33040  0.80480  0.20920  Biso   1.000  C
  C162     1.0000 0.66960  0.19520  0.79080  Biso   1.000  C
  H105     1.0000 0.38960  0.80520  0.22450  Biso   1.000  H
  H106     1.0000 0.61040  0.19480  0.77550  Biso   1.000  H
  C163     1.0000 0.26380  0.73330  0.20790  Biso   1.000  C
  C164     1.0000 0.73620  0.26670  0.79210  Biso   1.000  C
  H107     1.0000 0.27750  0.68490  0.22230  Biso   1.000  H
  H108     1.0000 0.72250  0.31510  0.77770  Biso   1.000  H
  N7       1.0000 0.17710  0.73270  0.18560  Biso   1.000  N
  N8       1.0000 0.82290  0.26730  0.81440  Biso   1.000  N
  C165     1.0000 0.15710  0.80350  0.16450  Biso   1.000  C
  C166     1.0000 0.84290  0.19650  0.83550  Biso   1.000  C
  H109     1.0000 0.09790  0.80310  0.14930  Biso   1.000  H
  H110     1.0000 0.90210  0.19690  0.85070  Biso   1.000  H
  C167     1.0000 0.22370  0.87500  0.16590  Biso   1.000  C
  C168     1.0000 0.77630  0.12500  0.83410  Biso   1.000  C
  H111     1.0000 0.21000  0.92340  0.15150  Biso   1.000  H
  H112     1.0000 0.79000  0.07660  0.84850  Biso   1.000  H
  N9       1.0000 0.77540  0.65190  0.12440  Biso   1.000  N
  N10      1.0000 0.22460  0.34810  0.87560  Biso   1.000  N
  C169     1.0000 0.68430  0.62030  0.11370  Biso   1.000  C
  C170     1.0000 0.31570  0.37970  0.88630  Biso   1.000  C
  H113     1.0000 0.66160  0.56260  0.11830  Biso   1.000  H
  H114     1.0000 0.33840  0.43740  0.88170  Biso   1.000  H
  C171     1.0000 0.62620  0.67300  0.09630  Biso   1.000  C
  C172     1.0000 0.37380  0.32700  0.90370  Biso   1.000  C
  H115     1.0000 0.56390  0.65140  0.08900  Biso   1.000  H
  H116     1.0000 0.43610  0.34860  0.91100  Biso   1.000  H
  C173     1.0000 0.65940  0.75730  0.08960  Biso   1.000  C
  C174     1.0000 0.34060  0.24270  0.91040  Biso   1.000  C
  C175     1.0000 0.75050  0.78890  0.10030  Biso   1.000  C
  C176     1.0000 0.24950  0.21110  0.89970  Biso   1.000  C
  H117     1.0000 0.77310  0.84660  0.09570  Biso   1.000  H
  H118     1.0000 0.22690  0.15340  0.90430  Biso   1.000  H
  C177     1.0000 0.80850  0.73620  0.11760  Biso   1.000  C
  C178     1.0000 0.19150  0.26380  0.88240  Biso   1.000  C
  H119     1.0000 0.87080  0.75790  0.12490  Biso   1.000  H
  H120     1.0000 0.12920  0.24210  0.87510  Biso   1.000  H
  C179     1.0000 0.59510  0.81630  0.07240  Biso   1.000  C
  C180     1.0000 0.40490  0.18370  0.92760  Biso   1.000  C
  C181     1.0000 0.50130  0.78450  0.06610  Biso   1.000  C
  C182     1.0000 0.49870  0.21550  0.93390  Biso   1.000  C
  H121     1.0000 0.47940  0.72980  0.07450  Biso   1.000  H
  H122     1.0000 0.52060  0.27020  0.92550  Biso   1.000  H
  C183     1.0000 0.44500  0.83370  0.04800  Biso   1.000  C
  C184     1.0000 0.55500  0.16630  0.95200  Biso   1.000  C
  H123     1.0000 0.38300  0.81160  0.04400  Biso   1.000  H
  H124     1.0000 0.61700  0.18840  0.95600  Biso   1.000  H
  N11      1.0000 0.46970  0.91380  0.03460  Biso   1.000  N
  N12      1.0000 0.53030  0.08620  0.96540  Biso   1.000  N
  C185     1.0000 0.56380  0.94070  0.04210  Biso   1.000  C
  C186     1.0000 0.43620  0.05930  0.95790  Biso   1.000  C
  H125     1.0000 0.58490  0.99570  0.03380  Biso   1.000  H
  H126     1.0000 0.41510  0.00430  0.96620  Biso   1.000  H
  C187     1.0000 0.62670  0.89580  0.06000  Biso   1.000  C
  C188     1.0000 0.37330  0.10420  0.94000  Biso   1.000  C
  H127     1.0000 0.68870  0.91790  0.06370  Biso   1.000  H
  H128     1.0000 0.31130  0.08210  0.93630  Biso   1.000  H
  C189     1.0000 0.46790  0.25190  0.07770  Biso   1.000  C
  C190     1.0000 0.53210  0.74810  0.92230  Biso   1.000  C
  H129     1.0000 0.52510  0.23600  0.06820  Biso   1.000  H
  H130     1.0000 0.47490  0.76400  0.93180  Biso   1.000  H
  H131     1.0000 0.42090  0.22540  0.04800  Biso   1.000  H
  H132     1.0000 0.57910  0.77460  0.95200  Biso   1.000  H
  H133     1.0000 0.45380  0.22820  0.10760  Biso   1.000  H
  H134     1.0000 0.54620  0.77180  0.89240  Biso   1.000  H
  C191     1.0000 0.52710  0.40010  0.04080  Biso   1.000  C
  C192     1.0000 0.47290  0.59990  0.95920  Biso   1.000  C
  H135     1.0000 0.52920  0.46440  0.04200  Biso   1.000  H
  H136     1.0000 0.47080  0.53560  0.95800  Biso   1.000  H
  H137     1.0000 0.49250  0.36350  0.00790  Biso   1.000  H
  H138     1.0000 0.50750  0.63650  0.99210  Biso   1.000  H
  H139     1.0000 0.58790  0.38590  0.04330  Biso   1.000  H
  H140     1.0000 0.41210  0.61410  0.95670  Biso   1.000  H
  C193     1.0000 0.27570  0.47010  0.01710  Biso   1.000  C
  C194     1.0000 0.72430  0.52990  0.98290  Biso   1.000  C
  H141     1.0000 0.28550  0.49830  0.98830  Biso   1.000  H
  H142     1.0000 0.71450  0.50170  0.01170  Biso   1.000  H
  H143     1.0000 0.21150  0.45460  0.01750  Biso   1.000  H
  H144     1.0000 0.78850  0.54540  0.98250  Biso   1.000  H
  H145     1.0000 0.30310  0.41510  0.01240  Biso   1.000  H
  H146     1.0000 0.69690  0.58490  0.98760  Biso   1.000  H
  C195     1.0000 0.25610  0.63070  0.06710  Biso   1.000  C
  C196     1.0000 0.74390  0.36930  0.93290  Biso   1.000  C
  H147     1.0000 0.27150  0.68510  0.09610  Biso   1.000  H
  H148     1.0000 0.72850  0.31490  0.90390  Biso   1.000  H
  H149     1.0000 0.19310  0.60540  0.06500  Biso   1.000  H
  H150     1.0000 0.80690  0.39460  0.93500  Biso   1.000  H
  H151     1.0000 0.26610  0.64640  0.03430  Biso   1.000  H
  H152     1.0000 0.73390  0.35360  0.96570  Biso   1.000  H
  C197     1.0000 0.46470  0.36840  0.25550  Biso   1.000  C
  C198     1.0000 0.53530  0.63160  0.74450  Biso   1.000  C
  H153     1.0000 0.46560  0.32430  0.22240  Biso   1.000  H
  H154     1.0000 0.53440  0.67570  0.77760  Biso   1.000  H
  H155     1.0000 0.51230  0.41980  0.26000  Biso   1.000  H
  H156     1.0000 0.48770  0.58020  0.74000  Biso   1.000  H
  H157     1.0000 0.40690  0.38970  0.25510  Biso   1.000  H
  H158     1.0000 0.59310  0.61030  0.74490  Biso   1.000  H
  C199     1.0000 0.50600  0.41890  0.35950  Biso   1.000  C
  C200     1.0000 0.49400  0.58110  0.64050  Biso   1.000  C
  H159     1.0000 0.45440  0.42800  0.37760  Biso   1.000  H
  H160     1.0000 0.54560  0.57200  0.62240  Biso   1.000  H
  H161     1.0000 0.52130  0.46920  0.34350  Biso   1.000  H
  H162     1.0000 0.47870  0.53080  0.65650  Biso   1.000  H
  H163     1.0000 0.55730  0.41630  0.38460  Biso   1.000  H
  H164     1.0000 0.44270  0.58370  0.61540  Biso   1.000  H
  C201     1.0000 0.03200  0.84200  0.27700  Biso   1.000  C
  C202     1.0000 0.96800  0.15800  0.72300  Biso   1.000  C
  H165     1.0000 0.99010  0.86330  0.25370  Biso   1.000  H
  H166     1.0000 0.00990  0.13670  0.74630  Biso   1.000  H
  H167     1.0000 0.00570  0.83860  0.30880  Biso   1.000  H
  H168     1.0000 0.99430  0.16140  0.69120  Biso   1.000  H
  H169     1.0000 0.04230  0.78160  0.25920  Biso   1.000  H
  H170     1.0000 0.95770  0.21840  0.74080  Biso   1.000  H
  C203     1.0000 0.18900  0.85200  0.33260  Biso   1.000  C
  C204     1.0000 0.81100  0.14800  0.66740  Biso   1.000  C
  H171     1.0000 0.24930  0.88110  0.34830  Biso   1.000  H
  H172     1.0000 0.75070  0.11890  0.65170  Biso   1.000  H
  H173     1.0000 0.19070  0.79210  0.30980  Biso   1.000  H
  H174     1.0000 0.80930  0.20790  0.69020  Biso   1.000  H
  H175     1.0000 0.15280  0.84450  0.36030  Biso   1.000  H
  H176     1.0000 0.84720  0.15550  0.63970  Biso   1.000  H
  C205     1.0000 0.10800  0.82400  0.28100  Biso   1.000  C
  C206     1.0000 0.89200  0.17600  0.71900  Biso   1.000  C
  C207     1.0000 0.96400  0.88400  0.31000  Biso   1.000  C
  C208     1.0000 0.03600  0.11600  0.69000  Biso   1.000  C
  H177     1.0000 0.93300  0.92920  0.33020  Biso   1.000  H
  H178     1.0000 0.06700  0.07080  0.66980  Biso   1.000  H
  H179     1.0000 0.93780  0.82340  0.31210  Biso   1.000  H
  H180     1.0000 0.06220  0.17660  0.68790  Biso   1.000  H
  H181     1.0000 0.95810  0.88690  0.27360  Biso   1.000  H
  H182     1.0000 0.04190  0.11310  0.72640  Biso   1.000  H
  H183     1.0000 0.16980  0.81510  0.28860  Biso   1.000  H
  H184     1.0000 0.83020  0.18490  0.71140  Biso   1.000  H
  H185     1.0000 0.10120  0.84770  0.24980  Biso   1.000  H
  H186     1.0000 0.89880  0.15230  0.75020  Biso   1.000  H
  H187     1.0000 0.06800  0.76650  0.27490  Biso   1.000  H
  H188     1.0000 0.93200  0.23350  0.72510  Biso   1.000  H
  S9       1.0000 0.07940  0.90560  0.33680  Biso   1.000  S
  S10      1.0000 0.92060  0.09440  0.66320  Biso   1.000  S
