data_image0
_cell_length_a       8.1395
_cell_length_b       9.4312
_cell_length_c       10.5473
_cell_angle_alpha    112.183
_cell_angle_beta     92.423
_cell_angle_gamma    104.752

_symmetry_space_group_name_H-M    "P 1"
_symmetry_int_tables_number       1

loop_
  _symmetry_equiv_pos_as_xyz
  'x, y, z'

loop_
  _atom_site_label
  _atom_site_occupancy
  _atom_site_fract_x
  _atom_site_fract_y
  _atom_site_fract_z
  _atom_site_thermal_displace_type
  _atom_site_B_iso_or_equiv
  _atom_site_type_symbol
  Cu1      1.0000 0.34958  0.52617  0.85377  Biso   1.000  Cu
  Cu2      1.0000 0.65042  0.47383  0.14623  Biso   1.000  Cu
  O1       1.0000 0.59460  0.62310  0.85280  Biso   1.000  O
  O2       1.0000 0.40540  0.37690  0.14720  Biso   1.000  O
  O3       1.0000 0.73190  0.64970  0.05180  Biso   1.000  O
  O4       1.0000 0.26810  0.35030  0.94820  Biso   1.000  O
  O5       1.0000 0.10380  0.49580  0.78940  Biso   1.000  O
  O6       1.0000 0.89620  0.50420  0.21060  Biso   1.000  O
  O7       1.0000 0.23670  0.68050  0.71800  Biso   1.000  O
  O8       1.0000 0.76330  0.31950  0.28200  Biso   1.000  O
  N1       1.0000 0.35310  0.33930  0.67800  Biso   1.000  N
  N2       1.0000 0.64690  0.66070  0.32200  Biso   1.000  N
  N3       1.0000 0.34600  0.70880  0.03300  Biso   1.000  N
  N4       1.0000 0.65400  0.29120  0.96700  Biso   1.000  N
  C1       1.0000 0.25300  0.19170  0.64500  Biso   1.000  C
  C2       1.0000 0.74700  0.80830  0.35500  Biso   1.000  C
  H1       1.0000 0.18240  0.17250  0.70740  Biso   1.000  H
  H2       1.0000 0.81760  0.82750  0.29260  Biso   1.000  H
  C3       1.0000 0.24860  0.06470  0.52200  Biso   1.000  C
  C4       1.0000 0.75140  0.93530  0.47800  Biso   1.000  C
  H3       1.0000 0.17470  0.96370  0.50350  Biso   1.000  H
  H4       1.0000 0.82530  0.03630  0.49650  Biso   1.000  H
  C5       1.0000 0.35330  0.08620  0.42600  Biso   1.000  C
  C6       1.0000 0.64670  0.91380  0.57400  Biso   1.000  C
  C7       1.0000 0.46100  0.24040  0.46390  Biso   1.000  C
  C8       1.0000 0.53900  0.75960  0.53610  Biso   1.000  C
  H5       1.0000 0.53710  0.26240  0.40580  Biso   1.000  H
  H6       1.0000 0.46290  0.73760  0.59420  Biso   1.000  H
  C9       1.0000 0.45570  0.36080  0.58670  Biso   1.000  C
  C10      1.0000 0.54430  0.63920  0.41330  Biso   1.000  C
  H7       1.0000 0.52760  0.46330  0.60770  Biso   1.000  H
  H8       1.0000 0.47240  0.53670  0.39230  Biso   1.000  H
  C11      1.0000 0.34970  0.95460  0.29000  Biso   1.000  C
  C12      1.0000 0.65030  0.04540  0.71000  Biso   1.000  C
  C13      1.0000 0.23030  0.80490  0.24380  Biso   1.000  C
  C14      1.0000 0.76970  0.19510  0.75620  Biso   1.000  C
  H9       1.0000 0.14820  0.78360  0.29790  Biso   1.000  H
  H10      1.0000 0.85180  0.21640  0.70210  Biso   1.000  H
  C15      1.0000 0.23290  0.68800  0.11810  Biso   1.000  C
  C16      1.0000 0.76710  0.31200  0.88190  Biso   1.000  C
  H11      1.0000 0.15150  0.58840  0.09030  Biso   1.000  H
  H12      1.0000 0.84850  0.41160  0.90970  Biso   1.000  H
  C17      1.0000 0.45790  0.85600  0.07610  Biso   1.000  C
  C18      1.0000 0.54210  0.14400  0.92390  Biso   1.000  C
  H13      1.0000 0.53540  0.87560  0.01810  Biso   1.000  H
  H14      1.0000 0.46460  0.12440  0.98190  Biso   1.000  H
  C19      1.0000 0.46460  0.97940  0.20070  Biso   1.000  C
  C20      1.0000 0.53540  0.02060  0.79930  Biso   1.000  C
  H15      1.0000 0.54520  0.07880  0.22530  Biso   1.000  H
  H16      1.0000 0.45480  0.92120  0.77470  Biso   1.000  H
  C21      1.0000 0.72570  0.67470  0.94420  Biso   1.000  C
  C22      1.0000 0.27430  0.32530  0.05580  Biso   1.000  C
  C23      1.0000 0.88530  0.78390  0.92420  Biso   1.000  C
  C24      1.0000 0.11470  0.21610  0.07580  Biso   1.000  C
  H17      1.0000 0.98540  0.76620  0.96170  Biso   1.000  H
  H18      1.0000 0.01460  0.23380  0.03830  Biso   1.000  H
  H19      1.0000 0.88830  0.89400  0.97800  Biso   1.000  H
  H20      1.0000 0.11170  0.10600  0.02200  Biso   1.000  H
  C25      1.0000 0.90020  0.76350  0.77510  Biso   1.000  C
  C26      1.0000 0.09980  0.23650  0.22490  Biso   1.000  C
  H21      1.0000 0.79550  0.77090  0.73390  Biso   1.000  H
  H22      1.0000 0.20450  0.22910  0.26610  Biso   1.000  H
  H23      1.0000 0.99450  0.85090  0.77580  Biso   1.000  H
  H24      1.0000 0.00550  0.14910  0.22420  Biso   1.000  H
  C27      1.0000 0.93030  0.60600  0.68510  Biso   1.000  C
  C28      1.0000 0.06970  0.39400  0.31490  Biso   1.000  C
  H25      1.0000 0.83960  0.51830  0.68800  Biso   1.000  H
  H26      1.0000 0.16040  0.48170  0.31200  Biso   1.000  H
  H27      1.0000 0.92430  0.59580  0.58980  Biso   1.000  H
  H28      1.0000 0.07570  0.40420  0.41020  Biso   1.000  H
  C29      1.0000 0.10310  0.59280  0.73110  Biso   1.000  C
  C30      1.0000 0.89690  0.40720  0.26890  Biso   1.000  C
