data_image0
_cell_length_a       7.1902
_cell_length_b       8.837
_cell_length_c       9.5076
_cell_angle_alpha    72.146
_cell_angle_beta     75.872
_cell_angle_gamma    82.156

_symmetry_space_group_name_H-M    "P 1"
_symmetry_int_tables_number       1

loop_
  _symmetry_equiv_pos_as_xyz
  'x, y, z'

loop_
  _atom_site_label
  _atom_site_occupancy
  _atom_site_fract_x
  _atom_site_fract_y
  _atom_site_fract_z
  _atom_site_thermal_displace_type
  _atom_site_B_iso_or_equiv
  _atom_site_type_symbol
  Cu1      1.0000 0.50000  0.00000  0.00000  Biso   1.000  Cu
  Cu2      1.0000 0.63734  0.72078  0.67039  Biso   1.000  Cu
  Cu3      1.0000 0.36266  0.27922  0.32961  Biso   1.000  Cu
  O1       1.0000 0.27317  0.15080  0.00742  Biso   1.000  O
  O2       1.0000 0.72683  0.84920  0.99258  Biso   1.000  O
  O3       1.0000 0.01758  0.24597  0.90706  Biso   1.000  O
  O4       1.0000 0.98242  0.75403  0.09294  Biso   1.000  O
  O5       1.0000 0.46697  0.72969  0.52997  Biso   1.000  O
  O6       1.0000 0.53303  0.27031  0.47003  Biso   1.000  O
  O7       1.0000 0.21475  0.87131  0.44516  Biso   1.000  O
  O8       1.0000 0.78525  0.12869  0.55484  Biso   1.000  O
  O9       1.0000 0.52040  0.51263  0.84550  Biso   1.000  O
  O10      1.0000 0.47960  0.48737  0.15450  Biso   1.000  O
  O11      1.0000 0.84036  0.80854  0.72421  Biso   1.000  O
  O12      1.0000 0.15964  0.19146  0.27579  Biso   1.000  O
  O13      1.0000 0.31336  0.77687  0.18518  Biso   1.000  O
  O14      1.0000 0.68664  0.22313  0.81482  Biso   1.000  O
  N1       1.0000 0.39987  0.96243  0.83498  Biso   1.000  N
  N2       1.0000 0.60013  0.03757  0.16502  Biso   1.000  N
  N3       1.0000 0.43857  0.87658  0.73601  Biso   1.000  N
  N4       1.0000 0.56143  0.12342  0.26399  Biso   1.000  N
  N5       1.0000 0.85058  0.58739  0.56982  Biso   1.000  N
  N6       1.0000 0.14942  0.41261  0.43018  Biso   1.000  N
  C1       1.0000 0.23910  0.05742  0.81219  Biso   1.000  C
  C2       1.0000 0.76090  0.94258  0.18781  Biso   1.000  C
  C3       1.0000 0.17370  0.03404  0.69530  Biso   1.000  C
  C4       1.0000 0.82630  0.96596  0.30470  Biso   1.000  C
  C5       1.0000 0.30460  0.91818  0.65101  Biso   1.000  C
  C6       1.0000 0.69540  0.08182  0.34899  Biso   1.000  C
  C7       1.0000 0.16710  0.15954  0.91375  Biso   1.000  C
  C8       1.0000 0.83290  0.84046  0.08625  Biso   1.000  C
  C9       1.0000 0.32740  0.83527  0.53312  Biso   1.000  C
  C10      1.0000 0.67260  0.16473  0.46688  Biso   1.000  C
  C11      1.0000 0.01560  0.54500  0.61770  Biso   1.000  C
  C12      1.0000 0.98440  0.45500  0.38230  Biso   1.000  C
  H1       1.0000 0.03050  0.57440  0.70000  Biso   1.000  H
  H2       1.0000 0.96950  0.42560  0.30000  Biso   1.000  H
  C13      1.0000 0.83510  0.54160  0.45243  Biso   1.000  C
  C14      1.0000 0.16490  0.45840  0.54757  Biso   1.000  C
  H3       1.0000 0.72200  0.56820  0.41680  Biso   1.000  H
  H4       1.0000 0.27800  0.43180  0.58320  Biso   1.000  H
  H5       1.0000 0.07300  0.08600  0.65400  Biso   1.000  H
  H6       1.0000 0.92700  0.91400  0.34600  Biso   1.000  H
  H7       1.0000 0.82100  0.81500  0.81290  Biso   1.000  H
  H8       1.0000 0.17900  0.18500  0.18710  Biso   1.000  H
  H9       1.0000 0.84200  0.90420  0.67200  Biso   1.000  H
  H10      1.0000 0.15800  0.09580  0.32800  Biso   1.000  H
  H11      1.0000 0.55700  0.42130  0.83800  Biso   1.000  H
  H12      1.0000 0.44300  0.57870  0.16200  Biso   1.000  H
  H13      1.0000 0.20700  0.78000  0.16200  Biso   1.000  H
  H14      1.0000 0.79300  0.22000  0.83800  Biso   1.000  H
  H15      1.0000 0.27700  0.79200  0.27210  Biso   1.000  H
  H16      1.0000 0.72300  0.20800  0.72790  Biso   1.000  H
  H17      1.0000 0.40700  0.50200  0.89500  Biso   1.000  H
  H18      1.0000 0.59300  0.49800  0.10500  Biso   1.000  H
  O15      1.0000 0.85700  0.46410  0.06880  Biso   1.000  O
  O16      1.0000 0.14300  0.53590  0.93120  Biso   1.000  O
  H19      1.0000 0.93100  0.54000  0.03800  Biso   1.000  H
  H20      1.0000 0.06900  0.46000  0.96200  Biso   1.000  H
  H21      1.0000 0.93400  0.39000  0.04600  Biso   1.000  H
  H22      1.0000 0.06600  0.61000  0.95400  Biso   1.000  H
