data_image0
_cell_length_a       7.8991
_cell_length_b       12.9067
_cell_length_c       13.6852
_cell_angle_alpha    110.648
_cell_angle_beta     97.878
_cell_angle_gamma    100.755

_symmetry_space_group_name_H-M    "P 1"
_symmetry_int_tables_number       1

loop_
  _symmetry_equiv_pos_as_xyz
  'x, y, z'

loop_
  _atom_site_label
  _atom_site_occupancy
  _atom_site_fract_x
  _atom_site_fract_y
  _atom_site_fract_z
  _atom_site_thermal_displace_type
  _atom_site_B_iso_or_equiv
  _atom_site_type_symbol
  Cu1      1.0000 0.58652  0.60390  0.80133  Biso   1.000  Cu
  Cu2      1.0000 0.41348  0.39610  0.19867  Biso   1.000  Cu
  Cu3      1.0000 0.69693  0.30520  0.55431  Biso   1.000  Cu
  Cu4      1.0000 0.30307  0.69480  0.44569  Biso   1.000  Cu
  Cu5      1.0000 0.85403  0.05635  0.28215  Biso   1.000  Cu
  Cu6      1.0000 0.14597  0.94365  0.71785  Biso   1.000  Cu
  O1       1.0000 0.35900  0.64110  0.78410  Biso   1.000  O
  O2       1.0000 0.64100  0.35890  0.21590  Biso   1.000  O
  O3       1.0000 0.11280  0.60170  0.66170  Biso   1.000  O
  O4       1.0000 0.88720  0.39830  0.33830  Biso   1.000  O
  O5       1.0000 0.55970  0.24450  0.40850  Biso   1.000  O
  O6       1.0000 0.44030  0.75550  0.59150  Biso   1.000  O
  O7       1.0000 0.32490  0.24980  0.30410  Biso   1.000  O
  O8       1.0000 0.67510  0.75020  0.69590  Biso   1.000  O
  O9       1.0000 0.85220  0.37890  0.69600  Biso   1.000  O
  O10      1.0000 0.14780  0.62110  0.30400  Biso   1.000  O
  O11      1.0000 0.10540  0.38260  0.79380  Biso   1.000  O
  O12      1.0000 0.89460  0.61740  0.20620  Biso   1.000  O
  O13      1.0000 0.06390  0.00070  0.30700  Biso   1.000  O
  O14      1.0000 0.93610  0.99930  0.69300  Biso   1.000  O
  O15      1.0000 0.28750  0.01810  0.43390  Biso   1.000  O
  O16      1.0000 0.71250  0.98190  0.56610  Biso   1.000  O
  O17      1.0000 0.47360  0.47450  0.88780  Biso   1.000  O
  O18      1.0000 0.52640  0.52550  0.11220  Biso   1.000  O
  O19      1.0000 0.81970  0.57740  0.81500  Biso   1.000  O
  O20      1.0000 0.18030  0.42260  0.18500  Biso   1.000  O
  O21      1.0000 0.55690  0.16110  0.60470  Biso   1.000  O
  O22      1.0000 0.44310  0.83890  0.39530  Biso   1.000  O
  O23      1.0000 0.61800  0.07830  0.25720  Biso   1.000  O
  O24      1.0000 0.38200  0.92170  0.74280  Biso   1.000  O
  O25      1.0000 0.96780  0.19940  0.23960  Biso   1.000  O
  O26      1.0000 0.03220  0.80060  0.76040  Biso   1.000  O
  N1       1.0000 0.47830  0.48030  0.65780  Biso   1.000  N
  N2       1.0000 0.52170  0.51970  0.34220  Biso   1.000  N
  N3       1.0000 0.52080  0.39880  0.57980  Biso   1.000  N
  N4       1.0000 0.47920  0.60120  0.42020  Biso   1.000  N
  N5       1.0000 0.88870  0.22770  0.52190  Biso   1.000  N
  N6       1.0000 0.11130  0.77230  0.47810  Biso   1.000  N
  N7       1.0000 0.92970  0.14650  0.44070  Biso   1.000  N
  N8       1.0000 0.07030  0.85350  0.55930  Biso   1.000  N
  N9       1.0000 0.67700  0.74350  0.93950  Biso   1.000  N
  N10      1.0000 0.32300  0.25650  0.06050  Biso   1.000  N
  N11      1.0000 0.79120  0.93060  0.13190  Biso   1.000  N
  N12      1.0000 0.20880  0.06940  0.86810  Biso   1.000  N
  N13      1.0000 0.75140  0.04840  0.03800  Biso   1.000  N
  N14      1.0000 0.24860  0.95160  0.96200  Biso   1.000  N
  H1       1.0000 0.79570  0.10860  0.09560  Biso   1.000  H
  H2       1.0000 0.20430  0.89140  0.90440  Biso   1.000  H
  H3       1.0000 0.71610  0.05490  0.97860  Biso   1.000  H
  H4       1.0000 0.28390  0.94510  0.02140  Biso   1.000  H
  C1       1.0000 0.32390  0.49560  0.61690  Biso   1.000  C
  C2       1.0000 0.67610  0.50440  0.38310  Biso   1.000  C
  C3       1.0000 0.26510  0.42580  0.51060  Biso   1.000  C
  C4       1.0000 0.73490  0.57420  0.48940  Biso   1.000  C
  H5       1.0000 0.16350  0.41990  0.46360  Biso   1.000  H
  H6       1.0000 0.83650  0.58010  0.53640  Biso   1.000  H
  C5       1.0000 0.39330  0.36610  0.49000  Biso   1.000  C
  C6       1.0000 0.60670  0.63390  0.51000  Biso   1.000  C
  C7       1.0000 0.25530  0.58510  0.69060  Biso   1.000  C
  C8       1.0000 0.74470  0.41490  0.30940  Biso   1.000  C
  C9       1.0000 0.42120  0.28110  0.39290  Biso   1.000  C
  C10      1.0000 0.57880  0.71890  0.60710  Biso   1.000  C
  C11      1.0000 0.01630  0.25760  0.61090  Biso   1.000  C
  C12      1.0000 0.98370  0.74240  0.38910  Biso   1.000  C
  C13      1.0000 0.14080  0.19520  0.58870  Biso   1.000  C
  C14      1.0000 0.85920  0.80480  0.41130  Biso   1.000  C
  H7       1.0000 0.24060  0.19810  0.63540  Biso   1.000  H
  H8       1.0000 0.75940  0.80190  0.36460  Biso   1.000  H
  C15      1.0000 0.08230  0.12810  0.48170  Biso   1.000  C
  C16      1.0000 0.91770  0.87190  0.51830  Biso   1.000  C
  C17      1.0000 0.99540  0.34560  0.70780  Biso   1.000  C
  C18      1.0000 0.00460  0.65440  0.29220  Biso   1.000  C
  C19      1.0000 0.15230  0.04320  0.40470  Biso   1.000  C
  C20      1.0000 0.84770  0.95680  0.59530  Biso   1.000  C
  C21      1.0000 0.67330  0.84620  0.94440  Biso   1.000  C
  C22      1.0000 0.32670  0.15380  0.05560  Biso   1.000  C
  H9       1.0000 0.62720  0.85510  0.88240  Biso   1.000  H
  H10      1.0000 0.37280  0.14490  0.11760  Biso   1.000  H
  C23      1.0000 0.73740  0.94350  0.04070  Biso   1.000  C
  C24      1.0000 0.26260  0.05650  0.95930  Biso   1.000  C
  C25      1.0000 0.79650  0.82540  0.12490  Biso   1.000  C
  C26      1.0000 0.20350  0.17460  0.87510  Biso   1.000  C
  H11      1.0000 0.83630  0.81480  0.18700  Biso   1.000  H
  H12      1.0000 0.16370  0.18520  0.81300  Biso   1.000  H
  C27      1.0000 0.74550  0.73290  0.02990  Biso   1.000  C
  C28      1.0000 0.25450  0.26710  0.97010  Biso   1.000  C
  H13      1.0000 0.75830  0.66190  0.02770  Biso   1.000  H
  H14      1.0000 0.24170  0.33810  0.97230  Biso   1.000  H
  H15      1.0000 0.47100  0.12400  0.55000  Biso   1.000  H
  H16      1.0000 0.52900  0.87600  0.45000  Biso   1.000  H
  H17      1.0000 0.52100  0.12800  0.64600  Biso   1.000  H
  H18      1.0000 0.47900  0.87200  0.35400  Biso   1.000  H
  H19      1.0000 0.84800  0.55300  0.75400  Biso   1.000  H
  H20      1.0000 0.15200  0.44700  0.24600  Biso   1.000  H
  H21      1.0000 0.92000  0.62300  0.85200  Biso   1.000  H
  H22      1.0000 0.08000  0.37700  0.14800  Biso   1.000  H
  H23      1.0000 0.53100  0.02000  0.24200  Biso   1.000  H
  H24      1.0000 0.46900  0.98000  0.75800  Biso   1.000  H
  H25      1.0000 0.58100  0.12900  0.30300  Biso   1.000  H
  H26      1.0000 0.41900  0.87100  0.69700  Biso   1.000  H
  H27      1.0000 0.94300  0.26340  0.27100  Biso   1.000  H
  H28      1.0000 0.05700  0.73660  0.72900  Biso   1.000  H
  H29      1.0000 0.08070  0.22100  0.26200  Biso   1.000  H
  H30      1.0000 0.91930  0.77900  0.73800  Biso   1.000  H
  H31      1.0000 0.37200  0.43900  0.84500  Biso   1.000  H
  H32      1.0000 0.62800  0.56100  0.15500  Biso   1.000  H
  H33      1.0000 0.47300  0.43200  0.92500  Biso   1.000  H
  H34      1.0000 0.52700  0.56800  0.07500  Biso   1.000  H
  O27      1.0000 0.64580  0.29570  0.84170  Biso   1.000  O
  O28      1.0000 0.35420  0.70430  0.15830  Biso   1.000  O
  H35      1.0000 0.61000  0.31700  0.79100  Biso   1.000  H
  H36      1.0000 0.39000  0.68300  0.20900  Biso   1.000  H
  H37      1.0000 0.56700  0.23200  0.82000  Biso   1.000  H
  H38      1.0000 0.43300  0.76800  0.18000  Biso   1.000  H
  O29      1.0000 0.14780  0.69860  0.93530  Biso   1.000  O
  O30      1.0000 0.85220  0.30140  0.06470  Biso   1.000  O
  H39      1.0000 0.21400  0.66700  0.96500  Biso   1.000  H
  H40      1.0000 0.78600  0.33300  0.03500  Biso   1.000  H
  H41      1.0000 0.22900  0.74300  0.92200  Biso   1.000  H
  H42      1.0000 0.77100  0.25700  0.07800  Biso   1.000  H
  O31      1.0000 0.30090  0.92190  0.16900  Biso   1.000  O
  O32      1.0000 0.69910  0.07810  0.83100  Biso   1.000  O
  H43      1.0000 0.31600  0.85900  0.17200  Biso   1.000  H
  H44      1.0000 0.68400  0.14100  0.82800  Biso   1.000  H
  H45      1.0000 0.26500  0.94700  0.22800  Biso   1.000  H
  H46      1.0000 0.73500  0.05300  0.77200  Biso   1.000  H
