data_image0
_cell_length_a       8.8968
_cell_length_b       10.197
_cell_length_c       18.2364
_cell_angle_alpha    90
_cell_angle_beta     93.682
_cell_angle_gamma    90

_symmetry_space_group_name_H-M    "P 1"
_symmetry_int_tables_number       1

loop_
  _symmetry_equiv_pos_as_xyz
  'x, y, z'

loop_
  _atom_site_label
  _atom_site_occupancy
  _atom_site_fract_x
  _atom_site_fract_y
  _atom_site_fract_z
  _atom_site_thermal_displace_type
  _atom_site_B_iso_or_equiv
  _atom_site_type_symbol
  Cu1      1.0000 0.69019  0.54512  0.29519  Biso   1.000  Cu
  Cu2      1.0000 0.30981  0.04512  0.20481  Biso   1.000  Cu
  Cu3      1.0000 0.30981  0.45488  0.70481  Biso   1.000  Cu
  Cu4      1.0000 0.69019  0.95488  0.79519  Biso   1.000  Cu
  Cu5      1.0000 0.00000  0.50000  0.50000  Biso   1.000  Cu
  Cu6      1.0000 0.00000  0.00000  0.00000  Biso   1.000  Cu
  O1       1.0000 0.49270  0.63140  0.30095  Biso   1.000  O
  O2       1.0000 0.50730  0.13140  0.19905  Biso   1.000  O
  O3       1.0000 0.50730  0.36860  0.69905  Biso   1.000  O
  O4       1.0000 0.49270  0.86860  0.80095  Biso   1.000  O
  O5       1.0000 0.32890  0.69580  0.38069  Biso   1.000  O
  O6       1.0000 0.67110  0.19580  0.11931  Biso   1.000  O
  O7       1.0000 0.67110  0.30420  0.61931  Biso   1.000  O
  O8       1.0000 0.32890  0.80420  0.88069  Biso   1.000  O
  O9       1.0000 0.93430  0.55120  0.59640  Biso   1.000  O
  O10      1.0000 0.06570  0.05120  0.90360  Biso   1.000  O
  O11      1.0000 0.06570  0.44880  0.40360  Biso   1.000  O
  O12      1.0000 0.93430  0.94880  0.09640  Biso   1.000  O
  O13      1.0000 0.73460  0.62760  0.65169  Biso   1.000  O
  O14      1.0000 0.26540  0.12760  0.84831  Biso   1.000  O
  O15      1.0000 0.26540  0.37240  0.34831  Biso   1.000  O
  O16      1.0000 0.73460  0.87240  0.15169  Biso   1.000  O
  O17      1.0000 0.88380  0.45910  0.28436  Biso   1.000  O
  O18      1.0000 0.11620  0.95910  0.21564  Biso   1.000  O
  O19      1.0000 0.11620  0.54090  0.71564  Biso   1.000  O
  O20      1.0000 0.88380  0.04090  0.78436  Biso   1.000  O
  O21      1.0000 0.81960  0.74830  0.27976  Biso   1.000  O
  O22      1.0000 0.18040  0.24830  0.22024  Biso   1.000  O
  O23      1.0000 0.18040  0.25170  0.72024  Biso   1.000  O
  O24      1.0000 0.81960  0.75170  0.77976  Biso   1.000  O
  O25      1.0000 0.89450  0.27480  0.51950  Biso   1.000  O
  O26      1.0000 0.10550  0.77480  0.98050  Biso   1.000  O
  O27      1.0000 0.10550  0.72520  0.48050  Biso   1.000  O
  O28      1.0000 0.89450  0.22520  0.01950  Biso   1.000  O
  O29      1.0000 0.56790  0.31150  0.32068  Biso   1.000  O
  O30      1.0000 0.43210  0.81150  0.17932  Biso   1.000  O
  O31      1.0000 0.43210  0.68850  0.67932  Biso   1.000  O
  O32      1.0000 0.56790  0.18850  0.82068  Biso   1.000  O
  N1       1.0000 0.70190  0.57460  0.40428  Biso   1.000  N
  N2       1.0000 0.29810  0.07460  0.09572  Biso   1.000  N
  N3       1.0000 0.29810  0.42540  0.59572  Biso   1.000  N
  N4       1.0000 0.70190  0.92540  0.90428  Biso   1.000  N
  N5       1.0000 0.79240  0.55800  0.46498  Biso   1.000  N
  N6       1.0000 0.20760  0.05800  0.03502  Biso   1.000  N
  N7       1.0000 0.20760  0.44200  0.53502  Biso   1.000  N
  N8       1.0000 0.79240  0.94200  0.96498  Biso   1.000  N
  N9       1.0000 0.63290  0.51500  0.18779  Biso   1.000  N
  N10      1.0000 0.36710  0.01500  0.31221  Biso   1.000  N
  N11      1.0000 0.36710  0.48500  0.81221  Biso   1.000  N
  N12      1.0000 0.63290  0.98500  0.68779  Biso   1.000  N
  C1       1.0000 0.57160  0.62700  0.42477  Biso   1.000  C
  C2       1.0000 0.42840  0.12700  0.07523  Biso   1.000  C
  C3       1.0000 0.42840  0.37300  0.57523  Biso   1.000  C
  C4       1.0000 0.57160  0.87300  0.92477  Biso   1.000  C
  C5       1.0000 0.57690  0.64650  0.50012  Biso   1.000  C
  C6       1.0000 0.42310  0.14650  0.99988  Biso   1.000  C
  C7       1.0000 0.42310  0.35350  0.49988  Biso   1.000  C
  C8       1.0000 0.57690  0.85350  0.00012  Biso   1.000  C
  H1       1.0000 0.50300  0.68120  0.52830  Biso   1.000  H
  H2       1.0000 0.49700  0.18120  0.97170  Biso   1.000  H
  H3       1.0000 0.49700  0.31880  0.47170  Biso   1.000  H
  H4       1.0000 0.50300  0.81880  0.02830  Biso   1.000  H
  C9       1.0000 0.71880  0.60190  0.52294  Biso   1.000  C
  C10      1.0000 0.28120  0.10190  0.97706  Biso   1.000  C
  C11      1.0000 0.28120  0.39810  0.47706  Biso   1.000  C
  C12      1.0000 0.71880  0.89810  0.02294  Biso   1.000  C
  C13      1.0000 0.45370  0.65420  0.36609  Biso   1.000  C
  C14      1.0000 0.54630  0.15420  0.13391  Biso   1.000  C
  C15      1.0000 0.54630  0.34580  0.63391  Biso   1.000  C
  C16      1.0000 0.45370  0.84580  0.86609  Biso   1.000  C
  C17      1.0000 0.79870  0.59410  0.59629  Biso   1.000  C
  C18      1.0000 0.20130  0.09410  0.90371  Biso   1.000  C
  C19      1.0000 0.20130  0.40590  0.40371  Biso   1.000  C
  C20      1.0000 0.79870  0.90590  0.09629  Biso   1.000  C
  C21      1.0000 0.72280  0.54450  0.13390  Biso   1.000  C
  C22      1.0000 0.27720  0.04450  0.36610  Biso   1.000  C
  C23      1.0000 0.27720  0.45550  0.86610  Biso   1.000  C
  C24      1.0000 0.72280  0.95550  0.63390  Biso   1.000  C
  H5       1.0000 0.82150  0.56960  0.14670  Biso   1.000  H
  H6       1.0000 0.17850  0.06960  0.35330  Biso   1.000  H
  H7       1.0000 0.17850  0.43040  0.85330  Biso   1.000  H
  H8       1.0000 0.82150  0.93040  0.64670  Biso   1.000  H
  C25      1.0000 0.67600  0.53940  0.06030  Biso   1.000  C
  C26      1.0000 0.32400  0.03940  0.43970  Biso   1.000  C
  C27      1.0000 0.32400  0.46060  0.93970  Biso   1.000  C
  C28      1.0000 0.67600  0.96060  0.56030  Biso   1.000  C
  H9       1.0000 0.74230  0.56140  0.02480  Biso   1.000  H
  H10      1.0000 0.25770  0.06140  0.47520  Biso   1.000  H
  H11      1.0000 0.25770  0.43860  0.97520  Biso   1.000  H
  H12      1.0000 0.74230  0.93860  0.52480  Biso   1.000  H
  C29      1.0000 0.52970  0.50150  0.03928  Biso   1.000  C
  C30      1.0000 0.47030  0.00150  0.46072  Biso   1.000  C
  C31      1.0000 0.47030  0.49850  0.96072  Biso   1.000  C
  C32      1.0000 0.52970  0.99850  0.53928  Biso   1.000  C
  C33      1.0000 0.43780  0.46590  0.09538  Biso   1.000  C
  C34      1.0000 0.56220  0.96590  0.40462  Biso   1.000  C
  C35      1.0000 0.56220  0.53410  0.90462  Biso   1.000  C
  C36      1.0000 0.43780  0.03410  0.59538  Biso   1.000  C
  H13      1.0000 0.34040  0.43590  0.08400  Biso   1.000  H
  H14      1.0000 0.65960  0.93590  0.41600  Biso   1.000  H
  H15      1.0000 0.65960  0.56410  0.91600  Biso   1.000  H
  H16      1.0000 0.34040  0.06410  0.58400  Biso   1.000  H
  C37      1.0000 0.49220  0.47540  0.16730  Biso   1.000  C
  C38      1.0000 0.50780  0.97540  0.33270  Biso   1.000  C
  C39      1.0000 0.50780  0.52460  0.83270  Biso   1.000  C
  C40      1.0000 0.49220  0.02460  0.66730  Biso   1.000  C
  H17      1.0000 0.42840  0.45330  0.20380  Biso   1.000  H
  H18      1.0000 0.57160  0.95330  0.29620  Biso   1.000  H
  H19      1.0000 0.57160  0.54670  0.79620  Biso   1.000  H
  H20      1.0000 0.42840  0.04670  0.70380  Biso   1.000  H
  H21      1.0000 0.78900  0.48000  0.30900  Biso   1.000  H
  H22      1.0000 0.21100  0.98000  0.19100  Biso   1.000  H
  H23      1.0000 0.21100  0.52000  0.69100  Biso   1.000  H
  H24      1.0000 0.78900  0.02000  0.80900  Biso   1.000  H
  H25      1.0000 0.93100  0.45000  0.32580  Biso   1.000  H
  H26      1.0000 0.06900  0.95000  0.17420  Biso   1.000  H
  H27      1.0000 0.06900  0.55000  0.67420  Biso   1.000  H
  H28      1.0000 0.93100  0.05000  0.82580  Biso   1.000  H
  H29      1.0000 0.80600  0.78600  0.23870  Biso   1.000  H
  H30      1.0000 0.19400  0.28600  0.26130  Biso   1.000  H
  H31      1.0000 0.19400  0.21400  0.76130  Biso   1.000  H
  H32      1.0000 0.80600  0.71400  0.73870  Biso   1.000  H
  H33      1.0000 0.90900  0.72100  0.27800  Biso   1.000  H
  H34      1.0000 0.09100  0.22100  0.22200  Biso   1.000  H
  H35      1.0000 0.09100  0.27900  0.72200  Biso   1.000  H
  H36      1.0000 0.90900  0.77900  0.77800  Biso   1.000  H
  H37      1.0000 0.81800  0.28700  0.54400  Biso   1.000  H
  H38      1.0000 0.18200  0.78700  0.95600  Biso   1.000  H
  H39      1.0000 0.18200  0.71300  0.45600  Biso   1.000  H
  H40      1.0000 0.81800  0.21300  0.04400  Biso   1.000  H
  H41      1.0000 0.93500  0.21100  0.54400  Biso   1.000  H
  H42      1.0000 0.06500  0.71100  0.95600  Biso   1.000  H
  H43      1.0000 0.06500  0.78900  0.45600  Biso   1.000  H
  H44      1.0000 0.93500  0.28900  0.04400  Biso   1.000  H
  H45      1.0000 0.47900  0.31800  0.33400  Biso   1.000  H
  H46      1.0000 0.52100  0.81800  0.16600  Biso   1.000  H
  H47      1.0000 0.52100  0.68200  0.66600  Biso   1.000  H
  H48      1.0000 0.47900  0.18200  0.83400  Biso   1.000  H
  H49      1.0000 0.55400  0.26900  0.28110  Biso   1.000  H
  H50      1.0000 0.44600  0.76900  0.21890  Biso   1.000  H
  H51      1.0000 0.44600  0.73100  0.71890  Biso   1.000  H
  H52      1.0000 0.55400  0.23100  0.78110  Biso   1.000  H
  O33      1.0000 0.83190  0.16880  0.38340  Biso   1.000  O
  O34      1.0000 0.16810  0.66880  0.11660  Biso   1.000  O
  O35      1.0000 0.16810  0.83120  0.61660  Biso   1.000  O
  O36      1.0000 0.83190  0.33120  0.88340  Biso   1.000  O
  O37      1.0000 0.12240  0.71120  0.26614  Biso   1.000  O
  O38      1.0000 0.87760  0.21120  0.23386  Biso   1.000  O
  O39      1.0000 0.87760  0.28880  0.73386  Biso   1.000  O
  O40      1.0000 0.12240  0.78880  0.76614  Biso   1.000  O
  H53      1.0000 0.19400  0.69400  0.29700  Biso   1.000  H
  H54      1.0000 0.80600  0.19400  0.20300  Biso   1.000  H
  H55      1.0000 0.80600  0.30600  0.70300  Biso   1.000  H
  H56      1.0000 0.19400  0.80600  0.79700  Biso   1.000  H
  H57      1.0000 0.17400  0.79400  0.25300  Biso   1.000  H
  H58      1.0000 0.82600  0.29400  0.24700  Biso   1.000  H
  H59      1.0000 0.82600  0.20600  0.74700  Biso   1.000  H
  H60      1.0000 0.17400  0.70600  0.75300  Biso   1.000  H
  O41      1.0000 0.08210  0.10200  0.59580  Biso   1.000  O
  O42      1.0000 0.91790  0.60200  0.90420  Biso   1.000  O
  O43      1.0000 0.91790  0.89800  0.40420  Biso   1.000  O
  O44      1.0000 0.08210  0.39800  0.09580  Biso   1.000  O
  H61      1.0000 0.11800  0.13700  0.63500  Biso   1.000  H
  H62      1.0000 0.88200  0.63700  0.86500  Biso   1.000  H
  H63      1.0000 0.88200  0.86300  0.36500  Biso   1.000  H
  H64      1.0000 0.11800  0.36300  0.13500  Biso   1.000  H
  H65      1.0000 0.10400  0.02200  0.60500  Biso   1.000  H
  H66      1.0000 0.89600  0.52200  0.89500  Biso   1.000  H
  H67      1.0000 0.89600  0.97800  0.39500  Biso   1.000  H
  H68      1.0000 0.10400  0.47800  0.10500  Biso   1.000  H
