data_image0
_cell_length_a       12.772
_cell_length_b       10.85
_cell_length_c       6.004
_cell_angle_alpha    90
_cell_angle_beta     90
_cell_angle_gamma    90

_symmetry_space_group_name_H-M    "P 1"
_symmetry_int_tables_number       1

loop_
  _symmetry_equiv_pos_as_xyz
  'x, y, z'

loop_
  _atom_site_label
  _atom_site_occupancy
  _atom_site_fract_x
  _atom_site_fract_y
  _atom_site_fract_z
  _atom_site_thermal_displace_type
  _atom_site_B_iso_or_equiv
  _atom_site_type_symbol
  Cu1      1.0000 0.00000  0.00000  0.22030  Biso   1.000  Cu
  Cu2      1.0000 0.50000  0.50000  0.77970  Biso   1.000  Cu
  Cl1      1.0000 0.02900  0.19020  0.10350  Biso   1.000  Cl
  Cl2      1.0000 0.52900  0.30980  0.89650  Biso   1.000  Cl
  Cl3      1.0000 0.47100  0.69020  0.89650  Biso   1.000  Cl
  Cl4      1.0000 0.97100  0.80980  0.10350  Biso   1.000  Cl
  O1       1.0000 0.50000  0.00000  0.60480  Biso   1.000  O
  O2       1.0000 0.00000  0.50000  0.39520  Biso   1.000  O
  O3       1.0000 0.13880  0.97470  0.34680  Biso   1.000  O
  O4       1.0000 0.63880  0.52530  0.65320  Biso   1.000  O
  O5       1.0000 0.36120  0.47470  0.65320  Biso   1.000  O
  O6       1.0000 0.86120  0.02530  0.34680  Biso   1.000  O
  N1       1.0000 0.43430  0.07610  0.27750  Biso   1.000  N
  N2       1.0000 0.93430  0.42390  0.72250  Biso   1.000  N
  N3       1.0000 0.06570  0.57610  0.72250  Biso   1.000  N
  N4       1.0000 0.56570  0.92390  0.27750  Biso   1.000  N
  N5       1.0000 0.26650  0.11120  0.43660  Biso   1.000  N
  N6       1.0000 0.76650  0.38880  0.56340  Biso   1.000  N
  N7       1.0000 0.23350  0.61120  0.56340  Biso   1.000  N
  N8       1.0000 0.73350  0.88880  0.43660  Biso   1.000  N
  N9       1.0000 0.28230  0.98500  0.12000  Biso   1.000  N
  N10      1.0000 0.78230  0.51500  0.88000  Biso   1.000  N
  N11      1.0000 0.21770  0.48500  0.88000  Biso   1.000  N
  N12      1.0000 0.71770  0.01500  0.12000  Biso   1.000  N
  C1       1.0000 0.50000  0.00000  0.40280  Biso   1.000  C
  C2       1.0000 0.00000  0.50000  0.59720  Biso   1.000  C
  C3       1.0000 0.37100  0.16360  0.39910  Biso   1.000  C
  C4       1.0000 0.87100  0.33640  0.60090  Biso   1.000  C
  C5       1.0000 0.12900  0.66360  0.60090  Biso   1.000  C
  C6       1.0000 0.62900  0.83640  0.39910  Biso   1.000  C
  C7       1.0000 0.38580  0.03500  0.06780  Biso   1.000  C
  C8       1.0000 0.88580  0.46500  0.93220  Biso   1.000  C
  C9       1.0000 0.11420  0.53500  0.93220  Biso   1.000  C
  C10      1.0000 0.61420  0.96500  0.06780  Biso   1.000  C
  C11      1.0000 0.22580  0.02350  0.30070  Biso   1.000  C
  C12      1.0000 0.72580  0.47650  0.69930  Biso   1.000  C
  C13      1.0000 0.27420  0.52350  0.69930  Biso   1.000  C
  C14      1.0000 0.77420  0.97650  0.30070  Biso   1.000  C
  C15      1.0000 0.20060  0.17410  0.59780  Biso   1.000  C
  C16      1.0000 0.70060  0.32590  0.40220  Biso   1.000  C
  C17      1.0000 0.29940  0.67410  0.40220  Biso   1.000  C
  C18      1.0000 0.79940  0.82590  0.59780  Biso   1.000  C
  C19      1.0000 0.24000  0.89700  0.95980  Biso   1.000  C
  C20      1.0000 0.74000  0.60300  0.04020  Biso   1.000  C
  C21      1.0000 0.26000  0.39700  0.04020  Biso   1.000  C
  C22      1.0000 0.76000  0.10300  0.95980  Biso   1.000  C
  H1       1.0000 0.39700  0.18700  0.59600  Biso   1.000  H
  H2       1.0000 0.89700  0.31300  0.40400  Biso   1.000  H
  H3       1.0000 0.10300  0.68700  0.40400  Biso   1.000  H
  H4       1.0000 0.60300  0.81300  0.59600  Biso   1.000  H
  H5       1.0000 0.37000  0.26100  0.33900  Biso   1.000  H
  H6       1.0000 0.87000  0.23900  0.66100  Biso   1.000  H
  H7       1.0000 0.13000  0.76100  0.66100  Biso   1.000  H
  H8       1.0000 0.63000  0.73900  0.33900  Biso   1.000  H
  H9       1.0000 0.42700  0.98100  0.89900  Biso   1.000  H
  H10      1.0000 0.92700  0.51900  0.10100  Biso   1.000  H
  H11      1.0000 0.07300  0.48100  0.10100  Biso   1.000  H
  H12      1.0000 0.57300  0.01900  0.89900  Biso   1.000  H
  H13      1.0000 0.18300  0.24700  0.56300  Biso   1.000  H
  H14      1.0000 0.68300  0.25300  0.43700  Biso   1.000  H
  H15      1.0000 0.31700  0.74700  0.43700  Biso   1.000  H
  H16      1.0000 0.81700  0.75300  0.56300  Biso   1.000  H
  H17      1.0000 0.23100  0.17300  0.73800  Biso   1.000  H
  H18      1.0000 0.73100  0.32700  0.26200  Biso   1.000  H
  H19      1.0000 0.26900  0.67300  0.26200  Biso   1.000  H
  H20      1.0000 0.76900  0.82700  0.73800  Biso   1.000  H
  H21      1.0000 0.14300  0.12600  0.66300  Biso   1.000  H
  H22      1.0000 0.64300  0.37400  0.33700  Biso   1.000  H
  H23      1.0000 0.35700  0.62600  0.33700  Biso   1.000  H
  H24      1.0000 0.85700  0.87400  0.66300  Biso   1.000  H
  H25      1.0000 0.22400  0.93300  0.79300  Biso   1.000  H
  H26      1.0000 0.72400  0.56700  0.20700  Biso   1.000  H
  H27      1.0000 0.27600  0.43300  0.20700  Biso   1.000  H
  H28      1.0000 0.77600  0.06700  0.79300  Biso   1.000  H
  H29      1.0000 0.28900  0.83000  0.89400  Biso   1.000  H
  H30      1.0000 0.78900  0.67000  0.10600  Biso   1.000  H
  H31      1.0000 0.21100  0.33000  0.10600  Biso   1.000  H
  H32      1.0000 0.71100  0.17000  0.89400  Biso   1.000  H
  H33      1.0000 0.15200  0.89200  0.88900  Biso   1.000  H
  H34      1.0000 0.65200  0.60800  0.11100  Biso   1.000  H
  H35      1.0000 0.34800  0.39200  0.11100  Biso   1.000  H
  H36      1.0000 0.84800  0.10800  0.88900  Biso   1.000  H
  H37      1.0000 0.38200  0.12600  0.91200  Biso   1.000  H
  H38      1.0000 0.88200  0.37400  0.08800  Biso   1.000  H
  H39      1.0000 0.11800  0.62600  0.08800  Biso   1.000  H
  H40      1.0000 0.61800  0.87400  0.91200  Biso   1.000  H
