data_image0
_cell_length_a       23.862
_cell_length_b       23.862
_cell_length_c       7.2102
_cell_angle_alpha    90
_cell_angle_beta     90
_cell_angle_gamma    90

_symmetry_space_group_name_H-M    "P 1"
_symmetry_int_tables_number       1

loop_
  _symmetry_equiv_pos_as_xyz
  'x, y, z'

loop_
  _atom_site_label
  _atom_site_occupancy
  _atom_site_fract_x
  _atom_site_fract_y
  _atom_site_fract_z
  _atom_site_thermal_displace_type
  _atom_site_B_iso_or_equiv
  _atom_site_type_symbol
  Cu1      1.0000 0.50000  0.00000  0.25000  Biso   1.000  Cu
  Cu2      1.0000 0.00000  0.50000  0.25000  Biso   1.000  Cu
  Cu3      1.0000 0.50000  0.00000  0.75000  Biso   1.000  Cu
  Cu4      1.0000 0.00000  0.50000  0.75000  Biso   1.000  Cu
  Cu5      1.0000 0.50000  0.50000  0.18450  Biso   1.000  Cu
  Cu6      1.0000 0.50000  0.50000  0.81550  Biso   1.000  Cu
  Cu7      1.0000 0.00000  0.00000  0.68450  Biso   1.000  Cu
  Cu8      1.0000 0.00000  0.00000  0.31550  Biso   1.000  Cu
  Cl1      1.0000 0.50000  0.50000  0.50000  Biso   1.000  Cl
  Cl2      1.0000 0.00000  0.00000  0.00000  Biso   1.000  Cl
  N1       1.0000 0.50000  0.06999  0.09420  Biso   1.000  N
  N2       1.0000 0.93001  0.50000  0.09420  Biso   1.000  N
  N3       1.0000 0.50000  0.93001  0.90580  Biso   1.000  N
  N4       1.0000 0.50000  0.93001  0.09420  Biso   1.000  N
  N5       1.0000 0.93001  0.50000  0.90580  Biso   1.000  N
  N6       1.0000 0.06999  0.50000  0.90580  Biso   1.000  N
  N7       1.0000 0.06999  0.50000  0.09420  Biso   1.000  N
  N8       1.0000 0.50000  0.06999  0.90580  Biso   1.000  N
  N9       1.0000 0.00000  0.56999  0.59420  Biso   1.000  N
  N10      1.0000 0.43001  0.00000  0.59420  Biso   1.000  N
  N11      1.0000 0.00000  0.43001  0.40580  Biso   1.000  N
  N12      1.0000 0.00000  0.43001  0.59420  Biso   1.000  N
  N13      1.0000 0.43001  0.00000  0.40580  Biso   1.000  N
  N14      1.0000 0.56999  0.00000  0.40580  Biso   1.000  N
  N15      1.0000 0.56999  0.00000  0.59420  Biso   1.000  N
  N16      1.0000 0.00000  0.56999  0.40580  Biso   1.000  N
  N17      1.0000 0.50000  0.15600  0.00000  Biso   1.000  N
  N18      1.0000 0.84400  0.50000  0.00000  Biso   1.000  N
  N19      1.0000 0.50000  0.84400  0.00000  Biso   1.000  N
  N20      1.0000 0.15600  0.50000  0.00000  Biso   1.000  N
  N21      1.0000 0.00000  0.65600  0.50000  Biso   1.000  N
  N22      1.0000 0.34400  0.00000  0.50000  Biso   1.000  N
  N23      1.0000 0.00000  0.34400  0.50000  Biso   1.000  N
  N24      1.0000 0.65600  0.00000  0.50000  Biso   1.000  N
  O1       1.0000 0.50000  0.41834  0.15650  Biso   1.000  O
  O2       1.0000 0.58166  0.50000  0.15650  Biso   1.000  O
  O3       1.0000 0.50000  0.58166  0.84350  Biso   1.000  O
  O4       1.0000 0.50000  0.58166  0.15650  Biso   1.000  O
  O5       1.0000 0.58166  0.50000  0.84350  Biso   1.000  O
  O6       1.0000 0.41834  0.50000  0.84350  Biso   1.000  O
  O7       1.0000 0.41834  0.50000  0.15650  Biso   1.000  O
  O8       1.0000 0.50000  0.41834  0.84350  Biso   1.000  O
  O9       1.0000 0.00000  0.91834  0.65650  Biso   1.000  O
  O10      1.0000 0.08166  0.00000  0.65650  Biso   1.000  O
  O11      1.0000 0.00000  0.08166  0.34350  Biso   1.000  O
  O12      1.0000 0.00000  0.08166  0.65650  Biso   1.000  O
  O13      1.0000 0.08166  0.00000  0.34350  Biso   1.000  O
  O14      1.0000 0.91834  0.00000  0.34350  Biso   1.000  O
  O15      1.0000 0.91834  0.00000  0.65650  Biso   1.000  O
  O16      1.0000 0.00000  0.91834  0.34350  Biso   1.000  O
  C1       1.0000 0.50000  0.12230  0.14500  Biso   1.000  C
  C2       1.0000 0.87770  0.50000  0.14500  Biso   1.000  C
  C3       1.0000 0.50000  0.87770  0.85500  Biso   1.000  C
  C4       1.0000 0.50000  0.87770  0.14500  Biso   1.000  C
  C5       1.0000 0.87770  0.50000  0.85500  Biso   1.000  C
  C6       1.0000 0.12230  0.50000  0.85500  Biso   1.000  C
  C7       1.0000 0.12230  0.50000  0.14500  Biso   1.000  C
  C8       1.0000 0.50000  0.12230  0.85500  Biso   1.000  C
  C9       1.0000 0.00000  0.62230  0.64500  Biso   1.000  C
  C10      1.0000 0.37770  0.00000  0.64500  Biso   1.000  C
  C11      1.0000 0.00000  0.37770  0.35500  Biso   1.000  C
  C12      1.0000 0.00000  0.37770  0.64500  Biso   1.000  C
  C13      1.0000 0.37770  0.00000  0.35500  Biso   1.000  C
  C14      1.0000 0.62230  0.00000  0.35500  Biso   1.000  C
  C15      1.0000 0.62230  0.00000  0.64500  Biso   1.000  C
  C16      1.0000 0.00000  0.62230  0.35500  Biso   1.000  C
  H1       1.0000 0.50000  0.13467  0.27030  Biso   1.000  H
  H2       1.0000 0.86533  0.50000  0.27030  Biso   1.000  H
  H3       1.0000 0.50000  0.86533  0.72970  Biso   1.000  H
  H4       1.0000 0.50000  0.86533  0.27030  Biso   1.000  H
  H5       1.0000 0.86533  0.50000  0.72970  Biso   1.000  H
  H6       1.0000 0.13467  0.50000  0.72970  Biso   1.000  H
  H7       1.0000 0.13467  0.50000  0.27030  Biso   1.000  H
  H8       1.0000 0.50000  0.13467  0.72970  Biso   1.000  H
  H9       1.0000 0.00000  0.63467  0.77030  Biso   1.000  H
  H10      1.0000 0.36533  0.00000  0.77030  Biso   1.000  H
  H11      1.0000 0.00000  0.36533  0.22970  Biso   1.000  H
  H12      1.0000 0.00000  0.36533  0.77030  Biso   1.000  H
  H13      1.0000 0.36533  0.00000  0.22970  Biso   1.000  H
  H14      1.0000 0.63467  0.00000  0.22970  Biso   1.000  H
  H15      1.0000 0.63467  0.00000  0.77030  Biso   1.000  H
  H16      1.0000 0.00000  0.63467  0.22970  Biso   1.000  H
  C17      1.0000 0.50000  0.21740  0.00000  Biso   1.000  C
  C18      1.0000 0.78260  0.50000  0.00000  Biso   1.000  C
  C19      1.0000 0.50000  0.78260  0.00000  Biso   1.000  C
  C20      1.0000 0.21740  0.50000  0.00000  Biso   1.000  C
  C21      1.0000 0.00000  0.71740  0.50000  Biso   1.000  C
  C22      1.0000 0.28260  0.00000  0.50000  Biso   1.000  C
  C23      1.0000 0.00000  0.28260  0.50000  Biso   1.000  C
  C24      1.0000 0.71740  0.00000  0.50000  Biso   1.000  C
  C25      1.0000 0.50000  0.24450  0.16210  Biso   1.000  C
  C26      1.0000 0.75550  0.50000  0.16210  Biso   1.000  C
  C27      1.0000 0.50000  0.75550  0.83790  Biso   1.000  C
  C28      1.0000 0.50000  0.75550  0.16210  Biso   1.000  C
  C29      1.0000 0.75550  0.50000  0.83790  Biso   1.000  C
  C30      1.0000 0.24450  0.50000  0.83790  Biso   1.000  C
  C31      1.0000 0.24450  0.50000  0.16210  Biso   1.000  C
  C32      1.0000 0.50000  0.24450  0.83790  Biso   1.000  C
  C33      1.0000 0.00000  0.74450  0.66210  Biso   1.000  C
  C34      1.0000 0.25550  0.00000  0.66210  Biso   1.000  C
  C35      1.0000 0.00000  0.25550  0.33790  Biso   1.000  C
  C36      1.0000 0.00000  0.25550  0.66210  Biso   1.000  C
  C37      1.0000 0.25550  0.00000  0.33790  Biso   1.000  C
  C38      1.0000 0.74450  0.00000  0.33790  Biso   1.000  C
  C39      1.0000 0.74450  0.00000  0.66210  Biso   1.000  C
  C40      1.0000 0.00000  0.74450  0.33790  Biso   1.000  C
  H17      1.0000 0.50000  0.22424  0.27547  Biso   1.000  H
  H18      1.0000 0.77576  0.50000  0.27547  Biso   1.000  H
  H19      1.0000 0.50000  0.77576  0.72453  Biso   1.000  H
  H20      1.0000 0.50000  0.77576  0.27547  Biso   1.000  H
  H21      1.0000 0.77576  0.50000  0.72453  Biso   1.000  H
  H22      1.0000 0.22424  0.50000  0.72453  Biso   1.000  H
  H23      1.0000 0.22424  0.50000  0.27547  Biso   1.000  H
  H24      1.0000 0.50000  0.22424  0.72453  Biso   1.000  H
  H25      1.0000 0.00000  0.72424  0.77547  Biso   1.000  H
  H26      1.0000 0.27576  0.00000  0.77547  Biso   1.000  H
  H27      1.0000 0.00000  0.27576  0.22453  Biso   1.000  H
  H28      1.0000 0.00000  0.27576  0.77547  Biso   1.000  H
  H29      1.0000 0.27576  0.00000  0.22453  Biso   1.000  H
  H30      1.0000 0.72424  0.00000  0.22453  Biso   1.000  H
  H31      1.0000 0.72424  0.00000  0.77547  Biso   1.000  H
  H32      1.0000 0.00000  0.72424  0.22453  Biso   1.000  H
  C41      1.0000 0.50000  0.30230  0.16300  Biso   1.000  C
  C42      1.0000 0.69770  0.50000  0.16300  Biso   1.000  C
  C43      1.0000 0.50000  0.69770  0.83700  Biso   1.000  C
  C44      1.0000 0.50000  0.69770  0.16300  Biso   1.000  C
  C45      1.0000 0.69770  0.50000  0.83700  Biso   1.000  C
  C46      1.0000 0.30230  0.50000  0.83700  Biso   1.000  C
  C47      1.0000 0.30230  0.50000  0.16300  Biso   1.000  C
  C48      1.0000 0.50000  0.30230  0.83700  Biso   1.000  C
  C49      1.0000 0.00000  0.80230  0.66300  Biso   1.000  C
  C50      1.0000 0.19770  0.00000  0.66300  Biso   1.000  C
  C51      1.0000 0.00000  0.19770  0.33700  Biso   1.000  C
  C52      1.0000 0.00000  0.19770  0.66300  Biso   1.000  C
  C53      1.0000 0.19770  0.00000  0.33700  Biso   1.000  C
  C54      1.0000 0.80230  0.00000  0.33700  Biso   1.000  C
  C55      1.0000 0.80230  0.00000  0.66300  Biso   1.000  C
  C56      1.0000 0.00000  0.80230  0.33700  Biso   1.000  C
  H33      1.0000 0.50000  0.32206  0.27747  Biso   1.000  H
  H34      1.0000 0.67794  0.50000  0.27747  Biso   1.000  H
  H35      1.0000 0.50000  0.67794  0.72253  Biso   1.000  H
  H36      1.0000 0.50000  0.67794  0.27747  Biso   1.000  H
  H37      1.0000 0.67794  0.50000  0.72253  Biso   1.000  H
  H38      1.0000 0.32206  0.50000  0.72253  Biso   1.000  H
  H39      1.0000 0.32206  0.50000  0.27747  Biso   1.000  H
  H40      1.0000 0.50000  0.32206  0.72253  Biso   1.000  H
  H41      1.0000 0.00000  0.82206  0.77747  Biso   1.000  H
  H42      1.0000 0.17794  0.00000  0.77747  Biso   1.000  H
  H43      1.0000 0.00000  0.17794  0.22253  Biso   1.000  H
  H44      1.0000 0.00000  0.17794  0.77747  Biso   1.000  H
  H45      1.0000 0.17794  0.00000  0.22253  Biso   1.000  H
  H46      1.0000 0.82206  0.00000  0.22253  Biso   1.000  H
  H47      1.0000 0.82206  0.00000  0.77747  Biso   1.000  H
  H48      1.0000 0.00000  0.82206  0.22253  Biso   1.000  H
  C57      1.0000 0.50000  0.33120  0.00000  Biso   1.000  C
  C58      1.0000 0.66880  0.50000  0.00000  Biso   1.000  C
  C59      1.0000 0.50000  0.66880  0.00000  Biso   1.000  C
  C60      1.0000 0.33120  0.50000  0.00000  Biso   1.000  C
  C61      1.0000 0.00000  0.83120  0.50000  Biso   1.000  C
  C62      1.0000 0.16880  0.00000  0.50000  Biso   1.000  C
  C63      1.0000 0.00000  0.16880  0.50000  Biso   1.000  C
  C64      1.0000 0.83120  0.00000  0.50000  Biso   1.000  C
  C65      1.0000 0.50000  0.39520  0.00000  Biso   1.000  C
  C66      1.0000 0.60480  0.50000  0.00000  Biso   1.000  C
  C67      1.0000 0.50000  0.60480  0.00000  Biso   1.000  C
  C68      1.0000 0.39520  0.50000  0.00000  Biso   1.000  C
  C69      1.0000 0.00000  0.89520  0.50000  Biso   1.000  C
  C70      1.0000 0.10480  0.00000  0.50000  Biso   1.000  C
  C71      1.0000 0.00000  0.10480  0.50000  Biso   1.000  C
  C72      1.0000 0.89520  0.00000  0.50000  Biso   1.000  C
  O17      1.0000 0.40040  0.40040  0.50000  Biso   1.000  O
  O18      1.0000 0.59960  0.40040  0.50000  Biso   1.000  O
  O19      1.0000 0.40040  0.59960  0.50000  Biso   1.000  O
  O20      1.0000 0.59960  0.59960  0.50000  Biso   1.000  O
  O21      1.0000 0.90040  0.90040  0.00000  Biso   1.000  O
  O22      1.0000 0.09960  0.90040  0.00000  Biso   1.000  O
  O23      1.0000 0.90040  0.09960  0.00000  Biso   1.000  O
  O24      1.0000 0.09960  0.09960  0.00000  Biso   1.000  O
  N25      1.0000 0.35440  0.35440  0.50000  Biso   1.000  N
  N26      1.0000 0.64560  0.35440  0.50000  Biso   1.000  N
  N27      1.0000 0.35440  0.64560  0.50000  Biso   1.000  N
  N28      1.0000 0.64560  0.64560  0.50000  Biso   1.000  N
  N29      1.0000 0.85440  0.85440  0.00000  Biso   1.000  N
  N30      1.0000 0.14560  0.85440  0.00000  Biso   1.000  N
  N31      1.0000 0.85440  0.14560  0.00000  Biso   1.000  N
  N32      1.0000 0.14560  0.14560  0.00000  Biso   1.000  N
  O25      1.0000 0.29060  0.37050  0.50000  Biso   1.000  O
  O26      1.0000 0.62950  0.29060  0.50000  Biso   1.000  O
  O27      1.0000 0.29060  0.62950  0.50000  Biso   1.000  O
  O28      1.0000 0.70940  0.62950  0.50000  Biso   1.000  O
  O29      1.0000 0.62950  0.70940  0.50000  Biso   1.000  O
  O30      1.0000 0.37050  0.29060  0.50000  Biso   1.000  O
  O31      1.0000 0.37050  0.70940  0.50000  Biso   1.000  O
  O32      1.0000 0.70940  0.37050  0.50000  Biso   1.000  O
  O33      1.0000 0.79060  0.87050  0.00000  Biso   1.000  O
  O34      1.0000 0.12950  0.79060  0.00000  Biso   1.000  O
  O35      1.0000 0.79060  0.12950  0.00000  Biso   1.000  O
  O36      1.0000 0.20940  0.12950  0.00000  Biso   1.000  O
  O37      1.0000 0.12950  0.20940  0.00000  Biso   1.000  O
  O38      1.0000 0.87050  0.79060  0.00000  Biso   1.000  O
  O39      1.0000 0.87050  0.20940  0.00000  Biso   1.000  O
  O40      1.0000 0.20940  0.87050  0.00000  Biso   1.000  O
