data_image0
_cell_length_a       18.4546
_cell_length_b       8.7957
_cell_length_c       22.995
_cell_angle_alpha    90
_cell_angle_beta     108.462
_cell_angle_gamma    90

_symmetry_space_group_name_H-M    "P 1"
_symmetry_int_tables_number       1

loop_
  _symmetry_equiv_pos_as_xyz
  'x, y, z'

loop_
  _atom_site_label
  _atom_site_occupancy
  _atom_site_fract_x
  _atom_site_fract_y
  _atom_site_fract_z
  _atom_site_thermal_displace_type
  _atom_site_B_iso_or_equiv
  _atom_site_type_symbol
  Cu1      1.0000 0.43963  0.46278  0.07032  Biso   1.000  Cu
  Cu2      1.0000 0.56037  0.46278  0.42968  Biso   1.000  Cu
  Cu3      1.0000 0.93963  0.96278  0.07032  Biso   1.000  Cu
  Cu4      1.0000 0.06037  0.96278  0.42968  Biso   1.000  Cu
  Cu5      1.0000 0.56037  0.53722  0.92968  Biso   1.000  Cu
  Cu6      1.0000 0.43963  0.53722  0.57032  Biso   1.000  Cu
  Cu7      1.0000 0.06037  0.03722  0.92968  Biso   1.000  Cu
  Cu8      1.0000 0.93963  0.03722  0.57032  Biso   1.000  Cu
  O1       1.0000 0.53913  0.56220  0.10162  Biso   1.000  O
  O2       1.0000 0.46087  0.56220  0.39838  Biso   1.000  O
  O3       1.0000 0.03913  0.06220  0.10162  Biso   1.000  O
  O4       1.0000 0.96087  0.06220  0.39838  Biso   1.000  O
  O5       1.0000 0.46087  0.43780  0.89838  Biso   1.000  O
  O6       1.0000 0.53913  0.43780  0.60162  Biso   1.000  O
  O7       1.0000 0.96087  0.93780  0.89838  Biso   1.000  O
  O8       1.0000 0.03913  0.93780  0.60162  Biso   1.000  O
  O9       1.0000 0.57882  0.62690  0.02369  Biso   1.000  O
  O10      1.0000 0.42118  0.62690  0.47631  Biso   1.000  O
  O11      1.0000 0.07882  0.12690  0.02369  Biso   1.000  O
  O12      1.0000 0.92118  0.12690  0.47631  Biso   1.000  O
  O13      1.0000 0.42118  0.37310  0.97631  Biso   1.000  O
  O14      1.0000 0.57882  0.37310  0.52369  Biso   1.000  O
  O15      1.0000 0.92118  0.87310  0.97631  Biso   1.000  O
  O16      1.0000 0.07882  0.87310  0.52369  Biso   1.000  O
  O17      1.0000 0.84149  0.87140  0.07457  Biso   1.000  O
  O18      1.0000 0.15851  0.87140  0.42543  Biso   1.000  O
  O19      1.0000 0.34149  0.37140  0.07457  Biso   1.000  O
  O20      1.0000 0.65851  0.37140  0.42543  Biso   1.000  O
  O21      1.0000 0.15851  0.12860  0.92543  Biso   1.000  O
  O22      1.0000 0.84149  0.12860  0.57457  Biso   1.000  O
  O23      1.0000 0.65851  0.62860  0.92543  Biso   1.000  O
  O24      1.0000 0.34149  0.62860  0.57457  Biso   1.000  O
  O25      1.0000 0.89256  0.95790  0.16938  Biso   1.000  O
  O26      1.0000 0.10744  0.95790  0.33062  Biso   1.000  O
  O27      1.0000 0.39256  0.45790  0.16938  Biso   1.000  O
  O28      1.0000 0.60744  0.45790  0.33062  Biso   1.000  O
  O29      1.0000 0.10744  0.04210  0.83062  Biso   1.000  O
  O30      1.0000 0.89256  0.04210  0.66938  Biso   1.000  O
  O31      1.0000 0.60744  0.54210  0.83062  Biso   1.000  O
  O32      1.0000 0.39256  0.54210  0.66938  Biso   1.000  O
  N1       1.0000 0.38734  0.66330  0.04154  Biso   1.000  N
  N2       1.0000 0.61266  0.66330  0.45846  Biso   1.000  N
  N3       1.0000 0.88734  0.16330  0.04154  Biso   1.000  N
  N4       1.0000 0.11266  0.16330  0.45846  Biso   1.000  N
  N5       1.0000 0.61266  0.33670  0.95846  Biso   1.000  N
  N6       1.0000 0.38734  0.33670  0.54154  Biso   1.000  N
  N7       1.0000 0.11266  0.83670  0.95846  Biso   1.000  N
  N8       1.0000 0.88734  0.83670  0.54154  Biso   1.000  N
  N9       1.0000 0.49247  0.26900  0.10977  Biso   1.000  N
  N10      1.0000 0.50753  0.26900  0.39023  Biso   1.000  N
  N11      1.0000 0.99247  0.76900  0.10977  Biso   1.000  N
  N12      1.0000 0.00753  0.76900  0.39023  Biso   1.000  N
  N13      1.0000 0.50753  0.73100  0.89023  Biso   1.000  N
  N14      1.0000 0.49247  0.73100  0.60977  Biso   1.000  N
  N15      1.0000 0.00753  0.23100  0.89023  Biso   1.000  N
  N16      1.0000 0.99247  0.23100  0.60977  Biso   1.000  N
  C1       1.0000 0.58671  0.61920  0.07873  Biso   1.000  C
  C2       1.0000 0.41329  0.61920  0.42127  Biso   1.000  C
  C3       1.0000 0.08671  0.11920  0.07873  Biso   1.000  C
  C4       1.0000 0.91329  0.11920  0.42127  Biso   1.000  C
  C5       1.0000 0.41329  0.38080  0.92127  Biso   1.000  C
  C6       1.0000 0.58671  0.38080  0.57873  Biso   1.000  C
  C7       1.0000 0.91329  0.88080  0.92127  Biso   1.000  C
  C8       1.0000 0.08671  0.88080  0.57873  Biso   1.000  C
  C9       1.0000 0.65676  0.68740  0.12439  Biso   1.000  C
  C10      1.0000 0.34324  0.68740  0.37561  Biso   1.000  C
  C11      1.0000 0.15676  0.18740  0.12439  Biso   1.000  C
  C12      1.0000 0.84324  0.18740  0.37561  Biso   1.000  C
  C13      1.0000 0.34324  0.31260  0.87561  Biso   1.000  C
  C14      1.0000 0.65676  0.31260  0.62439  Biso   1.000  C
  C15      1.0000 0.84324  0.81260  0.87561  Biso   1.000  C
  C16      1.0000 0.15676  0.81260  0.62439  Biso   1.000  C
  C17      1.0000 0.71562  0.74590  0.10528  Biso   1.000  C
  C18      1.0000 0.28438  0.74590  0.39472  Biso   1.000  C
  C19      1.0000 0.21562  0.24590  0.10528  Biso   1.000  C
  C20      1.0000 0.78438  0.24590  0.39472  Biso   1.000  C
  C21      1.0000 0.28438  0.25410  0.89472  Biso   1.000  C
  C22      1.0000 0.71562  0.25410  0.60528  Biso   1.000  C
  C23      1.0000 0.78438  0.75410  0.89472  Biso   1.000  C
  C24      1.0000 0.21562  0.75410  0.60528  Biso   1.000  C
  H1       1.0000 0.71390  0.73620  0.06460  Biso   1.000  H
  H2       1.0000 0.28610  0.73620  0.43540  Biso   1.000  H
  H3       1.0000 0.21390  0.23620  0.06460  Biso   1.000  H
  H4       1.0000 0.78610  0.23620  0.43540  Biso   1.000  H
  H5       1.0000 0.28610  0.26380  0.93540  Biso   1.000  H
  H6       1.0000 0.71390  0.26380  0.56460  Biso   1.000  H
  H7       1.0000 0.78610  0.76380  0.93540  Biso   1.000  H
  H8       1.0000 0.21390  0.76380  0.56460  Biso   1.000  H
  C25      1.0000 0.77690  0.81890  0.14731  Biso   1.000  C
  C26      1.0000 0.22310  0.81890  0.35269  Biso   1.000  C
  C27      1.0000 0.27690  0.31890  0.14731  Biso   1.000  C
  C28      1.0000 0.72310  0.31890  0.35269  Biso   1.000  C
  C29      1.0000 0.22310  0.18110  0.85269  Biso   1.000  C
  C30      1.0000 0.77690  0.18110  0.64731  Biso   1.000  C
  C31      1.0000 0.72310  0.68110  0.85269  Biso   1.000  C
  C32      1.0000 0.27690  0.68110  0.64731  Biso   1.000  C
  C33      1.0000 0.77836  0.83240  0.20769  Biso   1.000  C
  C34      1.0000 0.22164  0.83240  0.29231  Biso   1.000  C
  C35      1.0000 0.27836  0.33240  0.20769  Biso   1.000  C
  C36      1.0000 0.72164  0.33240  0.29231  Biso   1.000  C
  C37      1.0000 0.22164  0.16760  0.79231  Biso   1.000  C
  C38      1.0000 0.77836  0.16760  0.70769  Biso   1.000  C
  C39      1.0000 0.72164  0.66760  0.79231  Biso   1.000  C
  C40      1.0000 0.27836  0.66760  0.70769  Biso   1.000  C
  H9       1.0000 0.81850  0.88450  0.23530  Biso   1.000  H
  H10      1.0000 0.18150  0.88450  0.26470  Biso   1.000  H
  H11      1.0000 0.31850  0.38450  0.23530  Biso   1.000  H
  H12      1.0000 0.68150  0.38450  0.26470  Biso   1.000  H
  H13      1.0000 0.18150  0.11550  0.76470  Biso   1.000  H
  H14      1.0000 0.81850  0.11550  0.73530  Biso   1.000  H
  H15      1.0000 0.68150  0.61550  0.76470  Biso   1.000  H
  H16      1.0000 0.31850  0.61550  0.73530  Biso   1.000  H
  C41      1.0000 0.72167  0.77040  0.22814  Biso   1.000  C
  C42      1.0000 0.27833  0.77040  0.27186  Biso   1.000  C
  C43      1.0000 0.22167  0.27040  0.22814  Biso   1.000  C
  C44      1.0000 0.77833  0.27040  0.27186  Biso   1.000  C
  C45      1.0000 0.27833  0.22960  0.77186  Biso   1.000  C
  C46      1.0000 0.72167  0.22960  0.72814  Biso   1.000  C
  C47      1.0000 0.77833  0.72960  0.77186  Biso   1.000  C
  C48      1.0000 0.22167  0.72960  0.72814  Biso   1.000  C
  C49      1.0000 0.66136  0.69760  0.18574  Biso   1.000  C
  C50      1.0000 0.33864  0.69760  0.31426  Biso   1.000  C
  C51      1.0000 0.16136  0.19760  0.18574  Biso   1.000  C
  C52      1.0000 0.83864  0.19760  0.31426  Biso   1.000  C
  C53      1.0000 0.33864  0.30240  0.81426  Biso   1.000  C
  C54      1.0000 0.66136  0.30240  0.68574  Biso   1.000  C
  C55      1.0000 0.83864  0.80240  0.81426  Biso   1.000  C
  C56      1.0000 0.16136  0.80240  0.68574  Biso   1.000  C
  H17      1.0000 0.62300  0.65450  0.19860  Biso   1.000  H
  H18      1.0000 0.37700  0.65450  0.30140  Biso   1.000  H
  H19      1.0000 0.12300  0.15450  0.19860  Biso   1.000  H
  H20      1.0000 0.87700  0.15450  0.30140  Biso   1.000  H
  H21      1.0000 0.37700  0.34550  0.80140  Biso   1.000  H
  H22      1.0000 0.62300  0.34550  0.69860  Biso   1.000  H
  H23      1.0000 0.87700  0.84550  0.80140  Biso   1.000  H
  H24      1.0000 0.12300  0.84550  0.69860  Biso   1.000  H
  C57      1.0000 0.84180  0.88750  0.12946  Biso   1.000  C
  C58      1.0000 0.15820  0.88750  0.37054  Biso   1.000  C
  C59      1.0000 0.34180  0.38750  0.12946  Biso   1.000  C
  C60      1.0000 0.65820  0.38750  0.37054  Biso   1.000  C
  C61      1.0000 0.15820  0.11250  0.87054  Biso   1.000  C
  C62      1.0000 0.84180  0.11250  0.62946  Biso   1.000  C
  C63      1.0000 0.65820  0.61250  0.87054  Biso   1.000  C
  C64      1.0000 0.34180  0.61250  0.62946  Biso   1.000  C
  C65      1.0000 0.72530  0.78640  0.29469  Biso   1.000  C
  C66      1.0000 0.27470  0.78640  0.20531  Biso   1.000  C
  C67      1.0000 0.22530  0.28640  0.29469  Biso   1.000  C
  C68      1.0000 0.77470  0.28640  0.20531  Biso   1.000  C
  C69      1.0000 0.27470  0.21360  0.70531  Biso   1.000  C
  C70      1.0000 0.72530  0.21360  0.79469  Biso   1.000  C
  C71      1.0000 0.77470  0.71360  0.70531  Biso   1.000  C
  C72      1.0000 0.22530  0.71360  0.79469  Biso   1.000  C
  H25      1.0000 0.68590  0.85440  0.29750  Biso   1.000  H
  H26      1.0000 0.31410  0.85440  0.20250  Biso   1.000  H
  H27      1.0000 0.18590  0.35440  0.29750  Biso   1.000  H
  H28      1.0000 0.81410  0.35440  0.20250  Biso   1.000  H
  H29      1.0000 0.31410  0.14560  0.70250  Biso   1.000  H
  H30      1.0000 0.68590  0.14560  0.79750  Biso   1.000  H
  H31      1.0000 0.81410  0.64560  0.70250  Biso   1.000  H
  H32      1.0000 0.18590  0.64560  0.79750  Biso   1.000  H
  H33      1.0000 0.77430  0.82610  0.31810  Biso   1.000  H
  H34      1.0000 0.22570  0.82610  0.18190  Biso   1.000  H
  H35      1.0000 0.27430  0.32610  0.31810  Biso   1.000  H
  H36      1.0000 0.72570  0.32610  0.18190  Biso   1.000  H
  H37      1.0000 0.22570  0.17390  0.68190  Biso   1.000  H
  H38      1.0000 0.77430  0.17390  0.81810  Biso   1.000  H
  H39      1.0000 0.72570  0.67390  0.68190  Biso   1.000  H
  H40      1.0000 0.27430  0.67390  0.81810  Biso   1.000  H
  H41      1.0000 0.71800  0.68860  0.31050  Biso   1.000  H
  H42      1.0000 0.28200  0.68860  0.18950  Biso   1.000  H
  H43      1.0000 0.21800  0.18860  0.31050  Biso   1.000  H
  H44      1.0000 0.78200  0.18860  0.18950  Biso   1.000  H
  H45      1.0000 0.28200  0.31140  0.68950  Biso   1.000  H
  H46      1.0000 0.71800  0.31140  0.81050  Biso   1.000  H
  H47      1.0000 0.78200  0.81140  0.68950  Biso   1.000  H
  H48      1.0000 0.21800  0.81140  0.81050  Biso   1.000  H
  C73      1.0000 0.38442  0.72660  0.98794  Biso   1.000  C
  C74      1.0000 0.61558  0.72660  0.51206  Biso   1.000  C
  C75      1.0000 0.88442  0.22660  0.98794  Biso   1.000  C
  C76      1.0000 0.11558  0.22660  0.51206  Biso   1.000  C
  C77      1.0000 0.61558  0.27340  0.01206  Biso   1.000  C
  C78      1.0000 0.38442  0.27340  0.48794  Biso   1.000  C
  C79      1.0000 0.11558  0.77340  0.01206  Biso   1.000  C
  C80      1.0000 0.88442  0.77340  0.48794  Biso   1.000  C
  H49      1.0000 0.40750  0.67640  0.96290  Biso   1.000  H
  H50      1.0000 0.59250  0.67640  0.53710  Biso   1.000  H
  H51      1.0000 0.90750  0.17640  0.96290  Biso   1.000  H
  H52      1.0000 0.09250  0.17640  0.53710  Biso   1.000  H
  H53      1.0000 0.59250  0.32360  0.03710  Biso   1.000  H
  H54      1.0000 0.40750  0.32360  0.46290  Biso   1.000  H
  H55      1.0000 0.09250  0.82360  0.03710  Biso   1.000  H
  H56      1.0000 0.90750  0.82360  0.46290  Biso   1.000  H
  C81      1.0000 0.34870  0.86310  0.96849  Biso   1.000  C
  C82      1.0000 0.65130  0.86310  0.53151  Biso   1.000  C
  C83      1.0000 0.84870  0.36310  0.96849  Biso   1.000  C
  C84      1.0000 0.15130  0.36310  0.53151  Biso   1.000  C
  C85      1.0000 0.65130  0.13690  0.03151  Biso   1.000  C
  C86      1.0000 0.34870  0.13690  0.46849  Biso   1.000  C
  C87      1.0000 0.15130  0.63690  0.03151  Biso   1.000  C
  C88      1.0000 0.84870  0.63690  0.46849  Biso   1.000  C
  H57      1.0000 0.34800  0.90410  0.93100  Biso   1.000  H
  H58      1.0000 0.65200  0.90410  0.56900  Biso   1.000  H
  H59      1.0000 0.84800  0.40410  0.93100  Biso   1.000  H
  H60      1.0000 0.15200  0.40410  0.56900  Biso   1.000  H
  H61      1.0000 0.65200  0.09590  0.06900  Biso   1.000  H
  H62      1.0000 0.34800  0.09590  0.43100  Biso   1.000  H
  H63      1.0000 0.15200  0.59590  0.06900  Biso   1.000  H
  H64      1.0000 0.84800  0.59590  0.43100  Biso   1.000  H
  C89      1.0000 0.31415  0.93800  0.00466  Biso   1.000  C
  C90      1.0000 0.68585  0.93800  0.49534  Biso   1.000  C
  C91      1.0000 0.81415  0.43800  0.00466  Biso   1.000  C
  C92      1.0000 0.18585  0.43800  0.49534  Biso   1.000  C
  C93      1.0000 0.68585  0.06200  0.99534  Biso   1.000  C
  C94      1.0000 0.31415  0.06200  0.50466  Biso   1.000  C
  C95      1.0000 0.18585  0.56200  0.99534  Biso   1.000  C
  C96      1.0000 0.81415  0.56200  0.50466  Biso   1.000  C
  H65      1.0000 0.28890  0.02950  0.99190  Biso   1.000  H
  H66      1.0000 0.71110  0.02950  0.50810  Biso   1.000  H
  H67      1.0000 0.78890  0.52950  0.99190  Biso   1.000  H
  H68      1.0000 0.21110  0.52950  0.50810  Biso   1.000  H
  H69      1.0000 0.71110  0.97050  0.00810  Biso   1.000  H
  H70      1.0000 0.28890  0.97050  0.49190  Biso   1.000  H
  H71      1.0000 0.21110  0.47050  0.00810  Biso   1.000  H
  H72      1.0000 0.78890  0.47050  0.49190  Biso   1.000  H
  C97      1.0000 0.31743  0.87570  0.05990  Biso   1.000  C
  C98      1.0000 0.68257  0.87570  0.44010  Biso   1.000  C
  C99      1.0000 0.81743  0.37570  0.05990  Biso   1.000  C
  C100     1.0000 0.18257  0.37570  0.44010  Biso   1.000  C
  C101     1.0000 0.68257  0.12430  0.94010  Biso   1.000  C
  C102     1.0000 0.31743  0.12430  0.55990  Biso   1.000  C
  C103     1.0000 0.18257  0.62430  0.94010  Biso   1.000  C
  C104     1.0000 0.81743  0.62430  0.55990  Biso   1.000  C
  H73      1.0000 0.29520  0.92530  0.08570  Biso   1.000  H
  H74      1.0000 0.70480  0.92530  0.41430  Biso   1.000  H
  H75      1.0000 0.79520  0.42530  0.08570  Biso   1.000  H
  H76      1.0000 0.20480  0.42530  0.41430  Biso   1.000  H
  H77      1.0000 0.70480  0.07470  0.91430  Biso   1.000  H
  H78      1.0000 0.29520  0.07470  0.58570  Biso   1.000  H
  H79      1.0000 0.20480  0.57470  0.91430  Biso   1.000  H
  H80      1.0000 0.79520  0.57470  0.58570  Biso   1.000  H
  C105     1.0000 0.35405  0.73870  0.07668  Biso   1.000  C
  C106     1.0000 0.64595  0.73870  0.42332  Biso   1.000  C
  C107     1.0000 0.85405  0.23870  0.07668  Biso   1.000  C
  C108     1.0000 0.14595  0.23870  0.42332  Biso   1.000  C
  C109     1.0000 0.64595  0.26130  0.92332  Biso   1.000  C
  C110     1.0000 0.35405  0.26130  0.57668  Biso   1.000  C
  C111     1.0000 0.14595  0.76130  0.92332  Biso   1.000  C
  C112     1.0000 0.85405  0.76130  0.57668  Biso   1.000  C
  H81      1.0000 0.35570  0.69670  0.11420  Biso   1.000  H
  H82      1.0000 0.64430  0.69670  0.38580  Biso   1.000  H
  H83      1.0000 0.85570  0.19670  0.11420  Biso   1.000  H
  H84      1.0000 0.14430  0.19670  0.38580  Biso   1.000  H
  H85      1.0000 0.64430  0.30330  0.88580  Biso   1.000  H
  H86      1.0000 0.35570  0.30330  0.61420  Biso   1.000  H
  H87      1.0000 0.14430  0.80330  0.88580  Biso   1.000  H
  H88      1.0000 0.85570  0.80330  0.61420  Biso   1.000  H
  C113     1.0000 0.53231  0.26940  0.16927  Biso   1.000  C
  C114     1.0000 0.46769  0.26940  0.33073  Biso   1.000  C
  C115     1.0000 0.03231  0.76940  0.16927  Biso   1.000  C
  C116     1.0000 0.96769  0.76940  0.33073  Biso   1.000  C
  C117     1.0000 0.46769  0.73060  0.83073  Biso   1.000  C
  C118     1.0000 0.53231  0.73060  0.66927  Biso   1.000  C
  C119     1.0000 0.96769  0.23060  0.83073  Biso   1.000  C
  C120     1.0000 0.03231  0.23060  0.66927  Biso   1.000  C
  H89      1.0000 0.54320  0.36220  0.18960  Biso   1.000  H
  H90      1.0000 0.45680  0.36220  0.31040  Biso   1.000  H
  H91      1.0000 0.04320  0.86220  0.18960  Biso   1.000  H
  H92      1.0000 0.95680  0.86220  0.31040  Biso   1.000  H
  H93      1.0000 0.45680  0.63780  0.81040  Biso   1.000  H
  H94      1.0000 0.54320  0.63780  0.68960  Biso   1.000  H
  H95      1.0000 0.95680  0.13780  0.81040  Biso   1.000  H
  H96      1.0000 0.04320  0.13780  0.68960  Biso   1.000  H
  C121     1.0000 0.55790  0.13860  0.20193  Biso   1.000  C
  C122     1.0000 0.44210  0.13860  0.29807  Biso   1.000  C
  C123     1.0000 0.05790  0.63860  0.20193  Biso   1.000  C
  C124     1.0000 0.94210  0.63860  0.29807  Biso   1.000  C
  C125     1.0000 0.44210  0.86140  0.79807  Biso   1.000  C
  C126     1.0000 0.55790  0.86140  0.70193  Biso   1.000  C
  C127     1.0000 0.94210  0.36140  0.79807  Biso   1.000  C
  C128     1.0000 0.05790  0.36140  0.70193  Biso   1.000  C
  H97      1.0000 0.58510  0.14320  0.24350  Biso   1.000  H
  H98      1.0000 0.41490  0.14320  0.25650  Biso   1.000  H
  H99      1.0000 0.08510  0.64320  0.24350  Biso   1.000  H
  H100     1.0000 0.91490  0.64320  0.25650  Biso   1.000  H
  H101     1.0000 0.41490  0.85680  0.75650  Biso   1.000  H
  H102     1.0000 0.58510  0.85680  0.74350  Biso   1.000  H
  H103     1.0000 0.91490  0.35680  0.75650  Biso   1.000  H
  H104     1.0000 0.08510  0.35680  0.74350  Biso   1.000  H
  C129     1.0000 0.54320  0.00240  0.17280  Biso   1.000  C
  C130     1.0000 0.45680  0.00240  0.32720  Biso   1.000  C
  C131     1.0000 0.04320  0.50240  0.17280  Biso   1.000  C
  C132     1.0000 0.95680  0.50240  0.32720  Biso   1.000  C
  C133     1.0000 0.45680  0.99760  0.82720  Biso   1.000  C
  C134     1.0000 0.54320  0.99760  0.67280  Biso   1.000  C
  C135     1.0000 0.95680  0.49760  0.82720  Biso   1.000  C
  C136     1.0000 0.04320  0.49760  0.67280  Biso   1.000  C
  H105     1.0000 0.55840  0.91220  0.19430  Biso   1.000  H
  H106     1.0000 0.44160  0.91220  0.30570  Biso   1.000  H
  H107     1.0000 0.05840  0.41220  0.19430  Biso   1.000  H
  H108     1.0000 0.94160  0.41220  0.30570  Biso   1.000  H
  H109     1.0000 0.44160  0.08780  0.80570  Biso   1.000  H
  H110     1.0000 0.55840  0.08780  0.69430  Biso   1.000  H
  H111     1.0000 0.94160  0.58780  0.80570  Biso   1.000  H
  H112     1.0000 0.05840  0.58780  0.69430  Biso   1.000  H
  C137     1.0000 0.50530  0.00050  0.11090  Biso   1.000  C
  C138     1.0000 0.49470  0.00050  0.38910  Biso   1.000  C
  C139     1.0000 0.00530  0.50050  0.11090  Biso   1.000  C
  C140     1.0000 0.99470  0.50050  0.38910  Biso   1.000  C
  C141     1.0000 0.49470  0.99950  0.88910  Biso   1.000  C
  C142     1.0000 0.50530  0.99950  0.61090  Biso   1.000  C
  C143     1.0000 0.99470  0.49950  0.88910  Biso   1.000  C
  C144     1.0000 0.00530  0.49950  0.61090  Biso   1.000  C
  H113     1.0000 0.49680  0.90930  0.08940  Biso   1.000  H
  H114     1.0000 0.50320  0.90930  0.41060  Biso   1.000  H
  H115     1.0000 0.99680  0.40930  0.08940  Biso   1.000  H
  H116     1.0000 0.00320  0.40930  0.41060  Biso   1.000  H
  H117     1.0000 0.50320  0.09070  0.91060  Biso   1.000  H
  H118     1.0000 0.49680  0.09070  0.58940  Biso   1.000  H
  H119     1.0000 0.00320  0.59070  0.91060  Biso   1.000  H
  H120     1.0000 0.99680  0.59070  0.58940  Biso   1.000  H
  C145     1.0000 0.47999  0.13550  0.08106  Biso   1.000  C
  C146     1.0000 0.52001  0.13550  0.41894  Biso   1.000  C
  C147     1.0000 0.97999  0.63550  0.08106  Biso   1.000  C
  C148     1.0000 0.02001  0.63550  0.41894  Biso   1.000  C
  C149     1.0000 0.52001  0.86450  0.91894  Biso   1.000  C
  C150     1.0000 0.47999  0.86450  0.58106  Biso   1.000  C
  C151     1.0000 0.02001  0.36450  0.91894  Biso   1.000  C
  C152     1.0000 0.97999  0.36450  0.58106  Biso   1.000  C
  H121     1.0000 0.45320  0.13330  0.03930  Biso   1.000  H
  H122     1.0000 0.54680  0.13330  0.46070  Biso   1.000  H
  H123     1.0000 0.95320  0.63330  0.03930  Biso   1.000  H
  H124     1.0000 0.04680  0.63330  0.46070  Biso   1.000  H
  H125     1.0000 0.54680  0.86670  0.96070  Biso   1.000  H
  H126     1.0000 0.45320  0.86670  0.53930  Biso   1.000  H
  H127     1.0000 0.04680  0.36670  0.96070  Biso   1.000  H
  H128     1.0000 0.95320  0.36670  0.53930  Biso   1.000  H
  O33      1.0000 0.00000  0.16600  0.25000  Biso   1.000  O
  O34      1.0000 0.50000  0.66600  0.25000  Biso   1.000  O
  O35      1.0000 0.00000  0.83400  0.75000  Biso   1.000  O
  O36      1.0000 0.50000  0.33400  0.75000  Biso   1.000  O
  H129     1.0000 0.03530  0.10900  0.27190  Biso   1.000  H
  H130     1.0000 0.96470  0.10900  0.22810  Biso   1.000  H
  H131     1.0000 0.53530  0.60900  0.27190  Biso   1.000  H
  H132     1.0000 0.46470  0.60900  0.22810  Biso   1.000  H
  H133     1.0000 0.96470  0.89100  0.72810  Biso   1.000  H
  H134     1.0000 0.03530  0.89100  0.77190  Biso   1.000  H
  H135     1.0000 0.46470  0.39100  0.72810  Biso   1.000  H
  H136     1.0000 0.53530  0.39100  0.77190  Biso   1.000  H
  H137     1.0000 0.00570  0.16560  0.21480  Biso   1.000  H
  H138     1.0000 0.99430  0.16560  0.28520  Biso   1.000  H
  H139     1.0000 0.50570  0.66560  0.21480  Biso   1.000  H
  H140     1.0000 0.49430  0.66560  0.28520  Biso   1.000  H
  H141     1.0000 0.99430  0.83440  0.78520  Biso   1.000  H
  H142     1.0000 0.00570  0.83440  0.71480  Biso   1.000  H
  H143     1.0000 0.49430  0.33440  0.78520  Biso   1.000  H
  H144     1.0000 0.50570  0.33440  0.71480  Biso   1.000  H
