data_image0
_cell_length_a       15.0457
_cell_length_b       15.1581
_cell_length_c       19.2886
_cell_angle_alpha    90
_cell_angle_beta     90
_cell_angle_gamma    90

_symmetry_space_group_name_H-M    "P 1"
_symmetry_int_tables_number       1

loop_
  _symmetry_equiv_pos_as_xyz
  'x, y, z'

loop_
  _atom_site_label
  _atom_site_occupancy
  _atom_site_fract_x
  _atom_site_fract_y
  _atom_site_fract_z
  _atom_site_thermal_displace_type
  _atom_site_B_iso_or_equiv
  _atom_site_type_symbol
  Cu1      1.0000 0.44955  0.13105  0.46348  Biso   1.000  Cu
  Cu2      1.0000 0.05045  0.86895  0.96348  Biso   1.000  Cu
  Cu3      1.0000 0.55045  0.63105  0.03652  Biso   1.000  Cu
  Cu4      1.0000 0.94955  0.36895  0.53652  Biso   1.000  Cu
  Cu5      1.0000 0.55045  0.86895  0.53652  Biso   1.000  Cu
  Cu6      1.0000 0.94955  0.13105  0.03652  Biso   1.000  Cu
  Cu7      1.0000 0.44955  0.36895  0.96348  Biso   1.000  Cu
  Cu8      1.0000 0.05045  0.63105  0.46348  Biso   1.000  Cu
  C1       1.0000 0.47590  0.15460  0.60397  Biso   1.000  C
  C2       1.0000 0.02410  0.84540  0.10397  Biso   1.000  C
  C3       1.0000 0.52410  0.65460  0.89603  Biso   1.000  C
  C4       1.0000 0.97590  0.34540  0.39603  Biso   1.000  C
  C5       1.0000 0.52410  0.84540  0.39603  Biso   1.000  C
  C6       1.0000 0.97590  0.15460  0.89603  Biso   1.000  C
  C7       1.0000 0.47590  0.34540  0.10397  Biso   1.000  C
  C8       1.0000 0.02410  0.65460  0.60397  Biso   1.000  C
  C9       1.0000 0.50410  0.20792  0.66617  Biso   1.000  C
  C10      1.0000 0.99590  0.79208  0.16617  Biso   1.000  C
  C11      1.0000 0.49590  0.70792  0.83383  Biso   1.000  C
  C12      1.0000 0.00410  0.29208  0.33383  Biso   1.000  C
  C13      1.0000 0.49590  0.79208  0.33383  Biso   1.000  C
  C14      1.0000 0.00410  0.20792  0.83383  Biso   1.000  C
  C15      1.0000 0.50410  0.29208  0.16617  Biso   1.000  C
  C16      1.0000 0.99590  0.70792  0.66617  Biso   1.000  C
  C17      1.0000 0.54640  0.28830  0.65892  Biso   1.000  C
  C18      1.0000 0.95360  0.71170  0.15892  Biso   1.000  C
  C19      1.0000 0.45360  0.78830  0.84108  Biso   1.000  C
  C20      1.0000 0.04640  0.21170  0.34108  Biso   1.000  C
  C21      1.0000 0.45360  0.71170  0.34108  Biso   1.000  C
  C22      1.0000 0.04640  0.28830  0.84108  Biso   1.000  C
  C23      1.0000 0.54640  0.21170  0.15892  Biso   1.000  C
  C24      1.0000 0.95360  0.78830  0.65892  Biso   1.000  C
  H1       1.0000 0.55800  0.31120  0.61510  Biso   1.000  H
  H2       1.0000 0.94200  0.68880  0.11510  Biso   1.000  H
  H3       1.0000 0.44200  0.81120  0.88490  Biso   1.000  H
  H4       1.0000 0.05800  0.18880  0.38490  Biso   1.000  H
  H5       1.0000 0.44200  0.68880  0.38490  Biso   1.000  H
  H6       1.0000 0.05800  0.31120  0.88490  Biso   1.000  H
  H7       1.0000 0.55800  0.18880  0.11510  Biso   1.000  H
  H8       1.0000 0.94200  0.81120  0.61510  Biso   1.000  H
  C25      1.0000 0.57130  0.33440  0.71757  Biso   1.000  C
  C26      1.0000 0.92870  0.66560  0.21757  Biso   1.000  C
  C27      1.0000 0.42870  0.83440  0.78243  Biso   1.000  C
  C28      1.0000 0.07130  0.16560  0.28243  Biso   1.000  C
  C29      1.0000 0.42870  0.66560  0.28243  Biso   1.000  C
  C30      1.0000 0.07130  0.33440  0.78243  Biso   1.000  C
  C31      1.0000 0.57130  0.16560  0.21757  Biso   1.000  C
  C32      1.0000 0.92870  0.83440  0.71757  Biso   1.000  C
  C33      1.0000 0.55600  0.30410  0.78319  Biso   1.000  C
  C34      1.0000 0.94400  0.69590  0.28319  Biso   1.000  C
  C35      1.0000 0.44400  0.80410  0.71681  Biso   1.000  C
  C36      1.0000 0.05600  0.19590  0.21681  Biso   1.000  C
  C37      1.0000 0.44400  0.69590  0.21681  Biso   1.000  C
  C38      1.0000 0.05600  0.30410  0.71681  Biso   1.000  C
  C39      1.0000 0.55600  0.19590  0.28319  Biso   1.000  C
  C40      1.0000 0.94400  0.80410  0.78319  Biso   1.000  C
  H9       1.0000 0.57260  0.33640  0.82210  Biso   1.000  H
  H10      1.0000 0.92740  0.66360  0.32210  Biso   1.000  H
  H11      1.0000 0.42740  0.83640  0.67790  Biso   1.000  H
  H12      1.0000 0.07260  0.16360  0.17790  Biso   1.000  H
  H13      1.0000 0.42740  0.66360  0.17790  Biso   1.000  H
  H14      1.0000 0.07260  0.33640  0.67790  Biso   1.000  H
  H15      1.0000 0.57260  0.16360  0.32210  Biso   1.000  H
  H16      1.0000 0.92740  0.83640  0.82210  Biso   1.000  H
  C41      1.0000 0.51420  0.22290  0.78885  Biso   1.000  C
  C42      1.0000 0.98580  0.77710  0.28885  Biso   1.000  C
  C43      1.0000 0.48580  0.72290  0.71115  Biso   1.000  C
  C44      1.0000 0.01420  0.27710  0.21115  Biso   1.000  C
  C45      1.0000 0.48580  0.77710  0.21115  Biso   1.000  C
  C46      1.0000 0.01420  0.22290  0.71115  Biso   1.000  C
  C47      1.0000 0.51420  0.27710  0.28885  Biso   1.000  C
  C48      1.0000 0.98580  0.72290  0.78885  Biso   1.000  C
  C49      1.0000 0.48790  0.17480  0.73190  Biso   1.000  C
  C50      1.0000 0.01210  0.82520  0.23190  Biso   1.000  C
  C51      1.0000 0.51210  0.67480  0.76810  Biso   1.000  C
  C52      1.0000 0.98790  0.32520  0.26810  Biso   1.000  C
  C53      1.0000 0.51210  0.82520  0.26810  Biso   1.000  C
  C54      1.0000 0.98790  0.17480  0.76810  Biso   1.000  C
  C55      1.0000 0.48790  0.32520  0.23190  Biso   1.000  C
  C56      1.0000 0.01210  0.67480  0.73190  Biso   1.000  C
  H17      1.0000 0.45970  0.12060  0.73750  Biso   1.000  H
  H18      1.0000 0.04030  0.87940  0.23750  Biso   1.000  H
  H19      1.0000 0.54030  0.62060  0.76250  Biso   1.000  H
  H20      1.0000 0.95970  0.37940  0.26250  Biso   1.000  H
  H21      1.0000 0.54030  0.87940  0.26250  Biso   1.000  H
  H22      1.0000 0.95970  0.12060  0.76250  Biso   1.000  H
  H23      1.0000 0.45970  0.37940  0.23750  Biso   1.000  H
  H24      1.0000 0.04030  0.62060  0.73750  Biso   1.000  H
  C57      1.0000 0.36680  0.00780  0.37907  Biso   1.000  C
  C58      1.0000 0.13320  0.99220  0.87907  Biso   1.000  C
  C59      1.0000 0.63320  0.50780  0.12093  Biso   1.000  C
  C60      1.0000 0.86680  0.49220  0.62093  Biso   1.000  C
  C61      1.0000 0.63320  0.99220  0.62093  Biso   1.000  C
  C62      1.0000 0.86680  0.00780  0.12093  Biso   1.000  C
  C63      1.0000 0.36680  0.49220  0.87907  Biso   1.000  C
  C64      1.0000 0.13320  0.50780  0.37907  Biso   1.000  C
  C65      1.0000 0.33680  0.97165  0.30995  Biso   1.000  C
  C66      1.0000 0.16320  0.02835  0.80995  Biso   1.000  C
  C67      1.0000 0.66320  0.47165  0.19005  Biso   1.000  C
  C68      1.0000 0.83680  0.52835  0.69005  Biso   1.000  C
  C69      1.0000 0.66320  0.02835  0.69005  Biso   1.000  C
  C70      1.0000 0.83680  0.97165  0.19005  Biso   1.000  C
  C71      1.0000 0.33680  0.52835  0.80995  Biso   1.000  C
  C72      1.0000 0.16320  0.47165  0.30995  Biso   1.000  C
  C73      1.0000 0.29330  0.89080  0.30745  Biso   1.000  C
  C74      1.0000 0.20670  0.10920  0.80745  Biso   1.000  C
  C75      1.0000 0.70670  0.39080  0.19255  Biso   1.000  C
  C76      1.0000 0.79330  0.60920  0.69255  Biso   1.000  C
  C77      1.0000 0.70670  0.10920  0.69255  Biso   1.000  C
  C78      1.0000 0.79330  0.89080  0.19255  Biso   1.000  C
  C79      1.0000 0.29330  0.60920  0.80745  Biso   1.000  C
  C80      1.0000 0.20670  0.39080  0.30745  Biso   1.000  C
  H25      1.0000 0.28140  0.85970  0.34800  Biso   1.000  H
  H26      1.0000 0.21860  0.14030  0.84800  Biso   1.000  H
  H27      1.0000 0.71860  0.35970  0.15200  Biso   1.000  H
  H28      1.0000 0.78140  0.64030  0.65200  Biso   1.000  H
  H29      1.0000 0.71860  0.14030  0.65200  Biso   1.000  H
  H30      1.0000 0.78140  0.85970  0.15200  Biso   1.000  H
  H31      1.0000 0.28140  0.64030  0.84800  Biso   1.000  H
  H32      1.0000 0.21860  0.35970  0.34800  Biso   1.000  H
  C81      1.0000 0.26830  0.85761  0.24399  Biso   1.000  C
  C82      1.0000 0.23170  0.14239  0.74399  Biso   1.000  C
  C83      1.0000 0.73170  0.35761  0.25601  Biso   1.000  C
  C84      1.0000 0.76830  0.64239  0.75601  Biso   1.000  C
  C85      1.0000 0.73170  0.14239  0.75601  Biso   1.000  C
  C86      1.0000 0.76830  0.85761  0.25601  Biso   1.000  C
  C87      1.0000 0.26830  0.64239  0.74399  Biso   1.000  C
  C88      1.0000 0.23170  0.35761  0.24399  Biso   1.000  C
  C89      1.0000 0.28180  0.90140  0.18238  Biso   1.000  C
  C90      1.0000 0.21820  0.09860  0.68238  Biso   1.000  C
  C91      1.0000 0.71820  0.40140  0.31762  Biso   1.000  C
  C92      1.0000 0.78180  0.59860  0.81762  Biso   1.000  C
  C93      1.0000 0.71820  0.09860  0.81762  Biso   1.000  C
  C94      1.0000 0.78180  0.90140  0.31762  Biso   1.000  C
  C95      1.0000 0.28180  0.59860  0.68238  Biso   1.000  C
  C96      1.0000 0.21820  0.40140  0.18238  Biso   1.000  C
  H33      1.0000 0.26270  0.87850  0.14020  Biso   1.000  H
  H34      1.0000 0.23730  0.12150  0.64020  Biso   1.000  H
  H35      1.0000 0.73730  0.37850  0.35980  Biso   1.000  H
  H36      1.0000 0.76270  0.62150  0.85980  Biso   1.000  H
  H37      1.0000 0.73730  0.12150  0.85980  Biso   1.000  H
  H38      1.0000 0.76270  0.87850  0.35980  Biso   1.000  H
  H39      1.0000 0.26270  0.62150  0.64020  Biso   1.000  H
  H40      1.0000 0.23730  0.37850  0.14020  Biso   1.000  H
  C97      1.0000 0.32510  0.98070  0.18705  Biso   1.000  C
  C98      1.0000 0.17490  0.01930  0.68705  Biso   1.000  C
  C99      1.0000 0.67490  0.48070  0.31295  Biso   1.000  C
  C100     1.0000 0.82510  0.51930  0.81295  Biso   1.000  C
  C101     1.0000 0.67490  0.01930  0.81295  Biso   1.000  C
  C102     1.0000 0.82510  0.98070  0.31295  Biso   1.000  C
  C103     1.0000 0.32510  0.51930  0.68705  Biso   1.000  C
  C104     1.0000 0.17490  0.48070  0.18705  Biso   1.000  C
  C105     1.0000 0.35370  0.01650  0.24880  Biso   1.000  C
  C106     1.0000 0.14630  0.98350  0.74880  Biso   1.000  C
  C107     1.0000 0.64630  0.51650  0.25120  Biso   1.000  C
  C108     1.0000 0.85370  0.48350  0.75120  Biso   1.000  C
  C109     1.0000 0.64630  0.98350  0.75120  Biso   1.000  C
  C110     1.0000 0.85370  0.01650  0.25120  Biso   1.000  C
  C111     1.0000 0.35370  0.48350  0.74880  Biso   1.000  C
  C112     1.0000 0.14630  0.51650  0.24880  Biso   1.000  C
  H41      1.0000 0.38390  0.07000  0.24940  Biso   1.000  H
  H42      1.0000 0.11610  0.93000  0.74940  Biso   1.000  H
  H43      1.0000 0.61610  0.57000  0.25060  Biso   1.000  H
  H44      1.0000 0.88390  0.43000  0.75060  Biso   1.000  H
  H45      1.0000 0.61610  0.93000  0.75060  Biso   1.000  H
  H46      1.0000 0.88390  0.07000  0.25060  Biso   1.000  H
  H47      1.0000 0.38390  0.43000  0.74940  Biso   1.000  H
  H48      1.0000 0.11610  0.57000  0.24940  Biso   1.000  H
  C113     1.0000 0.25520  0.17060  0.47270  Biso   1.000  C
  C114     1.0000 0.24480  0.82940  0.97270  Biso   1.000  C
  C115     1.0000 0.74480  0.67060  0.02730  Biso   1.000  C
  C116     1.0000 0.75520  0.32940  0.52730  Biso   1.000  C
  C117     1.0000 0.74480  0.82940  0.52730  Biso   1.000  C
  C118     1.0000 0.75520  0.17060  0.02730  Biso   1.000  C
  C119     1.0000 0.25520  0.32940  0.97270  Biso   1.000  C
  C120     1.0000 0.24480  0.67060  0.47270  Biso   1.000  C
  H49      1.0000 0.23690  0.11370  0.46150  Biso   1.000  H
  H50      1.0000 0.26310  0.88630  0.96150  Biso   1.000  H
  H51      1.0000 0.76310  0.61370  0.03850  Biso   1.000  H
  H52      1.0000 0.73690  0.38630  0.53850  Biso   1.000  H
  H53      1.0000 0.76310  0.88630  0.53850  Biso   1.000  H
  H54      1.0000 0.73690  0.11370  0.03850  Biso   1.000  H
  H55      1.0000 0.23690  0.38630  0.96150  Biso   1.000  H
  H56      1.0000 0.26310  0.61370  0.46150  Biso   1.000  H
  C121     1.0000 0.19990  0.23880  0.48700  Biso   1.000  C
  C122     1.0000 0.30010  0.76120  0.98700  Biso   1.000  C
  C123     1.0000 0.80010  0.73880  0.01300  Biso   1.000  C
  C124     1.0000 0.69990  0.26120  0.51300  Biso   1.000  C
  C125     1.0000 0.80010  0.76120  0.51300  Biso   1.000  C
  C126     1.0000 0.69990  0.23880  0.01300  Biso   1.000  C
  C127     1.0000 0.19990  0.26120  0.98700  Biso   1.000  C
  C128     1.0000 0.30010  0.73880  0.48700  Biso   1.000  C
  H57      1.0000 0.13810  0.23800  0.48840  Biso   1.000  H
  H58      1.0000 0.36190  0.76200  0.98840  Biso   1.000  H
  H59      1.0000 0.86190  0.73800  0.01160  Biso   1.000  H
  H60      1.0000 0.63810  0.26200  0.51160  Biso   1.000  H
  H61      1.0000 0.86190  0.76200  0.51160  Biso   1.000  H
  H62      1.0000 0.63810  0.23800  0.01160  Biso   1.000  H
  H63      1.0000 0.13810  0.26200  0.98840  Biso   1.000  H
  H64      1.0000 0.36190  0.73800  0.48840  Biso   1.000  H
  C129     1.0000 0.33700  0.28190  0.49390  Biso   1.000  C
  C130     1.0000 0.16300  0.71810  0.99390  Biso   1.000  C
  C131     1.0000 0.66300  0.78190  0.00610  Biso   1.000  C
  C132     1.0000 0.83700  0.21810  0.50610  Biso   1.000  C
  C133     1.0000 0.66300  0.71810  0.50610  Biso   1.000  C
  C134     1.0000 0.83700  0.28190  0.00610  Biso   1.000  C
  C135     1.0000 0.33700  0.21810  0.99390  Biso   1.000  C
  C136     1.0000 0.16300  0.78190  0.49390  Biso   1.000  C
  H65      1.0000 0.38650  0.31750  0.50120  Biso   1.000  H
  H66      1.0000 0.11350  0.68250  0.00120  Biso   1.000  H
  H67      1.0000 0.61350  0.81750  0.99880  Biso   1.000  H
  H68      1.0000 0.88650  0.18250  0.49880  Biso   1.000  H
  H69      1.0000 0.61350  0.68250  0.49880  Biso   1.000  H
  H70      1.0000 0.88650  0.31750  0.99880  Biso   1.000  H
  H71      1.0000 0.38650  0.18250  0.00120  Biso   1.000  H
  H72      1.0000 0.11350  0.81750  0.50120  Biso   1.000  H
  H73      1.0000 0.59600  0.05800  0.48700  Biso   1.000  H
  H74      1.0000 0.90400  0.94200  0.98700  Biso   1.000  H
  H75      1.0000 0.40400  0.55800  0.01300  Biso   1.000  H
  H76      1.0000 0.09600  0.44200  0.51300  Biso   1.000  H
  H77      1.0000 0.40400  0.94200  0.51300  Biso   1.000  H
  H78      1.0000 0.09600  0.05800  0.01300  Biso   1.000  H
  H79      1.0000 0.59600  0.44200  0.98700  Biso   1.000  H
  H80      1.0000 0.90400  0.55800  0.48700  Biso   1.000  H
  H81      1.0000 0.56400  0.03200  0.43280  Biso   1.000  H
  H82      1.0000 0.93600  0.96800  0.93280  Biso   1.000  H
  H83      1.0000 0.43600  0.53200  0.06720  Biso   1.000  H
  H84      1.0000 0.06400  0.46800  0.56720  Biso   1.000  H
  H85      1.0000 0.43600  0.96800  0.56720  Biso   1.000  H
  H86      1.0000 0.06400  0.03200  0.06720  Biso   1.000  H
  H87      1.0000 0.56400  0.46800  0.93280  Biso   1.000  H
  H88      1.0000 0.93600  0.53200  0.43280  Biso   1.000  H
  N1       1.0000 0.61590  0.42058  0.70850  Biso   1.000  N
  N2       1.0000 0.88410  0.57942  0.20850  Biso   1.000  N
  N3       1.0000 0.38410  0.92058  0.79150  Biso   1.000  N
  N4       1.0000 0.11590  0.07942  0.29150  Biso   1.000  N
  N5       1.0000 0.38410  0.57942  0.29150  Biso   1.000  N
  N6       1.0000 0.11590  0.42058  0.79150  Biso   1.000  N
  N7       1.0000 0.61590  0.07942  0.20850  Biso   1.000  N
  N8       1.0000 0.88410  0.92058  0.70850  Biso   1.000  N
  N9       1.0000 0.49940  0.18680  0.85817  Biso   1.000  N
  N10      1.0000 0.00060  0.81320  0.35817  Biso   1.000  N
  N11      1.0000 0.50060  0.68680  0.64183  Biso   1.000  N
  N12      1.0000 0.99940  0.31320  0.14183  Biso   1.000  N
  N13      1.0000 0.50060  0.81320  0.14183  Biso   1.000  N
  N14      1.0000 0.99940  0.18680  0.64183  Biso   1.000  N
  N15      1.0000 0.49940  0.31320  0.35817  Biso   1.000  N
  N16      1.0000 0.00060  0.68680  0.85817  Biso   1.000  N
  N17      1.0000 0.22650  0.76910  0.24120  Biso   1.000  N
  N18      1.0000 0.27350  0.23090  0.74120  Biso   1.000  N
  N19      1.0000 0.77350  0.26910  0.25880  Biso   1.000  N
  N20      1.0000 0.72650  0.73090  0.75880  Biso   1.000  N
  N21      1.0000 0.77350  0.23090  0.75880  Biso   1.000  N
  N22      1.0000 0.72650  0.76910  0.25880  Biso   1.000  N
  N23      1.0000 0.22650  0.73090  0.74120  Biso   1.000  N
  N24      1.0000 0.27350  0.26910  0.24120  Biso   1.000  N
  N25      1.0000 0.34140  0.02950  0.12271  Biso   1.000  N
  N26      1.0000 0.15860  0.97050  0.62271  Biso   1.000  N
  N27      1.0000 0.65860  0.52950  0.37729  Biso   1.000  N
  N28      1.0000 0.84140  0.47050  0.87729  Biso   1.000  N
  N29      1.0000 0.65860  0.97050  0.87729  Biso   1.000  N
  N30      1.0000 0.84140  0.02950  0.37729  Biso   1.000  N
  N31      1.0000 0.34140  0.47050  0.62271  Biso   1.000  N
  N32      1.0000 0.15860  0.52950  0.12271  Biso   1.000  N
  N33      1.0000 0.34021  0.19696  0.47731  Biso   1.000  N
  N34      1.0000 0.15979  0.80304  0.97731  Biso   1.000  N
  N35      1.0000 0.65979  0.69696  0.02269  Biso   1.000  N
  N36      1.0000 0.84021  0.30304  0.52269  Biso   1.000  N
  N37      1.0000 0.65979  0.80304  0.52269  Biso   1.000  N
  N38      1.0000 0.84021  0.19696  0.02269  Biso   1.000  N
  N39      1.0000 0.34021  0.30304  0.97731  Biso   1.000  N
  N40      1.0000 0.15979  0.69696  0.47731  Biso   1.000  N
  N41      1.0000 0.25440  0.30860  0.49870  Biso   1.000  N
  N42      1.0000 0.24560  0.69140  0.99870  Biso   1.000  N
  N43      1.0000 0.74560  0.80860  0.00130  Biso   1.000  N
  N44      1.0000 0.75440  0.19140  0.50130  Biso   1.000  N
  N45      1.0000 0.74560  0.69140  0.50130  Biso   1.000  N
  N46      1.0000 0.75440  0.30860  0.00130  Biso   1.000  N
  N47      1.0000 0.25440  0.19140  0.99870  Biso   1.000  N
  N48      1.0000 0.24560  0.80860  0.49870  Biso   1.000  N
  H89      1.0000 0.23750  0.36150  0.50780  Biso   1.000  H
  H90      1.0000 0.26250  0.63850  0.00780  Biso   1.000  H
  H91      1.0000 0.76250  0.86150  0.99220  Biso   1.000  H
  H92      1.0000 0.73750  0.13850  0.49220  Biso   1.000  H
  H93      1.0000 0.76250  0.63850  0.49220  Biso   1.000  H
  H94      1.0000 0.73750  0.36150  0.99220  Biso   1.000  H
  H95      1.0000 0.23750  0.13850  0.00780  Biso   1.000  H
  H96      1.0000 0.26250  0.86150  0.50780  Biso   1.000  H
  O1       1.0000 0.49980  0.18601  0.54560  Biso   1.000  O
  O2       1.0000 0.00020  0.81399  0.04560  Biso   1.000  O
  O3       1.0000 0.50020  0.68601  0.95440  Biso   1.000  O
  O4       1.0000 0.99980  0.31399  0.45440  Biso   1.000  O
  O5       1.0000 0.50020  0.81399  0.45440  Biso   1.000  O
  O6       1.0000 0.99980  0.18601  0.95440  Biso   1.000  O
  O7       1.0000 0.49980  0.31399  0.04560  Biso   1.000  O
  O8       1.0000 0.00020  0.68601  0.54560  Biso   1.000  O
  O9       1.0000 0.43296  0.08679  0.61323  Biso   1.000  O
  O10      1.0000 0.06704  0.91321  0.11323  Biso   1.000  O
  O11      1.0000 0.56704  0.58679  0.88677  Biso   1.000  O
  O12      1.0000 0.93296  0.41321  0.38677  Biso   1.000  O
  O13      1.0000 0.56704  0.91321  0.38677  Biso   1.000  O
  O14      1.0000 0.93296  0.08679  0.88677  Biso   1.000  O
  O15      1.0000 0.43296  0.41321  0.11323  Biso   1.000  O
  O16      1.0000 0.06704  0.58679  0.61323  Biso   1.000  O
  O17      1.0000 0.62690  0.46530  0.75970  Biso   1.000  O
  O18      1.0000 0.87310  0.53470  0.25970  Biso   1.000  O
  O19      1.0000 0.37310  0.96530  0.74030  Biso   1.000  O
  O20      1.0000 0.12690  0.03470  0.24030  Biso   1.000  O
  O21      1.0000 0.37310  0.53470  0.24030  Biso   1.000  O
  O22      1.0000 0.12690  0.46530  0.74030  Biso   1.000  O
  O23      1.0000 0.62690  0.03470  0.25970  Biso   1.000  O
  O24      1.0000 0.87310  0.96530  0.75970  Biso   1.000  O
  O25      1.0000 0.64010  0.44164  0.65101  Biso   1.000  O
  O26      1.0000 0.85990  0.55836  0.15101  Biso   1.000  O
  O27      1.0000 0.35990  0.94164  0.84899  Biso   1.000  O
  O28      1.0000 0.14010  0.05836  0.34899  Biso   1.000  O
  O29      1.0000 0.35990  0.55836  0.34899  Biso   1.000  O
  O30      1.0000 0.14010  0.44164  0.84899  Biso   1.000  O
  O31      1.0000 0.64010  0.05836  0.15101  Biso   1.000  O
  O32      1.0000 0.85990  0.94164  0.65101  Biso   1.000  O
  O33      1.0000 0.52187  0.22985  0.90826  Biso   1.000  O
  O34      1.0000 0.97813  0.77015  0.40826  Biso   1.000  O
  O35      1.0000 0.47813  0.72985  0.59174  Biso   1.000  O
  O36      1.0000 0.02187  0.27015  0.09174  Biso   1.000  O
  O37      1.0000 0.47813  0.77015  0.09174  Biso   1.000  O
  O38      1.0000 0.02187  0.22985  0.59174  Biso   1.000  O
  O39      1.0000 0.52187  0.27015  0.40826  Biso   1.000  O
  O40      1.0000 0.97813  0.72985  0.90826  Biso   1.000  O
  O41      1.0000 0.46700  0.11390  0.86261  Biso   1.000  O
  O42      1.0000 0.03300  0.88610  0.36261  Biso   1.000  O
  O43      1.0000 0.53300  0.61390  0.63739  Biso   1.000  O
  O44      1.0000 0.96700  0.38610  0.13739  Biso   1.000  O
  O45      1.0000 0.53300  0.88610  0.13739  Biso   1.000  O
  O46      1.0000 0.96700  0.11390  0.63739  Biso   1.000  O
  O47      1.0000 0.46700  0.38610  0.36261  Biso   1.000  O
  O48      1.0000 0.03300  0.61390  0.86261  Biso   1.000  O
  O49      1.0000 0.40995  0.07981  0.37670  Biso   1.000  O
  O50      1.0000 0.09005  0.92019  0.87670  Biso   1.000  O
  O51      1.0000 0.59005  0.57981  0.12330  Biso   1.000  O
  O52      1.0000 0.90995  0.42019  0.62330  Biso   1.000  O
  O53      1.0000 0.59005  0.92019  0.62330  Biso   1.000  O
  O54      1.0000 0.90995  0.07981  0.12330  Biso   1.000  O
  O55      1.0000 0.40995  0.42019  0.87670  Biso   1.000  O
  O56      1.0000 0.09005  0.57981  0.37670  Biso   1.000  O
  O57      1.0000 0.34797  0.96659  0.43232  Biso   1.000  O
  O58      1.0000 0.15203  0.03341  0.93232  Biso   1.000  O
  O59      1.0000 0.65203  0.46659  0.06768  Biso   1.000  O
  O60      1.0000 0.84797  0.53341  0.56768  Biso   1.000  O
  O61      1.0000 0.65203  0.03341  0.56768  Biso   1.000  O
  O62      1.0000 0.84797  0.96659  0.06768  Biso   1.000  O
  O63      1.0000 0.34797  0.53341  0.93232  Biso   1.000  O
  O64      1.0000 0.15203  0.46659  0.43232  Biso   1.000  O
  O65      1.0000 0.20500  0.73490  0.29549  Biso   1.000  O
  O66      1.0000 0.29500  0.26510  0.79549  Biso   1.000  O
  O67      1.0000 0.79500  0.23490  0.20451  Biso   1.000  O
  O68      1.0000 0.70500  0.76510  0.70451  Biso   1.000  O
  O69      1.0000 0.79500  0.26510  0.70451  Biso   1.000  O
  O70      1.0000 0.70500  0.73490  0.20451  Biso   1.000  O
  O71      1.0000 0.20500  0.76510  0.79549  Biso   1.000  O
  O72      1.0000 0.29500  0.23490  0.29549  Biso   1.000  O
  O73      1.0000 0.21670  0.73536  0.18485  Biso   1.000  O
  O74      1.0000 0.28330  0.26464  0.68485  Biso   1.000  O
  O75      1.0000 0.78330  0.23536  0.31515  Biso   1.000  O
  O76      1.0000 0.71670  0.76464  0.81515  Biso   1.000  O
  O77      1.0000 0.78330  0.26464  0.81515  Biso   1.000  O
  O78      1.0000 0.71670  0.73536  0.31515  Biso   1.000  O
  O79      1.0000 0.21670  0.76464  0.68485  Biso   1.000  O
  O80      1.0000 0.28330  0.23536  0.18485  Biso   1.000  O
  O81      1.0000 0.39930  0.08480  0.12220  Biso   1.000  O
  O82      1.0000 0.10070  0.91520  0.62220  Biso   1.000  O
  O83      1.0000 0.60070  0.58480  0.37780  Biso   1.000  O
  O84      1.0000 0.89930  0.41520  0.87780  Biso   1.000  O
  O85      1.0000 0.60070  0.91520  0.87780  Biso   1.000  O
  O86      1.0000 0.89930  0.08480  0.37780  Biso   1.000  O
  O87      1.0000 0.39930  0.41520  0.62220  Biso   1.000  O
  O88      1.0000 0.10070  0.58480  0.12220  Biso   1.000  O
  O89      1.0000 0.29450  0.01350  0.07267  Biso   1.000  O
  O90      1.0000 0.20550  0.98650  0.57267  Biso   1.000  O
  O91      1.0000 0.70550  0.51350  0.42733  Biso   1.000  O
  O92      1.0000 0.79450  0.48650  0.92733  Biso   1.000  O
  O93      1.0000 0.70550  0.98650  0.92733  Biso   1.000  O
  O94      1.0000 0.79450  0.01350  0.42733  Biso   1.000  O
  O95      1.0000 0.29450  0.48650  0.57267  Biso   1.000  O
  O96      1.0000 0.20550  0.51350  0.07267  Biso   1.000  O
  O97      1.0000 0.56277  0.06966  0.45154  Biso   1.000  O
  O98      1.0000 0.93723  0.93034  0.95154  Biso   1.000  O
  O99      1.0000 0.43723  0.56966  0.04846  Biso   1.000  O
  O100     1.0000 0.06277  0.43034  0.54846  Biso   1.000  O
  O101     1.0000 0.43723  0.93034  0.54846  Biso   1.000  O
  O102     1.0000 0.06277  0.06966  0.04846  Biso   1.000  O
  O103     1.0000 0.56277  0.43034  0.95154  Biso   1.000  O
  O104     1.0000 0.93723  0.56966  0.45154  Biso   1.000  O
