data_image0
_cell_length_a       10.5821
_cell_length_b       15.0278
_cell_length_c       16.101
_cell_angle_alpha    65.136
_cell_angle_beta     84.715
_cell_angle_gamma    77.397

_symmetry_space_group_name_H-M    "P 1"
_symmetry_int_tables_number       1

loop_
  _symmetry_equiv_pos_as_xyz
  'x, y, z'

loop_
  _atom_site_label
  _atom_site_occupancy
  _atom_site_fract_x
  _atom_site_fract_y
  _atom_site_fract_z
  _atom_site_thermal_displace_type
  _atom_site_B_iso_or_equiv
  _atom_site_type_symbol
  Cu1      1.0000 0.11393  0.32043  0.23882  Biso   1.000  Cu
  Cu2      1.0000 0.88607  0.67957  0.76118  Biso   1.000  Cu
  Cu3      1.0000 0.79867  0.35434  0.68419  Biso   1.000  Cu
  Cu4      1.0000 0.20133  0.64566  0.31581  Biso   1.000  Cu
  Cu5      1.0000 0.78384  0.04729  0.80163  Biso   1.000  Cu
  Cu6      1.0000 0.21616  0.95271  0.19837  Biso   1.000  Cu
  O1       1.0000 0.24670  0.19230  0.38460  Biso   1.000  O
  O2       1.0000 0.75330  0.80770  0.61540  Biso   1.000  O
  O3       1.0000 0.24300  0.35230  0.29770  Biso   1.000  O
  O4       1.0000 0.75700  0.64770  0.70230  Biso   1.000  O
  O5       1.0000 0.72180  0.25530  0.81520  Biso   1.000  O
  O6       1.0000 0.27820  0.74470  0.18480  Biso   1.000  O
  O7       1.0000 0.67540  0.10220  0.87930  Biso   1.000  O
  O8       1.0000 0.32460  0.89780  0.12070  Biso   1.000  O
  O9       1.0000 0.72330  0.16420  0.66750  Biso   1.000  O
  O10      1.0000 0.27670  0.83580  0.33250  Biso   1.000  O
  O11      1.0000 0.69670  0.33140  0.60340  Biso   1.000  O
  O12      1.0000 0.30330  0.66860  0.39660  Biso   1.000  O
  O13      1.0000 0.19290  0.46030  0.44000  Biso   1.000  O
  O14      1.0000 0.80710  0.53970  0.56000  Biso   1.000  O
  O15      1.0000 0.33650  0.52390  0.33180  Biso   1.000  O
  O16      1.0000 0.66350  0.47610  0.66820  Biso   1.000  O
  O17      1.0000 0.35710  0.03850  0.18050  Biso   1.000  O
  O18      1.0000 0.64290  0.96150  0.81950  Biso   1.000  O
  O19      1.0000 0.20570  0.12780  0.07620  Biso   1.000  O
  O20      1.0000 0.79430  0.87220  0.92380  Biso   1.000  O
  O21      1.0000 0.24410  0.26070  0.17440  Biso   1.000  O
  O22      1.0000 0.75590  0.73930  0.82560  Biso   1.000  O
  O23      1.0000 0.22810  0.41400  0.06750  Biso   1.000  O
  O24      1.0000 0.77190  0.58600  0.93250  Biso   1.000  O
  O25      1.0000 0.44170  0.06690  0.32850  Biso   1.000  O
  O26      1.0000 0.55830  0.93310  0.67150  Biso   1.000  O
  H1       1.0000 0.42950  0.05680  0.28300  Biso   1.000  H
  H2       1.0000 0.57050  0.94320  0.71700  Biso   1.000  H
  H3       1.0000 0.36530  0.08830  0.33520  Biso   1.000  H
  H4       1.0000 0.63470  0.91170  0.66480  Biso   1.000  H
  N1       1.0000 0.95850  0.06070  0.84090  Biso   1.000  N
  N2       1.0000 0.04150  0.93930  0.15910  Biso   1.000  N
  N3       1.0000 0.96400  0.37540  0.30270  Biso   1.000  N
  N4       1.0000 0.03600  0.62460  0.69730  Biso   1.000  N
  N5       1.0000 0.96700  0.30520  0.17660  Biso   1.000  N
  N6       1.0000 0.03300  0.69480  0.82340  Biso   1.000  N
  N7       1.0000 0.90750  0.98410  0.72820  Biso   1.000  N
  N8       1.0000 0.09250  0.01590  0.27180  Biso   1.000  N
  N9       1.0000 0.91210  0.37810  0.76430  Biso   1.000  N
  N10      1.0000 0.08790  0.62190  0.23570  Biso   1.000  N
  N11      1.0000 0.97500  0.28350  0.65540  Biso   1.000  N
  N12      1.0000 0.02500  0.71650  0.34460  Biso   1.000  N
  C1       1.0000 0.96950  0.26760  0.11580  Biso   1.000  C
  C2       1.0000 0.03050  0.73240  0.88420  Biso   1.000  C
  H5       1.0000 0.04980  0.24320  0.09640  Biso   1.000  H
  H6       1.0000 0.95020  0.75680  0.90360  Biso   1.000  H
  C3       1.0000 0.73680  0.45780  0.36800  Biso   1.000  C
  C4       1.0000 0.26320  0.54220  0.63200  Biso   1.000  C
  H7       1.0000 0.66170  0.48520  0.39070  Biso   1.000  H
  H8       1.0000 0.33830  0.51480  0.60930  Biso   1.000  H
  C5       1.0000 0.29890  0.45330  0.40090  Biso   1.000  C
  C6       1.0000 0.70110  0.54670  0.59910  Biso   1.000  C
  C7       1.0000 0.27530  0.32550  0.09900  Biso   1.000  C
  C8       1.0000 0.72470  0.67450  0.90100  Biso   1.000  C
  C9       1.0000 0.07420  0.29010  0.69950  Biso   1.000  C
  C10      1.0000 0.92580  0.70990  0.30050  Biso   1.000  C
  C11      1.0000 0.85930  0.26220  0.07880  Biso   1.000  C
  C12      1.0000 0.14070  0.73780  0.92120  Biso   1.000  C
  H9       1.0000 0.86600  0.23390  0.03670  Biso   1.000  H
  H10      1.0000 0.13400  0.76610  0.96330  Biso   1.000  H
  C13      1.0000 0.85330  0.45170  0.39980  Biso   1.000  C
  C14      1.0000 0.14670  0.54830  0.60020  Biso   1.000  C
  H11      1.0000 0.85860  0.47530  0.44410  Biso   1.000  H
  H12      1.0000 0.14140  0.52470  0.55590  Biso   1.000  H
  C15      1.0000 0.67310  0.24800  0.61250  Biso   1.000  C
  C16      1.0000 0.32690  0.75200  0.38750  Biso   1.000  C
  C17      1.0000 0.06320  0.01570  0.80550  Biso   1.000  C
  C18      1.0000 0.93680  0.98430  0.19450  Biso   1.000  C
  C19      1.0000 0.44560  0.35190  0.97890  Biso   1.000  C
  C20      1.0000 0.55440  0.64810  0.02110  Biso   1.000  C
  H13      1.0000 0.43070  0.41750  0.97320  Biso   1.000  H
  H14      1.0000 0.56930  0.58250  0.02680  Biso   1.000  H
  C21      1.0000 0.84880  0.34140  0.20270  Biso   1.000  C
  C22      1.0000 0.15120  0.65860  0.79730  Biso   1.000  C
  C23      1.0000 0.96690  0.40980  0.36590  Biso   1.000  C
  C24      1.0000 0.03310  0.59020  0.63410  Biso   1.000  C
  H15      1.0000 0.04660  0.40610  0.38850  Biso   1.000  H
  H16      1.0000 0.95340  0.59390  0.61150  Biso   1.000  H
  C25      1.0000 0.26900  0.93240  0.71980  Biso   1.000  C
  C26      1.0000 0.73100  0.06760  0.28020  Biso   1.000  C
  H17      1.0000 0.33780  0.90760  0.69010  Biso   1.000  H
  H18      1.0000 0.66220  0.09240  0.30990  Biso   1.000  H
  C27      1.0000 0.29260  0.96420  0.78170  Biso   1.000  C
  C28      1.0000 0.70740  0.03580  0.21830  Biso   1.000  C
  H19      1.0000 0.37820  0.95720  0.79640  Biso   1.000  H
  H20      1.0000 0.62180  0.04280  0.20360  Biso   1.000  H
  C29      1.0000 0.61090  0.38410  0.20170  Biso   1.000  C
  C30      1.0000 0.38910  0.61590  0.79830  Biso   1.000  C
  H21      1.0000 0.53280  0.38510  0.17890  Biso   1.000  H
  H22      1.0000 0.46720  0.61490  0.82110  Biso   1.000  H
  C31      1.0000 0.48860  0.34600  0.49960  Biso   1.000  C
  C32      1.0000 0.51140  0.65400  0.50040  Biso   1.000  C
  H23      1.0000 0.49340  0.40180  0.50960  Biso   1.000  H
  H24      1.0000 0.50660  0.59820  0.49040  Biso   1.000  H
  C33      1.0000 0.57440  0.25710  0.54500  Biso   1.000  C
  C34      1.0000 0.42560  0.74290  0.45500  Biso   1.000  C
  C35      1.0000 0.28490  0.27140  0.36470  Biso   1.000  C
  C36      1.0000 0.71510  0.72860  0.63530  Biso   1.000  C
  C37      1.0000 0.31490  0.11250  0.10900  Biso   1.000  C
  C38      1.0000 0.68510  0.88750  0.89100  Biso   1.000  C
  C39      1.0000 0.73010  0.34050  0.17050  Biso   1.000  C
  C40      1.0000 0.26990  0.65950  0.82950  Biso   1.000  C
  C41      1.0000 0.03530  0.97750  0.74160  Biso   1.000  C
  C42      1.0000 0.96470  0.02250  0.25840  Biso   1.000  C
  C43      1.0000 0.13850  0.93620  0.69870  Biso   1.000  C
  C44      1.0000 0.86150  0.06380  0.30130  Biso   1.000  C
  C45      1.0000 0.84510  0.37920  0.27130  Biso   1.000  C
  C46      1.0000 0.15490  0.62080  0.72870  Biso   1.000  C
  C47      1.0000 0.38950  0.26990  0.42470  Biso   1.000  C
  C48      1.0000 0.61050  0.73010  0.57530  Biso   1.000  C
  C49      1.0000 0.88210  0.95080  0.66900  Biso   1.000  C
  C50      1.0000 0.11790  0.04920  0.33100  Biso   1.000  C
  H25      1.0000 0.79590  0.95520  0.65770  Biso   1.000  H
  H26      1.0000 0.20410  0.04480  0.34230  Biso   1.000  H
  C51      1.0000 0.10270  0.90360  0.63500  Biso   1.000  C
  C52      1.0000 0.89730  0.09640  0.36500  Biso   1.000  C
  H27      1.0000 0.16580  0.87810  0.60220  Biso   1.000  H
  H28      1.0000 0.83420  0.12190  0.39780  Biso   1.000  H
  C53      1.0000 0.39490  0.35480  0.43920  Biso   1.000  C
  C54      1.0000 0.60510  0.64520  0.56080  Biso   1.000  C
  C55      1.0000 0.37620  0.28550  0.04250  Biso   1.000  C
  C56      1.0000 0.62380  0.71450  0.95750  Biso   1.000  C
  C57      1.0000 0.40030  0.18680  0.05270  Biso   1.000  C
  C58      1.0000 0.59970  0.81320  0.94730  Biso   1.000  C
  C59      1.0000 0.60980  0.42340  0.26300  Biso   1.000  C
  C60      1.0000 0.39020  0.57660  0.73700  Biso   1.000  C
  H29      1.0000 0.53120  0.45160  0.28150  Biso   1.000  H
  H30      1.0000 0.46880  0.54840  0.71850  Biso   1.000  H
  C61      1.0000 0.13160  0.19900  0.58290  Biso   1.000  C
  C62      1.0000 0.86840  0.80100  0.41710  Biso   1.000  C
  H31      1.0000 0.14890  0.16790  0.54270  Biso   1.000  H
  H32      1.0000 0.85110  0.83210  0.45730  Biso   1.000  H
  C63      1.0000 0.74100  0.29950  0.10560  Biso   1.000  C
  C64      1.0000 0.25900  0.70050  0.89440  Biso   1.000  C
  H33      1.0000 0.66640  0.29780  0.08050  Biso   1.000  H
  H34      1.0000 0.33360  0.70220  0.91950  Biso   1.000  H
  C65      1.0000 0.23230  0.20630  0.62700  Biso   1.000  C
  C66      1.0000 0.76770  0.79370  0.37300  Biso   1.000  C
  H35      1.0000 0.31760  0.18110  0.61630  Biso   1.000  H
  H36      1.0000 0.68240  0.81890  0.38370  Biso   1.000  H
  C67      1.0000 0.98340  0.09730  0.89740  Biso   1.000  C
  C68      1.0000 0.01660  0.90270  0.10260  Biso   1.000  C
  H37      1.0000 0.91340  0.12900  0.92090  Biso   1.000  H
  H38      1.0000 0.08660  0.87100  0.07910  Biso   1.000  H
  C69      1.0000 0.20380  0.25200  0.68810  Biso   1.000  C
  C70      1.0000 0.79620  0.74800  0.31190  Biso   1.000  C
  C71      1.0000 0.96250  0.42960  0.87710  Biso   1.000  C
  C72      1.0000 0.03750  0.57040  0.12290  Biso   1.000  C
  H39      1.0000 0.93330  0.46090  0.91630  Biso   1.000  H
  H40      1.0000 0.06670  0.53910  0.08370  Biso   1.000  H
  C73      1.0000 0.10500  0.09200  0.92430  Biso   1.000  C
  C74      1.0000 0.89500  0.90800  0.07570  Biso   1.000  C
  H41      1.0000 0.11630  0.11800  0.96570  Biso   1.000  H
  H42      1.0000 0.88370  0.88200  0.03430  Biso   1.000  H
  C75      1.0000 0.20930  0.04780  0.88880  Biso   1.000  C
  C76      1.0000 0.79070  0.95220  0.11120  Biso   1.000  C
  H43      1.0000 0.29260  0.04360  0.90610  Biso   1.000  H
  H44      1.0000 0.70740  0.95640  0.09390  Biso   1.000  H
  C77      1.0000 0.00340  0.23850  0.59840  Biso   1.000  C
  C78      1.0000 0.99660  0.76150  0.40160  Biso   1.000  C
  H45      1.0000 0.93660  0.23320  0.56810  Biso   1.000  H
  H46      1.0000 0.06340  0.76680  0.43190  Biso   1.000  H
  C79      1.0000 0.26690  0.30400  0.79900  Biso   1.000  C
  C80      1.0000 0.73310  0.69600  0.20100  Biso   1.000  C
  H47      1.0000 0.33170  0.30590  0.83310  Biso   1.000  H
  H48      1.0000 0.66830  0.69410  0.16690  Biso   1.000  H
  C81      1.0000 0.47690  0.18180  0.46900  Biso   1.000  C
  C82      1.0000 0.52310  0.81820  0.53100  Biso   1.000  C
  H49      1.0000 0.47310  0.12570  0.45930  Biso   1.000  H
  H50      1.0000 0.52690  0.87430  0.54070  Biso   1.000  H
  C83      1.0000 0.97680  0.90980  0.62270  Biso   1.000  C
  C84      1.0000 0.02320  0.09020  0.37730  Biso   1.000  C
  H51      1.0000 0.95280  0.88630  0.58260  Biso   1.000  H
  H52      1.0000 0.04720  0.11370  0.41740  Biso   1.000  H
  C85      1.0000 0.30050  0.26210  0.73800  Biso   1.000  C
  C86      1.0000 0.69950  0.73790  0.26200  Biso   1.000  C
  H53      1.0000 0.38750  0.23970  0.72880  Biso   1.000  H
  H54      1.0000 0.61250  0.76030  0.27120  Biso   1.000  H
  C87      1.0000 0.13490  0.34560  0.81290  Biso   1.000  C
  C88      1.0000 0.86510  0.65440  0.18710  Biso   1.000  C
  C89      1.0000 0.87540  0.42180  0.82190  Biso   1.000  C
  C90      1.0000 0.12460  0.57820  0.17810  Biso   1.000  C
  H55      1.0000 0.78800  0.44810  0.82540  Biso   1.000  H
  H56      1.0000 0.21200  0.55190  0.17460  Biso   1.000  H
  C91      1.0000 0.19130  0.00880  0.82670  Biso   1.000  C
  C92      1.0000 0.80870  0.99120  0.17330  Biso   1.000  C
  C93      1.0000 0.09170  0.39070  0.87320  Biso   1.000  C
  C94      1.0000 0.90830  0.60930  0.12680  Biso   1.000  C
  H57      1.0000 0.15040  0.39440  0.91060  Biso   1.000  H
  H58      1.0000 0.84960  0.60560  0.08940  Biso   1.000  H
  C95      1.0000 0.03950  0.33890  0.76130  Biso   1.000  C
  C96      1.0000 0.96050  0.66110  0.23870  Biso   1.000  C
  C97      1.0000 0.56970  0.17540  0.52710  Biso   1.000  C
  C98      1.0000 0.43030  0.82460  0.47290  Biso   1.000  C
  H59      1.0000 0.62930  0.11590  0.55440  Biso   1.000  H
  H60      1.0000 0.37070  0.88410  0.44560  Biso   1.000  H
  C99      1.0000 0.49400  0.15800  0.99570  Biso   1.000  C
  C100     1.0000 0.50600  0.84200  0.00430  Biso   1.000  C
  H61      1.0000 0.50920  0.09230  0.00150  Biso   1.000  H
  H62      1.0000 0.49080  0.90770  0.99850  Biso   1.000  H
  C101     1.0000 0.72820  0.42250  0.30010  Biso   1.000  C
  C102     1.0000 0.27180  0.57750  0.69990  Biso   1.000  C
  C103     1.0000 0.53840  0.32190  0.92240  Biso   1.000  C
  C104     1.0000 0.46160  0.67810  0.07760  Biso   1.000  C
  H63      1.0000 0.58260  0.36800  0.87880  Biso   1.000  H
  H64      1.0000 0.41740  0.63200  0.12120  Biso   1.000  H
  C105     1.0000 0.56400  0.22370  0.93180  Biso   1.000  C
  C106     1.0000 0.43600  0.77630  0.06820  Biso   1.000  C
  C107     1.0000 0.66140  0.19360  0.86780  Biso   1.000  C
  C108     1.0000 0.33860  0.80640  0.13220  Biso   1.000  C
