data_image0
_cell_length_a       34.139
_cell_length_b       7.2345
_cell_length_c       15.3517
_cell_angle_alpha    90
_cell_angle_beta     95.59
_cell_angle_gamma    90

_symmetry_space_group_name_H-M    "P 1"
_symmetry_int_tables_number       1

loop_
  _symmetry_equiv_pos_as_xyz
  'x, y, z'

loop_
  _atom_site_label
  _atom_site_occupancy
  _atom_site_fract_x
  _atom_site_fract_y
  _atom_site_fract_z
  _atom_site_thermal_displace_type
  _atom_site_B_iso_or_equiv
  _atom_site_type_symbol
  Cu1      1.0000 0.10292  0.76490  0.13279  Biso   1.000  Cu
  Cu2      1.0000 0.60292  0.26490  0.13279  Biso   1.000  Cu
  Cu3      1.0000 0.89708  0.76490  0.36721  Biso   1.000  Cu
  Cu4      1.0000 0.39708  0.26490  0.36721  Biso   1.000  Cu
  Cu5      1.0000 0.89708  0.23510  0.86721  Biso   1.000  Cu
  Cu6      1.0000 0.39708  0.73510  0.86721  Biso   1.000  Cu
  Cu7      1.0000 0.10292  0.23510  0.63279  Biso   1.000  Cu
  Cu8      1.0000 0.60292  0.73510  0.63279  Biso   1.000  Cu
  O1       1.0000 0.13124  0.52800  0.14855  Biso   1.000  O
  O2       1.0000 0.63124  0.02800  0.14855  Biso   1.000  O
  O3       1.0000 0.86876  0.52800  0.35145  Biso   1.000  O
  O4       1.0000 0.36876  0.02800  0.35145  Biso   1.000  O
  O5       1.0000 0.86876  0.47200  0.85145  Biso   1.000  O
  O6       1.0000 0.36876  0.97200  0.85145  Biso   1.000  O
  O7       1.0000 0.13124  0.47200  0.64855  Biso   1.000  O
  O8       1.0000 0.63124  0.97200  0.64855  Biso   1.000  O
  O9       1.0000 0.15976  0.93560  0.15940  Biso   1.000  O
  O10      1.0000 0.65976  0.43560  0.15940  Biso   1.000  O
  O11      1.0000 0.84024  0.93560  0.34060  Biso   1.000  O
  O12      1.0000 0.34024  0.43560  0.34060  Biso   1.000  O
  O13      1.0000 0.84024  0.06440  0.84060  Biso   1.000  O
  O14      1.0000 0.34024  0.56440  0.84060  Biso   1.000  O
  O15      1.0000 0.15976  0.06440  0.65940  Biso   1.000  O
  O16      1.0000 0.65976  0.56440  0.65940  Biso   1.000  O
  O17      1.0000 0.18214  0.60680  0.77038  Biso   1.000  O
  O18      1.0000 0.68214  0.10680  0.77038  Biso   1.000  O
  O19      1.0000 0.81786  0.60680  0.72962  Biso   1.000  O
  O20      1.0000 0.31786  0.10680  0.72962  Biso   1.000  O
  O21      1.0000 0.81786  0.39320  0.22962  Biso   1.000  O
  O22      1.0000 0.31786  0.89320  0.22962  Biso   1.000  O
  O23      1.0000 0.18214  0.39320  0.27038  Biso   1.000  O
  O24      1.0000 0.68214  0.89320  0.27038  Biso   1.000  O
  O25      1.0000 0.26468  0.84670  0.38677  Biso   1.000  O
  O26      1.0000 0.76468  0.34670  0.38677  Biso   1.000  O
  O27      1.0000 0.73532  0.84670  0.11323  Biso   1.000  O
  O28      1.0000 0.23532  0.34670  0.11323  Biso   1.000  O
  O29      1.0000 0.73532  0.15330  0.61323  Biso   1.000  O
  O30      1.0000 0.23532  0.65330  0.61323  Biso   1.000  O
  O31      1.0000 0.26468  0.15330  0.88677  Biso   1.000  O
  O32      1.0000 0.76468  0.65330  0.88677  Biso   1.000  O
  O33      1.0000 0.27174  0.46170  0.46329  Biso   1.000  O
  O34      1.0000 0.77174  0.96170  0.46329  Biso   1.000  O
  O35      1.0000 0.72826  0.46170  0.03671  Biso   1.000  O
  O36      1.0000 0.22826  0.96170  0.03671  Biso   1.000  O
  O37      1.0000 0.72826  0.53830  0.53671  Biso   1.000  O
  O38      1.0000 0.22826  0.03830  0.53671  Biso   1.000  O
  O39      1.0000 0.27174  0.53830  0.96329  Biso   1.000  O
  O40      1.0000 0.77174  0.03830  0.96329  Biso   1.000  O
  N1       1.0000 0.02179  0.24080  0.12290  Biso   1.000  N
  N2       1.0000 0.52179  0.74080  0.12290  Biso   1.000  N
  N3       1.0000 0.97821  0.24080  0.37710  Biso   1.000  N
  N4       1.0000 0.47821  0.74080  0.37710  Biso   1.000  N
  N5       1.0000 0.97821  0.75920  0.87710  Biso   1.000  N
  N6       1.0000 0.47821  0.25920  0.87710  Biso   1.000  N
  N7       1.0000 0.02179  0.75920  0.62290  Biso   1.000  N
  N8       1.0000 0.52179  0.25920  0.62290  Biso   1.000  N
  N9       1.0000 0.06790  0.98290  0.12107  Biso   1.000  N
  N10      1.0000 0.56790  0.48290  0.12107  Biso   1.000  N
  N11      1.0000 0.93210  0.98290  0.37893  Biso   1.000  N
  N12      1.0000 0.43210  0.48290  0.37893  Biso   1.000  N
  N13      1.0000 0.93210  0.01710  0.87893  Biso   1.000  N
  N14      1.0000 0.43210  0.51710  0.87893  Biso   1.000  N
  N15      1.0000 0.06790  0.01710  0.62107  Biso   1.000  N
  N16      1.0000 0.56790  0.51710  0.62107  Biso   1.000  N
  N17      1.0000 0.03825  0.56890  0.10584  Biso   1.000  N
  N18      1.0000 0.53825  0.06890  0.10584  Biso   1.000  N
  N19      1.0000 0.96175  0.56890  0.39416  Biso   1.000  N
  N20      1.0000 0.46175  0.06890  0.39416  Biso   1.000  N
  N21      1.0000 0.96175  0.43110  0.89416  Biso   1.000  N
  N22      1.0000 0.46175  0.93110  0.89416  Biso   1.000  N
  N23      1.0000 0.03825  0.43110  0.60584  Biso   1.000  N
  N24      1.0000 0.53825  0.93110  0.60584  Biso   1.000  N
  C1       1.0000 0.18257  0.69620  0.84028  Biso   1.000  C
  C2       1.0000 0.68257  0.19620  0.84028  Biso   1.000  C
  C3       1.0000 0.81743  0.69620  0.65972  Biso   1.000  C
  C4       1.0000 0.31743  0.19620  0.65972  Biso   1.000  C
  C5       1.0000 0.81743  0.30380  0.15972  Biso   1.000  C
  C6       1.0000 0.31743  0.80380  0.15972  Biso   1.000  C
  C7       1.0000 0.18257  0.30380  0.34028  Biso   1.000  C
  C8       1.0000 0.68257  0.80380  0.34028  Biso   1.000  C
  C9       1.0000 0.04782  0.10960  0.12287  Biso   1.000  C
  C10      1.0000 0.54782  0.60960  0.12287  Biso   1.000  C
  C11      1.0000 0.95218  0.10960  0.37713  Biso   1.000  C
  C12      1.0000 0.45218  0.60960  0.37713  Biso   1.000  C
  C13      1.0000 0.95218  0.89040  0.87713  Biso   1.000  C
  C14      1.0000 0.45218  0.39040  0.87713  Biso   1.000  C
  C15      1.0000 0.04782  0.89040  0.62287  Biso   1.000  C
  C16      1.0000 0.54782  0.39040  0.62287  Biso   1.000  C
  C17      1.0000 0.03227  0.41350  0.11423  Biso   1.000  C
  C18      1.0000 0.53227  0.91350  0.11423  Biso   1.000  C
  C19      1.0000 0.96773  0.41350  0.38577  Biso   1.000  C
  C20      1.0000 0.46773  0.91350  0.38577  Biso   1.000  C
  C21      1.0000 0.96773  0.58650  0.88577  Biso   1.000  C
  C22      1.0000 0.46773  0.08650  0.88577  Biso   1.000  C
  C23      1.0000 0.03227  0.58650  0.61423  Biso   1.000  C
  C24      1.0000 0.53227  0.08650  0.61423  Biso   1.000  C
  Cu9      1.0000 0.10280  0.73200  0.13150  Biso   1.000  Cu
  Cu10     1.0000 0.60280  0.23200  0.13150  Biso   1.000  Cu
  Cu11     1.0000 0.89720  0.73200  0.36850  Biso   1.000  Cu
  Cu12     1.0000 0.39720  0.23200  0.36850  Biso   1.000  Cu
  Cu13     1.0000 0.89720  0.26800  0.86850  Biso   1.000  Cu
  Cu14     1.0000 0.39720  0.76800  0.86850  Biso   1.000  Cu
  Cu15     1.0000 0.10280  0.26800  0.63150  Biso   1.000  Cu
  Cu16     1.0000 0.60280  0.76800  0.63150  Biso   1.000  Cu
  O41      1.0000 0.15660  0.56300  0.15740  Biso   1.000  O
  O42      1.0000 0.65660  0.06300  0.15740  Biso   1.000  O
  O43      1.0000 0.84340  0.56300  0.34260  Biso   1.000  O
  O44      1.0000 0.34340  0.06300  0.34260  Biso   1.000  O
  O45      1.0000 0.84340  0.43700  0.84260  Biso   1.000  O
  O46      1.0000 0.34340  0.93700  0.84260  Biso   1.000  O
  O47      1.0000 0.15660  0.43700  0.65740  Biso   1.000  O
  O48      1.0000 0.65660  0.93700  0.65740  Biso   1.000  O
  O49      1.0000 0.13000  0.96900  0.14590  Biso   1.000  O
  O50      1.0000 0.63000  0.46900  0.14590  Biso   1.000  O
  O51      1.0000 0.87000  0.96900  0.35410  Biso   1.000  O
  O52      1.0000 0.37000  0.46900  0.35410  Biso   1.000  O
  O53      1.0000 0.87000  0.03100  0.85410  Biso   1.000  O
  O54      1.0000 0.37000  0.53100  0.85410  Biso   1.000  O
  O55      1.0000 0.13000  0.03100  0.64590  Biso   1.000  O
  O56      1.0000 0.63000  0.53100  0.64590  Biso   1.000  O
  O57      1.0000 0.18130  0.89100  0.76940  Biso   1.000  O
  O58      1.0000 0.68130  0.39100  0.76940  Biso   1.000  O
  O59      1.0000 0.81870  0.89100  0.73060  Biso   1.000  O
  O60      1.0000 0.31870  0.39100  0.73060  Biso   1.000  O
  O61      1.0000 0.81870  0.10900  0.23060  Biso   1.000  O
  O62      1.0000 0.31870  0.60900  0.23060  Biso   1.000  O
  O63      1.0000 0.18130  0.10900  0.26940  Biso   1.000  O
  O64      1.0000 0.68130  0.60900  0.26940  Biso   1.000  O
  O65      1.0000 0.27210  0.03300  0.46480  Biso   1.000  O
  O66      1.0000 0.77210  0.53300  0.46480  Biso   1.000  O
  O67      1.0000 0.72790  0.03300  0.03520  Biso   1.000  O
  O68      1.0000 0.22790  0.53300  0.03520  Biso   1.000  O
  O69      1.0000 0.72790  0.96700  0.53520  Biso   1.000  O
  O70      1.0000 0.22790  0.46700  0.53520  Biso   1.000  O
  O71      1.0000 0.27210  0.96700  0.96480  Biso   1.000  O
  O72      1.0000 0.77210  0.46700  0.96480  Biso   1.000  O
  O73      1.0000 0.26410  0.64900  0.38650  Biso   1.000  O
  O74      1.0000 0.76410  0.14900  0.38650  Biso   1.000  O
  O75      1.0000 0.73590  0.64900  0.11350  Biso   1.000  O
  O76      1.0000 0.23590  0.14900  0.11350  Biso   1.000  O
  O77      1.0000 0.73590  0.35100  0.61350  Biso   1.000  O
  O78      1.0000 0.23590  0.85100  0.61350  Biso   1.000  O
  O79      1.0000 0.26410  0.35100  0.88650  Biso   1.000  O
  O80      1.0000 0.76410  0.85100  0.88650  Biso   1.000  O
  N25      1.0000 0.02840  0.24900  0.14740  Biso   1.000  N
  N26      1.0000 0.52840  0.74900  0.14740  Biso   1.000  N
  N27      1.0000 0.97160  0.24900  0.35260  Biso   1.000  N
  N28      1.0000 0.47160  0.74900  0.35260  Biso   1.000  N
  N29      1.0000 0.97160  0.75100  0.85260  Biso   1.000  N
  N30      1.0000 0.47160  0.25100  0.85260  Biso   1.000  N
  N31      1.0000 0.02840  0.75100  0.64740  Biso   1.000  N
  N32      1.0000 0.52840  0.25100  0.64740  Biso   1.000  N
  N33      1.0000 0.03410  0.92400  0.10060  Biso   1.000  N
  N34      1.0000 0.53410  0.42400  0.10060  Biso   1.000  N
  N35      1.0000 0.96590  0.92400  0.39940  Biso   1.000  N
  N36      1.0000 0.46590  0.42400  0.39940  Biso   1.000  N
  N37      1.0000 0.96590  0.07600  0.89940  Biso   1.000  N
  N38      1.0000 0.46590  0.57600  0.89940  Biso   1.000  N
  N39      1.0000 0.03410  0.07600  0.60060  Biso   1.000  N
  N40      1.0000 0.53410  0.57600  0.60060  Biso   1.000  N
  N41      1.0000 0.06600  0.51400  0.11630  Biso   1.000  N
  N42      1.0000 0.56600  0.01400  0.11630  Biso   1.000  N
  N43      1.0000 0.93400  0.51400  0.38370  Biso   1.000  N
  N44      1.0000 0.43400  0.01400  0.38370  Biso   1.000  N
  N45      1.0000 0.93400  0.48600  0.88370  Biso   1.000  N
  N46      1.0000 0.43400  0.98600  0.88370  Biso   1.000  N
  N47      1.0000 0.06600  0.48600  0.61630  Biso   1.000  N
  N48      1.0000 0.56600  0.98600  0.61630  Biso   1.000  N
  C25      1.0000 0.18230  0.80900  0.83730  Biso   1.000  C
  C26      1.0000 0.68230  0.30900  0.83730  Biso   1.000  C
  C27      1.0000 0.81770  0.80900  0.66270  Biso   1.000  C
  C28      1.0000 0.31770  0.30900  0.66270  Biso   1.000  C
  C29      1.0000 0.81770  0.19100  0.16270  Biso   1.000  C
  C30      1.0000 0.31770  0.69100  0.16270  Biso   1.000  C
  C31      1.0000 0.18230  0.19100  0.33730  Biso   1.000  C
  C32      1.0000 0.68230  0.69100  0.33730  Biso   1.000  C
  C33      1.0000 0.03090  0.08200  0.11370  Biso   1.000  C
  C34      1.0000 0.53090  0.58200  0.11370  Biso   1.000  C
  C35      1.0000 0.96910  0.08200  0.38630  Biso   1.000  C
  C36      1.0000 0.46910  0.58200  0.38630  Biso   1.000  C
  C37      1.0000 0.96910  0.91800  0.88630  Biso   1.000  C
  C38      1.0000 0.46910  0.41800  0.88630  Biso   1.000  C
  C39      1.0000 0.03090  0.91800  0.61370  Biso   1.000  C
  C40      1.0000 0.53090  0.41800  0.61370  Biso   1.000  C
  C41      1.0000 0.04630  0.38700  0.12130  Biso   1.000  C
  C42      1.0000 0.54630  0.88700  0.12130  Biso   1.000  C
  C43      1.0000 0.95370  0.38700  0.37870  Biso   1.000  C
  C44      1.0000 0.45370  0.88700  0.37870  Biso   1.000  C
  C45      1.0000 0.95370  0.61300  0.87870  Biso   1.000  C
  C46      1.0000 0.45370  0.11300  0.87870  Biso   1.000  C
  C47      1.0000 0.04630  0.61300  0.62130  Biso   1.000  C
  C48      1.0000 0.54630  0.11300  0.62130  Biso   1.000  C
  Cu17     1.0000 0.25000  0.75000  0.50000  Biso   1.000  Cu
  Cu18     1.0000 0.75000  0.25000  0.50000  Biso   1.000  Cu
  Cu19     1.0000 0.75000  0.75000  0.00000  Biso   1.000  Cu
  Cu20     1.0000 0.25000  0.25000  0.00000  Biso   1.000  Cu
  O81      1.0000 0.19593  0.72190  0.43840  Biso   1.000  O
  O82      1.0000 0.69593  0.22190  0.43840  Biso   1.000  O
  O83      1.0000 0.80407  0.72190  0.06160  Biso   1.000  O
  O84      1.0000 0.30407  0.22190  0.06160  Biso   1.000  O
  O85      1.0000 0.80407  0.27810  0.56160  Biso   1.000  O
  O86      1.0000 0.30407  0.77810  0.56160  Biso   1.000  O
  O87      1.0000 0.19593  0.27810  0.93840  Biso   1.000  O
  O88      1.0000 0.69593  0.77810  0.93840  Biso   1.000  O
  O89      1.0000 0.15980  0.73670  0.55269  Biso   1.000  O
  O90      1.0000 0.65980  0.23670  0.55269  Biso   1.000  O
  O91      1.0000 0.84020  0.73670  0.94731  Biso   1.000  O
  O92      1.0000 0.34020  0.23670  0.94731  Biso   1.000  O
  O93      1.0000 0.84020  0.26330  0.44731  Biso   1.000  O
  O94      1.0000 0.34020  0.76330  0.44731  Biso   1.000  O
  O95      1.0000 0.15980  0.26330  0.05269  Biso   1.000  O
  O96      1.0000 0.65980  0.76330  0.05269  Biso   1.000  O
  O97      1.0000 0.21299  0.75800  0.88267  Biso   1.000  O
  O98      1.0000 0.71299  0.25800  0.88267  Biso   1.000  O
  O99      1.0000 0.78701  0.75800  0.61733  Biso   1.000  O
  O100     1.0000 0.28701  0.25800  0.61733  Biso   1.000  O
  O101     1.0000 0.78701  0.24200  0.11733  Biso   1.000  O
  O102     1.0000 0.28701  0.74200  0.11733  Biso   1.000  O
  O103     1.0000 0.21299  0.24200  0.38267  Biso   1.000  O
  O104     1.0000 0.71299  0.74200  0.38267  Biso   1.000  O
  O105     1.0000 0.27315  0.78410  0.76582  Biso   1.000  O
  O106     1.0000 0.77315  0.28410  0.76582  Biso   1.000  O
  O107     1.0000 0.72685  0.78410  0.73418  Biso   1.000  O
  O108     1.0000 0.22685  0.28410  0.73418  Biso   1.000  O
  O109     1.0000 0.72685  0.21590  0.23418  Biso   1.000  O
  O110     1.0000 0.22685  0.71590  0.23418  Biso   1.000  O
  O111     1.0000 0.27315  0.21590  0.26582  Biso   1.000  O
  O112     1.0000 0.77315  0.71590  0.26582  Biso   1.000  O
  N49      1.0000 0.09742  0.75700  0.26238  Biso   1.000  N
  N50      1.0000 0.59742  0.25700  0.26238  Biso   1.000  N
  N51      1.0000 0.90258  0.75700  0.23762  Biso   1.000  N
  N52      1.0000 0.40258  0.25700  0.23762  Biso   1.000  N
  N53      1.0000 0.90258  0.24300  0.73762  Biso   1.000  N
  N54      1.0000 0.40258  0.74300  0.73762  Biso   1.000  N
  N55      1.0000 0.09742  0.24300  0.76238  Biso   1.000  N
  N56      1.0000 0.59742  0.74300  0.76238  Biso   1.000  N
  N57      1.0000 0.10664  0.75470  0.00177  Biso   1.000  N
  N58      1.0000 0.60664  0.25470  0.00177  Biso   1.000  N
  N59      1.0000 0.89336  0.75470  0.49823  Biso   1.000  N
  N60      1.0000 0.39336  0.25470  0.49823  Biso   1.000  N
  N61      1.0000 0.89336  0.24530  0.99823  Biso   1.000  N
  N62      1.0000 0.39336  0.74530  0.99823  Biso   1.000  N
  N63      1.0000 0.10664  0.24530  0.50177  Biso   1.000  N
  N64      1.0000 0.60664  0.74530  0.50177  Biso   1.000  N
  C49      1.0000 0.12958  0.75420  0.32071  Biso   1.000  C
  C50      1.0000 0.62958  0.25420  0.32071  Biso   1.000  C
  C51      1.0000 0.87042  0.75420  0.17929  Biso   1.000  C
  C52      1.0000 0.37042  0.25420  0.17929  Biso   1.000  C
  C53      1.0000 0.87042  0.24580  0.67929  Biso   1.000  C
  C54      1.0000 0.37042  0.74580  0.67929  Biso   1.000  C
  C55      1.0000 0.12958  0.24580  0.82071  Biso   1.000  C
  C56      1.0000 0.62958  0.74580  0.82071  Biso   1.000  C
  H1       1.0000 0.15480  0.76100  0.29980  Biso   1.000  H
  H2       1.0000 0.65480  0.26100  0.29980  Biso   1.000  H
  H3       1.0000 0.84520  0.76100  0.20020  Biso   1.000  H
  H4       1.0000 0.34520  0.26100  0.20020  Biso   1.000  H
  H5       1.0000 0.84520  0.23900  0.70020  Biso   1.000  H
  H6       1.0000 0.34520  0.73900  0.70020  Biso   1.000  H
  H7       1.0000 0.15480  0.23900  0.79980  Biso   1.000  H
  H8       1.0000 0.65480  0.73900  0.79980  Biso   1.000  H
  C57      1.0000 0.12709  0.74160  0.41021  Biso   1.000  C
  C58      1.0000 0.62709  0.24160  0.41021  Biso   1.000  C
  C59      1.0000 0.87291  0.74160  0.08979  Biso   1.000  C
  C60      1.0000 0.37291  0.24160  0.08979  Biso   1.000  C
  C61      1.0000 0.87291  0.25840  0.58979  Biso   1.000  C
  C62      1.0000 0.37291  0.75840  0.58979  Biso   1.000  C
  C63      1.0000 0.12709  0.25840  0.91021  Biso   1.000  C
  C64      1.0000 0.62709  0.75840  0.91021  Biso   1.000  C
  C65      1.0000 0.09015  0.73230  0.44034  Biso   1.000  C
  C66      1.0000 0.59015  0.23230  0.44034  Biso   1.000  C
  C67      1.0000 0.90985  0.73230  0.05966  Biso   1.000  C
  C68      1.0000 0.40985  0.23230  0.05966  Biso   1.000  C
  C69      1.0000 0.90985  0.26770  0.55966  Biso   1.000  C
  C70      1.0000 0.40985  0.76770  0.55966  Biso   1.000  C
  C71      1.0000 0.09015  0.26770  0.94034  Biso   1.000  C
  C72      1.0000 0.59015  0.76770  0.94034  Biso   1.000  C
  H9       1.0000 0.08760  0.72250  0.50130  Biso   1.000  H
  H10      1.0000 0.58760  0.22250  0.50130  Biso   1.000  H
  H11      1.0000 0.91240  0.72250  0.99870  Biso   1.000  H
  H12      1.0000 0.41240  0.22250  0.99870  Biso   1.000  H
  H13      1.0000 0.91240  0.27750  0.49870  Biso   1.000  H
  H14      1.0000 0.41240  0.77750  0.49870  Biso   1.000  H
  H15      1.0000 0.08760  0.27750  0.00130  Biso   1.000  H
  H16      1.0000 0.58760  0.77750  0.00130  Biso   1.000  H
  C73      1.0000 0.05674  0.73750  0.38051  Biso   1.000  C
  C74      1.0000 0.55674  0.23750  0.38051  Biso   1.000  C
  C75      1.0000 0.94326  0.73750  0.11949  Biso   1.000  C
  C76      1.0000 0.44326  0.23750  0.11949  Biso   1.000  C
  C77      1.0000 0.94326  0.26250  0.61949  Biso   1.000  C
  C78      1.0000 0.44326  0.76250  0.61949  Biso   1.000  C
  C79      1.0000 0.05674  0.26250  0.88051  Biso   1.000  C
  C80      1.0000 0.55674  0.76250  0.88051  Biso   1.000  C
  H17      1.0000 0.03110  0.73310  0.39980  Biso   1.000  H
  H18      1.0000 0.53110  0.23310  0.39980  Biso   1.000  H
  H19      1.0000 0.96890  0.73310  0.10020  Biso   1.000  H
  H20      1.0000 0.46890  0.23310  0.10020  Biso   1.000  H
  H21      1.0000 0.96890  0.26690  0.60020  Biso   1.000  H
  H22      1.0000 0.46890  0.76690  0.60020  Biso   1.000  H
  H23      1.0000 0.03110  0.26690  0.89980  Biso   1.000  H
  H24      1.0000 0.53110  0.76690  0.89980  Biso   1.000  H
  C81      1.0000 0.06171  0.74910  0.29257  Biso   1.000  C
  C82      1.0000 0.56171  0.24910  0.29257  Biso   1.000  C
  C83      1.0000 0.93829  0.74910  0.20743  Biso   1.000  C
  C84      1.0000 0.43829  0.24910  0.20743  Biso   1.000  C
  C85      1.0000 0.93829  0.25090  0.70743  Biso   1.000  C
  C86      1.0000 0.43829  0.75090  0.70743  Biso   1.000  C
  C87      1.0000 0.06171  0.25090  0.79257  Biso   1.000  C
  C88      1.0000 0.56171  0.75090  0.79257  Biso   1.000  C
  H25      1.0000 0.03900  0.75160  0.25160  Biso   1.000  H
  H26      1.0000 0.53900  0.25160  0.25160  Biso   1.000  H
  H27      1.0000 0.96100  0.75160  0.24840  Biso   1.000  H
  H28      1.0000 0.46100  0.25160  0.24840  Biso   1.000  H
  H29      1.0000 0.96100  0.24840  0.74840  Biso   1.000  H
  H30      1.0000 0.46100  0.74840  0.74840  Biso   1.000  H
  H31      1.0000 0.03900  0.24840  0.75160  Biso   1.000  H
  H32      1.0000 0.53900  0.74840  0.75160  Biso   1.000  H
  C89      1.0000 0.16387  0.73340  0.47208  Biso   1.000  C
  C90      1.0000 0.66387  0.23340  0.47208  Biso   1.000  C
  C91      1.0000 0.83613  0.73340  0.02792  Biso   1.000  C
  C92      1.0000 0.33613  0.23340  0.02792  Biso   1.000  C
  C93      1.0000 0.83613  0.26660  0.52792  Biso   1.000  C
  C94      1.0000 0.33613  0.76660  0.52792  Biso   1.000  C
  C95      1.0000 0.16387  0.26660  0.97208  Biso   1.000  C
  C96      1.0000 0.66387  0.76660  0.97208  Biso   1.000  C
  C97      1.0000 0.14116  0.73910  0.96683  Biso   1.000  C
  C98      1.0000 0.64116  0.23910  0.96683  Biso   1.000  C
  C99      1.0000 0.85884  0.73910  0.53317  Biso   1.000  C
  C100     1.0000 0.35884  0.23910  0.53317  Biso   1.000  C
  C101     1.0000 0.85884  0.26090  0.03317  Biso   1.000  C
  C102     1.0000 0.35884  0.76090  0.03317  Biso   1.000  C
  C103     1.0000 0.14116  0.26090  0.46683  Biso   1.000  C
  C104     1.0000 0.64116  0.76090  0.46683  Biso   1.000  C
  H33      1.0000 0.16480  0.73320  0.00500  Biso   1.000  H
  H34      1.0000 0.66480  0.23320  0.00500  Biso   1.000  H
  H35      1.0000 0.83520  0.73320  0.49500  Biso   1.000  H
  H36      1.0000 0.33520  0.23320  0.49500  Biso   1.000  H
  H37      1.0000 0.83520  0.26680  0.99500  Biso   1.000  H
  H38      1.0000 0.33520  0.76680  0.99500  Biso   1.000  H
  H39      1.0000 0.16480  0.26680  0.50500  Biso   1.000  H
  H40      1.0000 0.66480  0.76680  0.50500  Biso   1.000  H
  C105     1.0000 0.14358  0.73110  0.87679  Biso   1.000  C
  C106     1.0000 0.64358  0.23110  0.87679  Biso   1.000  C
  C107     1.0000 0.85642  0.73110  0.62321  Biso   1.000  C
  C108     1.0000 0.35642  0.23110  0.62321  Biso   1.000  C
  C109     1.0000 0.85642  0.26890  0.12321  Biso   1.000  C
  C110     1.0000 0.35642  0.76890  0.12321  Biso   1.000  C
  C111     1.0000 0.14358  0.26890  0.37679  Biso   1.000  C
  C112     1.0000 0.64358  0.76890  0.37679  Biso   1.000  C
  C113     1.0000 0.10903  0.74650  0.82089  Biso   1.000  C
  C114     1.0000 0.60903  0.24650  0.82089  Biso   1.000  C
  C115     1.0000 0.89097  0.74650  0.67911  Biso   1.000  C
  C116     1.0000 0.39097  0.24650  0.67911  Biso   1.000  C
  C117     1.0000 0.89097  0.25350  0.17911  Biso   1.000  C
  C118     1.0000 0.39097  0.75350  0.17911  Biso   1.000  C
  C119     1.0000 0.10903  0.25350  0.32089  Biso   1.000  C
  C120     1.0000 0.60903  0.75350  0.32089  Biso   1.000  C
  H41      1.0000 0.10970  0.74350  0.75920  Biso   1.000  H
  H42      1.0000 0.60970  0.24350  0.75920  Biso   1.000  H
  H43      1.0000 0.89030  0.74350  0.74080  Biso   1.000  H
  H44      1.0000 0.39030  0.24350  0.74080  Biso   1.000  H
  H45      1.0000 0.89030  0.25650  0.24080  Biso   1.000  H
  H46      1.0000 0.39030  0.75650  0.24080  Biso   1.000  H
  H47      1.0000 0.10970  0.25650  0.25920  Biso   1.000  H
  H48      1.0000 0.60970  0.75650  0.25920  Biso   1.000  H
  C121     1.0000 0.07360  0.76630  0.85716  Biso   1.000  C
  C122     1.0000 0.57360  0.26630  0.85716  Biso   1.000  C
  C123     1.0000 0.92640  0.76630  0.64284  Biso   1.000  C
  C124     1.0000 0.42640  0.26630  0.64284  Biso   1.000  C
  C125     1.0000 0.92640  0.23370  0.14284  Biso   1.000  C
  C126     1.0000 0.42640  0.73370  0.14284  Biso   1.000  C
  C127     1.0000 0.07360  0.23370  0.35716  Biso   1.000  C
  C128     1.0000 0.57360  0.73370  0.35716  Biso   1.000  C
  H49      1.0000 0.04970  0.77800  0.82050  Biso   1.000  H
  H50      1.0000 0.54970  0.27800  0.82050  Biso   1.000  H
  H51      1.0000 0.95030  0.77800  0.67950  Biso   1.000  H
  H52      1.0000 0.45030  0.27800  0.67950  Biso   1.000  H
  H53      1.0000 0.95030  0.22200  0.17950  Biso   1.000  H
  H54      1.0000 0.45030  0.72200  0.17950  Biso   1.000  H
  H55      1.0000 0.04970  0.22200  0.32050  Biso   1.000  H
  H56      1.0000 0.54970  0.72200  0.32050  Biso   1.000  H
  C129     1.0000 0.07349  0.76890  0.94709  Biso   1.000  C
  C130     1.0000 0.57349  0.26890  0.94709  Biso   1.000  C
  C131     1.0000 0.92651  0.76890  0.55291  Biso   1.000  C
  C132     1.0000 0.42651  0.26890  0.55291  Biso   1.000  C
  C133     1.0000 0.92651  0.23110  0.05291  Biso   1.000  C
  C134     1.0000 0.42651  0.73110  0.05291  Biso   1.000  C
  C135     1.0000 0.07349  0.23110  0.44709  Biso   1.000  C
  C136     1.0000 0.57349  0.73110  0.44709  Biso   1.000  C
  H57      1.0000 0.04910  0.78130  0.97130  Biso   1.000  H
  H58      1.0000 0.54910  0.28130  0.97130  Biso   1.000  H
  H59      1.0000 0.95090  0.78130  0.52870  Biso   1.000  H
  H60      1.0000 0.45090  0.28130  0.52870  Biso   1.000  H
  H61      1.0000 0.95090  0.21870  0.02870  Biso   1.000  H
  H62      1.0000 0.45090  0.71870  0.02870  Biso   1.000  H
  H63      1.0000 0.04910  0.21870  0.47130  Biso   1.000  H
  H64      1.0000 0.54910  0.71870  0.47130  Biso   1.000  H
