data_image0
_cell_length_a       8.9368
_cell_length_b       13.1629
_cell_length_c       14.0127
_cell_angle_alpha    95.343
_cell_angle_beta     93.436
_cell_angle_gamma    91.245

_symmetry_space_group_name_H-M    "P 1"
_symmetry_int_tables_number       1

loop_
  _symmetry_equiv_pos_as_xyz
  'x, y, z'

loop_
  _atom_site_label
  _atom_site_occupancy
  _atom_site_fract_x
  _atom_site_fract_y
  _atom_site_fract_z
  _atom_site_thermal_displace_type
  _atom_site_B_iso_or_equiv
  _atom_site_type_symbol
  U1       1.0000 0.68663  0.94090  0.46269  Biso   1.000  U
  U2       1.0000 0.31337  0.05910  0.53731  Biso   1.000  U
  S1       1.0000 0.92935  0.16437  0.53514  Biso   1.000  S
  S2       1.0000 0.07065  0.83563  0.46486  Biso   1.000  S
  S3       1.0000 0.58770  0.67037  0.37399  Biso   1.000  S
  S4       1.0000 0.41230  0.32963  0.62601  Biso   1.000  S
  O1       1.0000 0.64590  0.95799  0.33980  Biso   1.000  O
  O2       1.0000 0.35410  0.04201  0.66020  Biso   1.000  O
  O3       1.0000 0.73490  0.92579  0.58503  Biso   1.000  O
  O4       1.0000 0.26510  0.07421  0.41497  Biso   1.000  O
  O5       1.0000 0.87280  0.08169  0.46264  Biso   1.000  O
  O6       1.0000 0.12720  0.91831  0.53736  Biso   1.000  O
  O7       1.0000 0.07850  0.14159  0.57523  Biso   1.000  O
  O8       1.0000 0.92150  0.85841  0.42477  Biso   1.000  O
  O9       1.0000 0.82630  0.18703  0.60893  Biso   1.000  O
  O10      1.0000 0.17370  0.81297  0.39107  Biso   1.000  O
  O11      1.0000 0.64410  0.76074  0.43656  Biso   1.000  O
  O12      1.0000 0.35590  0.23926  0.56344  Biso   1.000  O
  O13      1.0000 0.55770  0.69320  0.27563  Biso   1.000  O
  O14      1.0000 0.44230  0.30680  0.72437  Biso   1.000  O
  O15      1.0000 0.46460  0.62170  0.41562  Biso   1.000  O
  O16      1.0000 0.53540  0.37830  0.58438  Biso   1.000  O
  O17      1.0000 0.43580  0.91161  0.48470  Biso   1.000  O
  O18      1.0000 0.56420  0.08839  0.51530  Biso   1.000  O
  H1       1.0000 0.37660  0.87380  0.43890  Biso   1.000  H
  H2       1.0000 0.62340  0.12620  0.56110  Biso   1.000  H
  C1       1.0000 0.94750  0.27360  0.47190  Biso   1.000  C
  C2       1.0000 0.05250  0.72640  0.52810  Biso   1.000  C
  C3       1.0000 0.84300  0.34800  0.48280  Biso   1.000  C
  C4       1.0000 0.15700  0.65200  0.51720  Biso   1.000  C
  H3       1.0000 0.76840  0.34330  0.52790  Biso   1.000  H
  H4       1.0000 0.23160  0.65670  0.47210  Biso   1.000  H
  C5       1.0000 0.84720  0.43200  0.42630  Biso   1.000  C
  C6       1.0000 0.15280  0.56800  0.57370  Biso   1.000  C
  C7       1.0000 0.96030  0.43870  0.36020  Biso   1.000  C
  C8       1.0000 0.03970  0.56130  0.63980  Biso   1.000  C
  C9       1.0000 0.06670  0.36030  0.35190  Biso   1.000  C
  C10      1.0000 0.93330  0.63970  0.64810  Biso   1.000  C
  H5       1.0000 0.14290  0.36390  0.30780  Biso   1.000  H
  H6       1.0000 0.85710  0.63610  0.69220  Biso   1.000  H
  C11      1.0000 0.06070  0.28010  0.40640  Biso   1.000  C
  C12      1.0000 0.93930  0.71990  0.59360  Biso   1.000  C
  H7       1.0000 0.13290  0.22830  0.40040  Biso   1.000  H
  H8       1.0000 0.86710  0.77170  0.59960  Biso   1.000  H
  C13      1.0000 0.73590  0.50670  0.43200  Biso   1.000  C
  C14      1.0000 0.26410  0.49330  0.56800  Biso   1.000  C
  H9       1.0000 0.66000  0.50300  0.47630  Biso   1.000  H
  H10      1.0000 0.34000  0.49700  0.52370  Biso   1.000  H
  C15      1.0000 0.73760  0.58430  0.37350  Biso   1.000  C
  C16      1.0000 0.26240  0.41570  0.62650  Biso   1.000  C
  C17      1.0000 0.85310  0.59340  0.30970  Biso   1.000  C
  C18      1.0000 0.14690  0.40660  0.69030  Biso   1.000  C
  H11      1.0000 0.85470  0.64900  0.27120  Biso   1.000  H
  H12      1.0000 0.14530  0.35100  0.72880  Biso   1.000  H
  C19      1.0000 0.96180  0.52270  0.30340  Biso   1.000  C
  C20      1.0000 0.03820  0.47730  0.69660  Biso   1.000  C
  H13      1.0000 0.03930  0.52950  0.26070  Biso   1.000  H
  H14      1.0000 0.96070  0.47050  0.73930  Biso   1.000  H
  Cu1      1.0000 0.14942  0.77514  0.89670  Biso   1.000  Cu
  Cu2      1.0000 0.85058  0.22486  0.10330  Biso   1.000  Cu
  Cl1      1.0000 0.89759  0.72817  0.89321  Biso   1.000  Cl
  Cl2      1.0000 0.10241  0.27183  0.10679  Biso   1.000  Cl
  N1       1.0000 0.29710  0.73620  0.78895  Biso   1.000  N
  N2       1.0000 0.70290  0.26380  0.21105  Biso   1.000  N
  N3       1.0000 0.21660  0.64130  0.93491  Biso   1.000  N
  N4       1.0000 0.78340  0.35870  0.06509  Biso   1.000  N
  N5       1.0000 0.10210  0.91400  0.86229  Biso   1.000  N
  N6       1.0000 0.89790  0.08600  0.13771  Biso   1.000  N
  N7       1.0000 0.27440  0.86370  0.00717  Biso   1.000  N
  N8       1.0000 0.72560  0.13630  0.99283  Biso   1.000  N
  C21      1.0000 0.33730  0.79090  0.71800  Biso   1.000  C
  C22      1.0000 0.66270  0.20910  0.28200  Biso   1.000  C
  H15      1.0000 0.28740  0.85270  0.70920  Biso   1.000  H
  H16      1.0000 0.71260  0.14730  0.29080  Biso   1.000  H
  C23      1.0000 0.44750  0.76160  0.65740  Biso   1.000  C
  C24      1.0000 0.55250  0.23840  0.34260  Biso   1.000  C
  H17      1.0000 0.47250  0.80190  0.60750  Biso   1.000  H
  H18      1.0000 0.52750  0.19810  0.39250  Biso   1.000  H
  C25      1.0000 0.52010  0.67320  0.67050  Biso   1.000  C
  C26      1.0000 0.47990  0.32680  0.32950  Biso   1.000  C
  H19      1.0000 0.59670  0.65160  0.62960  Biso   1.000  H
  H20      1.0000 0.40330  0.34840  0.37040  Biso   1.000  H
  C27      1.0000 0.48190  0.61510  0.74360  Biso   1.000  C
  C28      1.0000 0.51810  0.38490  0.25640  Biso   1.000  C
  H21      1.0000 0.53240  0.55390  0.75380  Biso   1.000  H
  H22      1.0000 0.46760  0.44610  0.24620  Biso   1.000  H
  C29      1.0000 0.36950  0.64780  0.80110  Biso   1.000  C
  C30      1.0000 0.63050  0.35220  0.19890  Biso   1.000  C
  C31      1.0000 0.31580  0.59070  0.87930  Biso   1.000  C
  C32      1.0000 0.68420  0.40930  0.12070  Biso   1.000  C
  C33      1.0000 0.35940  0.49330  0.89540  Biso   1.000  C
  C34      1.0000 0.64060  0.50670  0.10460  Biso   1.000  C
  H23      1.0000 0.42680  0.45770  0.85530  Biso   1.000  H
  H24      1.0000 0.57320  0.54230  0.14470  Biso   1.000  H
  C35      1.0000 0.30140  0.44870  0.97260  Biso   1.000  C
  C36      1.0000 0.69860  0.55130  0.02740  Biso   1.000  C
  H25      1.0000 0.32820  0.38150  0.98490  Biso   1.000  H
  H26      1.0000 0.67180  0.61850  0.01510  Biso   1.000  H
  C37      1.0000 0.20640  0.50150  0.03040  Biso   1.000  C
  C38      1.0000 0.79360  0.49850  0.96960  Biso   1.000  C
  H27      1.0000 0.16960  0.47270  0.08430  Biso   1.000  H
  H28      1.0000 0.83040  0.52730  0.91570  Biso   1.000  H
  C39      1.0000 0.16480  0.59720  0.00920  Biso   1.000  C
  C40      1.0000 0.83520  0.40280  0.99080  Biso   1.000  C
  H29      1.0000 0.09690  0.63320  0.04860  Biso   1.000  H
  H30      1.0000 0.90310  0.36680  0.95140  Biso   1.000  H
  C41      1.0000 0.00860  0.93260  0.78780  Biso   1.000  C
  C42      1.0000 0.99140  0.06740  0.21220  Biso   1.000  C
  H31      1.0000 0.96460  0.87620  0.74790  Biso   1.000  H
  H32      1.0000 0.03540  0.12380  0.25210  Biso   1.000  H
  C43      1.0000 0.97370  0.02920  0.76670  Biso   1.000  C
  C44      1.0000 0.02630  0.97080  0.23330  Biso   1.000  C
  H33      1.0000 0.90900  0.03980  0.71240  Biso   1.000  H
  H34      1.0000 0.09100  0.96020  0.28760  Biso   1.000  H
  C45      1.0000 0.03420  0.10990  0.82570  Biso   1.000  C
  C46      1.0000 0.96580  0.89010  0.17430  Biso   1.000  C
  H35      1.0000 0.01170  0.17780  0.81320  Biso   1.000  H
  H36      1.0000 0.98830  0.82220  0.18680  Biso   1.000  H
  C47      1.0000 0.12900  0.09220  0.90410  Biso   1.000  C
  C48      1.0000 0.87100  0.90780  0.09590  Biso   1.000  C
  H37      1.0000 0.17110  0.14770  0.94600  Biso   1.000  H
  H38      1.0000 0.82890  0.85230  0.05400  Biso   1.000  H
  C49      1.0000 0.16180  0.99280  0.92070  Biso   1.000  C
  C50      1.0000 0.83820  0.00720  0.07930  Biso   1.000  C
  C51      1.0000 0.25840  0.96470  0.00320  Biso   1.000  C
  C52      1.0000 0.74160  0.03530  0.99680  Biso   1.000  C
  C53      1.0000 0.32480  0.03510  0.07390  Biso   1.000  C
  C54      1.0000 0.67520  0.96490  0.92610  Biso   1.000  C
  H39      1.0000 0.31020  0.10610  0.07160  Biso   1.000  H
  H40      1.0000 0.68980  0.89390  0.92840  Biso   1.000  H
  C55      1.0000 0.41320  0.99940  0.14840  Biso   1.000  C
  C56      1.0000 0.58680  0.00060  0.85160  Biso   1.000  C
  H41      1.0000 0.46020  0.04630  0.19740  Biso   1.000  H
  H42      1.0000 0.53980  0.95370  0.80260  Biso   1.000  H
  C57      1.0000 0.43240  0.89610  0.15080  Biso   1.000  C
  C58      1.0000 0.56760  0.10390  0.84920  Biso   1.000  C
  H43      1.0000 0.49340  0.87050  0.20050  Biso   1.000  H
  H44      1.0000 0.50660  0.12950  0.79950  Biso   1.000  H
  C59      1.0000 0.36050  0.83130  0.07920  Biso   1.000  C
  C60      1.0000 0.63950  0.16870  0.92080  Biso   1.000  C
  H45      1.0000 0.37260  0.75990  0.08080  Biso   1.000  H
  H46      1.0000 0.62740  0.24010  0.91920  Biso   1.000  H
  O19      1.0000 0.77280  0.32790  0.77394  Biso   1.000  O
  O20      1.0000 0.22720  0.67210  0.22606  Biso   1.000  O
  H47      1.0000 0.78640  0.28810  0.71440  Biso   1.000  H
  H48      1.0000 0.21360  0.71190  0.28560  Biso   1.000  H
  H49      1.0000 0.66420  0.33990  0.77080  Biso   1.000  H
  H50      1.0000 0.33580  0.66010  0.22920  Biso   1.000  H
