data_image0
_cell_length_a       19.9793
_cell_length_b       18.5936
_cell_length_c       11.9372
_cell_angle_alpha    90
_cell_angle_beta     119.441
_cell_angle_gamma    90

_symmetry_space_group_name_H-M    "P 1"
_symmetry_int_tables_number       1

loop_
  _symmetry_equiv_pos_as_xyz
  'x, y, z'

loop_
  _atom_site_label
  _atom_site_occupancy
  _atom_site_fract_x
  _atom_site_fract_y
  _atom_site_fract_z
  _atom_site_thermal_displace_type
  _atom_site_B_iso_or_equiv
  _atom_site_type_symbol
  Cu1      1.0000 0.04305  0.15534  0.40456  Biso   1.000  Cu
  Cu2      1.0000 0.54305  0.65534  0.40456  Biso   1.000  Cu
  Cu3      1.0000 0.95695  0.15534  0.09544  Biso   1.000  Cu
  Cu4      1.0000 0.45695  0.65534  0.09544  Biso   1.000  Cu
  Cu5      1.0000 0.95695  0.84466  0.59544  Biso   1.000  Cu
  Cu6      1.0000 0.45695  0.34466  0.59544  Biso   1.000  Cu
  Cu7      1.0000 0.04305  0.84466  0.90456  Biso   1.000  Cu
  Cu8      1.0000 0.54305  0.34466  0.90456  Biso   1.000  Cu
  N1       1.0000 0.98928  0.23445  0.44194  Biso   1.000  N
  N2       1.0000 0.48928  0.73445  0.44194  Biso   1.000  N
  N3       1.0000 0.01072  0.23445  0.05806  Biso   1.000  N
  N4       1.0000 0.51072  0.73445  0.05806  Biso   1.000  N
  N5       1.0000 0.01072  0.76555  0.55806  Biso   1.000  N
  N6       1.0000 0.51072  0.26555  0.55806  Biso   1.000  N
  N7       1.0000 0.98928  0.76555  0.94194  Biso   1.000  N
  N8       1.0000 0.48928  0.26555  0.94194  Biso   1.000  N
  N9       1.0000 0.09932  0.23833  0.38657  Biso   1.000  N
  N10      1.0000 0.59932  0.73833  0.38657  Biso   1.000  N
  N11      1.0000 0.90068  0.23833  0.11343  Biso   1.000  N
  N12      1.0000 0.40068  0.73833  0.11343  Biso   1.000  N
  N13      1.0000 0.90068  0.76167  0.61343  Biso   1.000  N
  N14      1.0000 0.40068  0.26167  0.61343  Biso   1.000  N
  N15      1.0000 0.09932  0.76167  0.88657  Biso   1.000  N
  N16      1.0000 0.59932  0.26167  0.88657  Biso   1.000  N
  N17      1.0000 0.10059  0.11533  0.60533  Biso   1.000  N
  N18      1.0000 0.60059  0.61533  0.60533  Biso   1.000  N
  N19      1.0000 0.89941  0.11533  0.89467  Biso   1.000  N
  N20      1.0000 0.39941  0.61533  0.89467  Biso   1.000  N
  N21      1.0000 0.89941  0.88467  0.39467  Biso   1.000  N
  N22      1.0000 0.39941  0.38467  0.39467  Biso   1.000  N
  N23      1.0000 0.10059  0.88467  0.10533  Biso   1.000  N
  N24      1.0000 0.60059  0.38467  0.10533  Biso   1.000  N
  O1       1.0000 0.04544  0.90985  0.64696  Biso   1.000  O
  O2       1.0000 0.54544  0.40985  0.64696  Biso   1.000  O
  O3       1.0000 0.95456  0.90985  0.85304  Biso   1.000  O
  O4       1.0000 0.45456  0.40985  0.85304  Biso   1.000  O
  O5       1.0000 0.95456  0.09015  0.35304  Biso   1.000  O
  O6       1.0000 0.45456  0.59015  0.35304  Biso   1.000  O
  O7       1.0000 0.04544  0.09015  0.14696  Biso   1.000  O
  O8       1.0000 0.54544  0.59015  0.14696  Biso   1.000  O
  O9       1.0000 0.09393  0.92174  0.85942  Biso   1.000  O
  O10      1.0000 0.59393  0.42174  0.85942  Biso   1.000  O
  O11      1.0000 0.90607  0.92174  0.64058  Biso   1.000  O
  O12      1.0000 0.40607  0.42174  0.64058  Biso   1.000  O
  O13      1.0000 0.90607  0.07826  0.14058  Biso   1.000  O
  O14      1.0000 0.40607  0.57826  0.14058  Biso   1.000  O
  O15      1.0000 0.09393  0.07826  0.35942  Biso   1.000  O
  O16      1.0000 0.59393  0.57826  0.35942  Biso   1.000  O
  C1       1.0000 0.93307  0.22660  0.47200  Biso   1.000  C
  C2       1.0000 0.43307  0.72660  0.47200  Biso   1.000  C
  C3       1.0000 0.06693  0.22660  0.02800  Biso   1.000  C
  C4       1.0000 0.56693  0.72660  0.02800  Biso   1.000  C
  C5       1.0000 0.06693  0.77340  0.52800  Biso   1.000  C
  C6       1.0000 0.56693  0.27340  0.52800  Biso   1.000  C
  C7       1.0000 0.93307  0.77340  0.97200  Biso   1.000  C
  C8       1.0000 0.43307  0.27340  0.97200  Biso   1.000  C
  H1       1.0000 0.91450  0.17970  0.47280  Biso   1.000  H
  H2       1.0000 0.41450  0.67970  0.47280  Biso   1.000  H
  H3       1.0000 0.08550  0.17970  0.02720  Biso   1.000  H
  H4       1.0000 0.58550  0.67970  0.02720  Biso   1.000  H
  H5       1.0000 0.08550  0.82030  0.52720  Biso   1.000  H
  H6       1.0000 0.58550  0.32030  0.52720  Biso   1.000  H
  H7       1.0000 0.91450  0.82030  0.97280  Biso   1.000  H
  H8       1.0000 0.41450  0.32030  0.97280  Biso   1.000  H
  C9       1.0000 0.90157  0.28434  0.50160  Biso   1.000  C
  C10      1.0000 0.40157  0.78434  0.50160  Biso   1.000  C
  C11      1.0000 0.09843  0.28434  0.99840  Biso   1.000  C
  C12      1.0000 0.59843  0.78434  0.99840  Biso   1.000  C
  C13      1.0000 0.09843  0.71566  0.49840  Biso   1.000  C
  C14      1.0000 0.59843  0.21566  0.49840  Biso   1.000  C
  C15      1.0000 0.90157  0.71566  0.00160  Biso   1.000  C
  C16      1.0000 0.40157  0.21566  0.00160  Biso   1.000  C
  H9       1.0000 0.86230  0.27680  0.52320  Biso   1.000  H
  H10      1.0000 0.36230  0.77680  0.52320  Biso   1.000  H
  H11      1.0000 0.13770  0.27680  0.97680  Biso   1.000  H
  H12      1.0000 0.63770  0.77680  0.97680  Biso   1.000  H
  H13      1.0000 0.13770  0.72320  0.47680  Biso   1.000  H
  H14      1.0000 0.63770  0.22320  0.47680  Biso   1.000  H
  H15      1.0000 0.86230  0.72320  0.02320  Biso   1.000  H
  H16      1.0000 0.36230  0.22320  0.02320  Biso   1.000  H
  C17      1.0000 0.92710  0.35353  0.49980  Biso   1.000  C
  C18      1.0000 0.42710  0.85353  0.49980  Biso   1.000  C
  C19      1.0000 0.07290  0.35353  0.00020  Biso   1.000  C
  C20      1.0000 0.57290  0.85353  0.00020  Biso   1.000  C
  C21      1.0000 0.07290  0.64647  0.50020  Biso   1.000  C
  C22      1.0000 0.57290  0.14647  0.50020  Biso   1.000  C
  C23      1.0000 0.92710  0.64647  0.99980  Biso   1.000  C
  C24      1.0000 0.42710  0.14647  0.99980  Biso   1.000  C
  C25      1.0000 0.98477  0.36082  0.46780  Biso   1.000  C
  C26      1.0000 0.48477  0.86082  0.46780  Biso   1.000  C
  C27      1.0000 0.01523  0.36082  0.03220  Biso   1.000  C
  C28      1.0000 0.51523  0.86082  0.03220  Biso   1.000  C
  C29      1.0000 0.01523  0.63918  0.53220  Biso   1.000  C
  C30      1.0000 0.51523  0.13918  0.53220  Biso   1.000  C
  C31      1.0000 0.98477  0.63918  0.96780  Biso   1.000  C
  C32      1.0000 0.48477  0.13918  0.96780  Biso   1.000  C
  H17      1.0000 0.00370  0.40730  0.46520  Biso   1.000  H
  H18      1.0000 0.50370  0.90730  0.46520  Biso   1.000  H
  H19      1.0000 0.99630  0.40730  0.03480  Biso   1.000  H
  H20      1.0000 0.49630  0.90730  0.03480  Biso   1.000  H
  H21      1.0000 0.99630  0.59270  0.53480  Biso   1.000  H
  H22      1.0000 0.49630  0.09270  0.53480  Biso   1.000  H
  H23      1.0000 0.00370  0.59270  0.96520  Biso   1.000  H
  H24      1.0000 0.50370  0.09270  0.96520  Biso   1.000  H
  C33      1.0000 0.01485  0.30082  0.43959  Biso   1.000  C
  C34      1.0000 0.51485  0.80082  0.43959  Biso   1.000  C
  C35      1.0000 0.98515  0.30082  0.06041  Biso   1.000  C
  C36      1.0000 0.48515  0.80082  0.06041  Biso   1.000  C
  C37      1.0000 0.98515  0.69918  0.56041  Biso   1.000  C
  C38      1.0000 0.48515  0.19918  0.56041  Biso   1.000  C
  C39      1.0000 0.01485  0.69918  0.93959  Biso   1.000  C
  C40      1.0000 0.51485  0.19918  0.93959  Biso   1.000  C
  C41      1.0000 0.07653  0.30341  0.40522  Biso   1.000  C
  C42      1.0000 0.57653  0.80341  0.40522  Biso   1.000  C
  C43      1.0000 0.92347  0.30341  0.09478  Biso   1.000  C
  C44      1.0000 0.42347  0.80341  0.09478  Biso   1.000  C
  C45      1.0000 0.92347  0.69659  0.59478  Biso   1.000  C
  C46      1.0000 0.42347  0.19659  0.59478  Biso   1.000  C
  C47      1.0000 0.07653  0.69659  0.90522  Biso   1.000  C
  C48      1.0000 0.57653  0.19659  0.90522  Biso   1.000  C
  C49      1.0000 0.11001  0.36616  0.39500  Biso   1.000  C
  C50      1.0000 0.61001  0.86616  0.39500  Biso   1.000  C
  C51      1.0000 0.88999  0.36616  0.10500  Biso   1.000  C
  C52      1.0000 0.38999  0.86616  0.10500  Biso   1.000  C
  C53      1.0000 0.88999  0.63384  0.60500  Biso   1.000  C
  C54      1.0000 0.38999  0.13384  0.60500  Biso   1.000  C
  C55      1.0000 0.11001  0.63384  0.89500  Biso   1.000  C
  C56      1.0000 0.61001  0.13384  0.89500  Biso   1.000  C
  H25      1.0000 0.09250  0.41120  0.40800  Biso   1.000  H
  H26      1.0000 0.59250  0.91120  0.40800  Biso   1.000  H
  H27      1.0000 0.90750  0.41120  0.09200  Biso   1.000  H
  H28      1.0000 0.40750  0.91120  0.09200  Biso   1.000  H
  H29      1.0000 0.90750  0.58880  0.59200  Biso   1.000  H
  H30      1.0000 0.40750  0.08880  0.59200  Biso   1.000  H
  H31      1.0000 0.09250  0.58880  0.90800  Biso   1.000  H
  H32      1.0000 0.59250  0.08880  0.90800  Biso   1.000  H
  C57      1.0000 0.16919  0.36378  0.36570  Biso   1.000  C
  C58      1.0000 0.66919  0.86378  0.36570  Biso   1.000  C
  C59      1.0000 0.83081  0.36378  0.13430  Biso   1.000  C
  C60      1.0000 0.33081  0.86378  0.13430  Biso   1.000  C
  C61      1.0000 0.83081  0.63622  0.63430  Biso   1.000  C
  C62      1.0000 0.33081  0.13622  0.63430  Biso   1.000  C
  C63      1.0000 0.16919  0.63622  0.86570  Biso   1.000  C
  C64      1.0000 0.66919  0.13622  0.86570  Biso   1.000  C
  C65      1.0000 0.19115  0.29642  0.34550  Biso   1.000  C
  C66      1.0000 0.69115  0.79642  0.34550  Biso   1.000  C
  C67      1.0000 0.80885  0.29642  0.15450  Biso   1.000  C
  C68      1.0000 0.30885  0.79642  0.15450  Biso   1.000  C
  C69      1.0000 0.80885  0.70358  0.65450  Biso   1.000  C
  C70      1.0000 0.30885  0.20358  0.65450  Biso   1.000  C
  C71      1.0000 0.19115  0.70358  0.84550  Biso   1.000  C
  C72      1.0000 0.69115  0.20358  0.84550  Biso   1.000  C
  H33      1.0000 0.23090  0.29230  0.32400  Biso   1.000  H
  H34      1.0000 0.73090  0.79230  0.32400  Biso   1.000  H
  H35      1.0000 0.76910  0.29230  0.17600  Biso   1.000  H
  H36      1.0000 0.26910  0.79230  0.17600  Biso   1.000  H
  H37      1.0000 0.76910  0.70770  0.67600  Biso   1.000  H
  H38      1.0000 0.26910  0.20770  0.67600  Biso   1.000  H
  H39      1.0000 0.23090  0.70770  0.82400  Biso   1.000  H
  H40      1.0000 0.73090  0.20770  0.82400  Biso   1.000  H
  C73      1.0000 0.15575  0.23539  0.35660  Biso   1.000  C
  C74      1.0000 0.65575  0.73539  0.35660  Biso   1.000  C
  C75      1.0000 0.84425  0.23539  0.14340  Biso   1.000  C
  C76      1.0000 0.34425  0.73539  0.14340  Biso   1.000  C
  C77      1.0000 0.84425  0.76461  0.64340  Biso   1.000  C
  C78      1.0000 0.34425  0.26461  0.64340  Biso   1.000  C
  C79      1.0000 0.15575  0.76461  0.85660  Biso   1.000  C
  C80      1.0000 0.65575  0.26461  0.85660  Biso   1.000  C
  H41      1.0000 0.17180  0.18980  0.34250  Biso   1.000  H
  H42      1.0000 0.67180  0.68980  0.34250  Biso   1.000  H
  H43      1.0000 0.82820  0.18980  0.15750  Biso   1.000  H
  H44      1.0000 0.32820  0.68980  0.15750  Biso   1.000  H
  H45      1.0000 0.82820  0.81020  0.65750  Biso   1.000  H
  H46      1.0000 0.32820  0.31020  0.65750  Biso   1.000  H
  H47      1.0000 0.17180  0.81020  0.84250  Biso   1.000  H
  H48      1.0000 0.67180  0.31020  0.84250  Biso   1.000  H
  C81      1.0000 0.89370  0.41838  0.53090  Biso   1.000  C
  C82      1.0000 0.39370  0.91838  0.53090  Biso   1.000  C
  C83      1.0000 0.10630  0.41838  0.96910  Biso   1.000  C
  C84      1.0000 0.60630  0.91838  0.96910  Biso   1.000  C
  C85      1.0000 0.10630  0.58162  0.46910  Biso   1.000  C
  C86      1.0000 0.60630  0.08162  0.46910  Biso   1.000  C
  C87      1.0000 0.89370  0.58162  0.03090  Biso   1.000  C
  C88      1.0000 0.39370  0.08162  0.03090  Biso   1.000  C
  H49      1.0000 0.83960  0.40930  0.50430  Biso   1.000  H
  H50      1.0000 0.33960  0.90930  0.50430  Biso   1.000  H
  H51      1.0000 0.16040  0.40930  0.99570  Biso   1.000  H
  H52      1.0000 0.66040  0.90930  0.99570  Biso   1.000  H
  H53      1.0000 0.16040  0.59070  0.49570  Biso   1.000  H
  H54      1.0000 0.66040  0.09070  0.49570  Biso   1.000  H
  H55      1.0000 0.83960  0.59070  0.00430  Biso   1.000  H
  H56      1.0000 0.33960  0.09070  0.00430  Biso   1.000  H
  H57      1.0000 0.89760  0.46040  0.48480  Biso   1.000  H
  H58      1.0000 0.39760  0.96040  0.48480  Biso   1.000  H
  H59      1.0000 0.10240  0.46040  0.01520  Biso   1.000  H
  H60      1.0000 0.60240  0.96040  0.01520  Biso   1.000  H
  H61      1.0000 0.10240  0.53960  0.51520  Biso   1.000  H
  H62      1.0000 0.60240  0.03960  0.51520  Biso   1.000  H
  H63      1.0000 0.89760  0.53960  0.98480  Biso   1.000  H
  H64      1.0000 0.39760  0.03960  0.98480  Biso   1.000  H
  H65      1.0000 0.92230  0.42750  0.62370  Biso   1.000  H
  H66      1.0000 0.42230  0.92750  0.62370  Biso   1.000  H
  H67      1.0000 0.07770  0.42750  0.87630  Biso   1.000  H
  H68      1.0000 0.57770  0.92750  0.87630  Biso   1.000  H
  H69      1.0000 0.07770  0.57250  0.37630  Biso   1.000  H
  H70      1.0000 0.57770  0.07250  0.37630  Biso   1.000  H
  H71      1.0000 0.92230  0.57250  0.12370  Biso   1.000  H
  H72      1.0000 0.42230  0.07250  0.12370  Biso   1.000  H
  C89      1.0000 0.20862  0.43094  0.35970  Biso   1.000  C
  C90      1.0000 0.70862  0.93094  0.35970  Biso   1.000  C
  C91      1.0000 0.79138  0.43094  0.14030  Biso   1.000  C
  C92      1.0000 0.29138  0.93094  0.14030  Biso   1.000  C
  C93      1.0000 0.79138  0.56906  0.64030  Biso   1.000  C
  C94      1.0000 0.29138  0.06906  0.64030  Biso   1.000  C
  C95      1.0000 0.20862  0.56906  0.85970  Biso   1.000  C
  C96      1.0000 0.70862  0.06906  0.85970  Biso   1.000  C
  H73      1.0000 0.22320  0.42590  0.29270  Biso   1.000  H
  H74      1.0000 0.72320  0.92590  0.29270  Biso   1.000  H
  H75      1.0000 0.77680  0.42590  0.20730  Biso   1.000  H
  H76      1.0000 0.27680  0.92590  0.20730  Biso   1.000  H
  H77      1.0000 0.77680  0.57410  0.70730  Biso   1.000  H
  H78      1.0000 0.27680  0.07410  0.70730  Biso   1.000  H
  H79      1.0000 0.22320  0.57410  0.79270  Biso   1.000  H
  H80      1.0000 0.72320  0.07410  0.79270  Biso   1.000  H
  H81      1.0000 0.25480  0.43890  0.44300  Biso   1.000  H
  H82      1.0000 0.75480  0.93890  0.44300  Biso   1.000  H
  H83      1.0000 0.74520  0.43890  0.05700  Biso   1.000  H
  H84      1.0000 0.24520  0.93890  0.05700  Biso   1.000  H
  H85      1.0000 0.74520  0.56110  0.55700  Biso   1.000  H
  H86      1.0000 0.24520  0.06110  0.55700  Biso   1.000  H
  H87      1.0000 0.25480  0.56110  0.94300  Biso   1.000  H
  H88      1.0000 0.75480  0.06110  0.94300  Biso   1.000  H
  H89      1.0000 0.17370  0.47190  0.33950  Biso   1.000  H
  H90      1.0000 0.67370  0.97190  0.33950  Biso   1.000  H
  H91      1.0000 0.82630  0.47190  0.16050  Biso   1.000  H
  H92      1.0000 0.32630  0.97190  0.16050  Biso   1.000  H
  H93      1.0000 0.82630  0.52810  0.66050  Biso   1.000  H
  H94      1.0000 0.32630  0.02810  0.66050  Biso   1.000  H
  H95      1.0000 0.17370  0.52810  0.83950  Biso   1.000  H
  H96      1.0000 0.67370  0.02810  0.83950  Biso   1.000  H
  C97      1.0000 0.13505  0.15756  0.70973  Biso   1.000  C
  C98      1.0000 0.63505  0.65756  0.70973  Biso   1.000  C
  C99      1.0000 0.86495  0.15756  0.79027  Biso   1.000  C
  C100     1.0000 0.36495  0.65756  0.79027  Biso   1.000  C
  C101     1.0000 0.86495  0.84244  0.29027  Biso   1.000  C
  C102     1.0000 0.36495  0.34244  0.29027  Biso   1.000  C
  C103     1.0000 0.13505  0.84244  0.20973  Biso   1.000  C
  C104     1.0000 0.63505  0.34244  0.20973  Biso   1.000  C
  H97      1.0000 0.14300  0.20680  0.69830  Biso   1.000  H
  H98      1.0000 0.64300  0.70680  0.69830  Biso   1.000  H
  H99      1.0000 0.85700  0.20680  0.80170  Biso   1.000  H
  H100     1.0000 0.35700  0.70680  0.80170  Biso   1.000  H
  H101     1.0000 0.85700  0.79320  0.30170  Biso   1.000  H
  H102     1.0000 0.35700  0.29320  0.30170  Biso   1.000  H
  H103     1.0000 0.14300  0.79320  0.19830  Biso   1.000  H
  H104     1.0000 0.64300  0.29320  0.19830  Biso   1.000  H
  C105     1.0000 0.15948  0.13296  0.83310  Biso   1.000  C
  C106     1.0000 0.65948  0.63296  0.83310  Biso   1.000  C
  C107     1.0000 0.84052  0.13296  0.66690  Biso   1.000  C
  C108     1.0000 0.34052  0.63296  0.66690  Biso   1.000  C
  C109     1.0000 0.84052  0.86704  0.16690  Biso   1.000  C
  C110     1.0000 0.34052  0.36704  0.16690  Biso   1.000  C
  C111     1.0000 0.15948  0.86704  0.33310  Biso   1.000  C
  C112     1.0000 0.65948  0.36704  0.33310  Biso   1.000  C
  H105     1.0000 0.18600  0.16400  0.90490  Biso   1.000  H
  H106     1.0000 0.68600  0.66400  0.90490  Biso   1.000  H
  H107     1.0000 0.81400  0.16400  0.59510  Biso   1.000  H
  H108     1.0000 0.31400  0.66400  0.59510  Biso   1.000  H
  H109     1.0000 0.81400  0.83600  0.09510  Biso   1.000  H
  H110     1.0000 0.31400  0.33600  0.09510  Biso   1.000  H
  H111     1.0000 0.18600  0.83600  0.40490  Biso   1.000  H
  H112     1.0000 0.68600  0.33600  0.40490  Biso   1.000  H
  C113     1.0000 0.14457  0.06206  0.85027  Biso   1.000  C
  C114     1.0000 0.64457  0.56206  0.85027  Biso   1.000  C
  C115     1.0000 0.85543  0.06206  0.64973  Biso   1.000  C
  C116     1.0000 0.35543  0.56206  0.64973  Biso   1.000  C
  C117     1.0000 0.85543  0.93794  0.14973  Biso   1.000  C
  C118     1.0000 0.35543  0.43794  0.14973  Biso   1.000  C
  C119     1.0000 0.14457  0.93794  0.35027  Biso   1.000  C
  C120     1.0000 0.64457  0.43794  0.35027  Biso   1.000  C
  H113     1.0000 0.15930  0.04420  0.93370  Biso   1.000  H
  H114     1.0000 0.65930  0.54420  0.93370  Biso   1.000  H
  H115     1.0000 0.84070  0.04420  0.56630  Biso   1.000  H
  H116     1.0000 0.34070  0.54420  0.56630  Biso   1.000  H
  H117     1.0000 0.84070  0.95580  0.06630  Biso   1.000  H
  H118     1.0000 0.34070  0.45580  0.06630  Biso   1.000  H
  H119     1.0000 0.15930  0.95580  0.43370  Biso   1.000  H
  H120     1.0000 0.65930  0.45580  0.43370  Biso   1.000  H
  C121     1.0000 0.10785  0.01794  0.74331  Biso   1.000  C
  C122     1.0000 0.60785  0.51794  0.74331  Biso   1.000  C
  C123     1.0000 0.89215  0.01794  0.75669  Biso   1.000  C
  C124     1.0000 0.39215  0.51794  0.75669  Biso   1.000  C
  C125     1.0000 0.89215  0.98206  0.25669  Biso   1.000  C
  C126     1.0000 0.39215  0.48206  0.25669  Biso   1.000  C
  C127     1.0000 0.10785  0.98206  0.24331  Biso   1.000  C
  C128     1.0000 0.60785  0.48206  0.24331  Biso   1.000  C
  C129     1.0000 0.08902  0.04627  0.62379  Biso   1.000  C
  C130     1.0000 0.58902  0.54627  0.62379  Biso   1.000  C
  C131     1.0000 0.91098  0.04627  0.87621  Biso   1.000  C
  C132     1.0000 0.41098  0.54627  0.87621  Biso   1.000  C
  C133     1.0000 0.91098  0.95373  0.37621  Biso   1.000  C
  C134     1.0000 0.41098  0.45373  0.37621  Biso   1.000  C
  C135     1.0000 0.08902  0.95373  0.12379  Biso   1.000  C
  C136     1.0000 0.58902  0.45373  0.12379  Biso   1.000  C
  H121     1.0000 0.06680  0.01520  0.55130  Biso   1.000  H
  H122     1.0000 0.56680  0.51520  0.55130  Biso   1.000  H
  H123     1.0000 0.93320  0.01520  0.94870  Biso   1.000  H
  H124     1.0000 0.43320  0.51520  0.94870  Biso   1.000  H
  H125     1.0000 0.93320  0.98480  0.44870  Biso   1.000  H
  H126     1.0000 0.43320  0.48480  0.44870  Biso   1.000  H
  H127     1.0000 0.06680  0.98480  0.05130  Biso   1.000  H
  H128     1.0000 0.56680  0.48480  0.05130  Biso   1.000  H
  C137     1.0000 0.08154  0.94333  0.75085  Biso   1.000  C
  C138     1.0000 0.58154  0.44333  0.75085  Biso   1.000  C
  C139     1.0000 0.91846  0.94333  0.74915  Biso   1.000  C
  C140     1.0000 0.41846  0.44333  0.74915  Biso   1.000  C
  C141     1.0000 0.91846  0.05667  0.24915  Biso   1.000  C
  C142     1.0000 0.41846  0.55667  0.24915  Biso   1.000  C
  C143     1.0000 0.08154  0.05667  0.25085  Biso   1.000  C
  C144     1.0000 0.58154  0.55667  0.25085  Biso   1.000  C
  O17      1.0000 0.20606  0.68339  0.18150  Biso   1.000  O
  O18      1.0000 0.70606  0.18339  0.18150  Biso   1.000  O
  O19      1.0000 0.79394  0.68339  0.31850  Biso   1.000  O
  O20      1.0000 0.29394  0.18339  0.31850  Biso   1.000  O
  O21      1.0000 0.79394  0.31661  0.81850  Biso   1.000  O
  O22      1.0000 0.29394  0.81661  0.81850  Biso   1.000  O
  O23      1.0000 0.20606  0.31661  0.68150  Biso   1.000  O
  O24      1.0000 0.70606  0.81661  0.68150  Biso   1.000  O
  O25      1.0000 0.14260  0.58545  0.20410  Biso   1.000  O
  O26      1.0000 0.64260  0.08545  0.20410  Biso   1.000  O
  O27      1.0000 0.85740  0.58545  0.29590  Biso   1.000  O
  O28      1.0000 0.35740  0.08545  0.29590  Biso   1.000  O
  O29      1.0000 0.85740  0.41455  0.79590  Biso   1.000  O
  O30      1.0000 0.35740  0.91455  0.79590  Biso   1.000  O
  O31      1.0000 0.14260  0.41455  0.70410  Biso   1.000  O
  O32      1.0000 0.64260  0.91455  0.70410  Biso   1.000  O
  Cl1      1.0000 0.21161  0.63462  0.27040  Biso   1.000  Cl
  Cl2      1.0000 0.71161  0.13462  0.27040  Biso   1.000  Cl
  Cl3      1.0000 0.78839  0.63462  0.22960  Biso   1.000  Cl
  Cl4      1.0000 0.28839  0.13462  0.22960  Biso   1.000  Cl
  Cl5      1.0000 0.78839  0.36538  0.72960  Biso   1.000  Cl
  Cl6      1.0000 0.28839  0.86538  0.72960  Biso   1.000  Cl
  Cl7      1.0000 0.21161  0.36538  0.77040  Biso   1.000  Cl
  Cl8      1.0000 0.71161  0.86538  0.77040  Biso   1.000  Cl
  O33      1.0000 0.20970  0.67980  0.36590  Biso   1.000  O
  O34      1.0000 0.70970  0.17980  0.36590  Biso   1.000  O
  O35      1.0000 0.79030  0.67980  0.13410  Biso   1.000  O
  O36      1.0000 0.29030  0.17980  0.13410  Biso   1.000  O
  O37      1.0000 0.79030  0.32020  0.63410  Biso   1.000  O
  O38      1.0000 0.29030  0.82020  0.63410  Biso   1.000  O
  O39      1.0000 0.20970  0.32020  0.86590  Biso   1.000  O
  O40      1.0000 0.70970  0.82020  0.86590  Biso   1.000  O
  O41      1.0000 0.28040  0.59340  0.32720  Biso   1.000  O
  O42      1.0000 0.78040  0.09340  0.32720  Biso   1.000  O
  O43      1.0000 0.71960  0.59340  0.17280  Biso   1.000  O
  O44      1.0000 0.21960  0.09340  0.17280  Biso   1.000  O
  O45      1.0000 0.71960  0.40660  0.67280  Biso   1.000  O
  O46      1.0000 0.21960  0.90660  0.67280  Biso   1.000  O
  O47      1.0000 0.28040  0.40660  0.82720  Biso   1.000  O
  O48      1.0000 0.78040  0.90660  0.82720  Biso   1.000  O
  Cl9      1.0000 0.21120  0.61495  0.24010  Biso   1.000  Cl
  Cl10     1.0000 0.71120  0.11495  0.24010  Biso   1.000  Cl
  Cl11     1.0000 0.78880  0.61495  0.25990  Biso   1.000  Cl
  Cl12     1.0000 0.28880  0.11495  0.25990  Biso   1.000  Cl
  Cl13     1.0000 0.78880  0.38505  0.75990  Biso   1.000  Cl
  Cl14     1.0000 0.28880  0.88505  0.75990  Biso   1.000  Cl
  Cl15     1.0000 0.21120  0.38505  0.74010  Biso   1.000  Cl
  Cl16     1.0000 0.71120  0.88505  0.74010  Biso   1.000  Cl
  O49      1.0000 0.25440  0.60470  0.37200  Biso   1.000  O
  O50      1.0000 0.75440  0.10470  0.37200  Biso   1.000  O
  O51      1.0000 0.74560  0.60470  0.12800  Biso   1.000  O
  O52      1.0000 0.24560  0.10470  0.12800  Biso   1.000  O
  O53      1.0000 0.74560  0.39530  0.62800  Biso   1.000  O
  O54      1.0000 0.24560  0.89530  0.62800  Biso   1.000  O
  O55      1.0000 0.25440  0.39530  0.87200  Biso   1.000  O
  O56      1.0000 0.75440  0.89530  0.87200  Biso   1.000  O
  O57      1.0000 0.25110  0.58250  0.18230  Biso   1.000  O
  O58      1.0000 0.75110  0.08250  0.18230  Biso   1.000  O
  O59      1.0000 0.74890  0.58250  0.31770  Biso   1.000  O
  O60      1.0000 0.24890  0.08250  0.31770  Biso   1.000  O
  O61      1.0000 0.74890  0.41750  0.81770  Biso   1.000  O
  O62      1.0000 0.24890  0.91750  0.81770  Biso   1.000  O
  O63      1.0000 0.25110  0.41750  0.68230  Biso   1.000  O
  O64      1.0000 0.75110  0.91750  0.68230  Biso   1.000  O
