data_image0
_cell_length_a       18.7323
_cell_length_b       17.4636
_cell_length_c       11.6329
_cell_angle_alpha    90
_cell_angle_beta     114.64
_cell_angle_gamma    90

_symmetry_space_group_name_H-M    "P 1"
_symmetry_int_tables_number       1

loop_
  _symmetry_equiv_pos_as_xyz
  'x, y, z'

loop_
  _atom_site_label
  _atom_site_occupancy
  _atom_site_fract_x
  _atom_site_fract_y
  _atom_site_fract_z
  _atom_site_thermal_displace_type
  _atom_site_B_iso_or_equiv
  _atom_site_type_symbol
  Cu1      1.0000 0.95929  0.16788  0.59663  Biso   1.000  Cu
  Cu2      1.0000 0.45929  0.66788  0.59663  Biso   1.000  Cu
  Cu3      1.0000 0.04071  0.16788  0.90337  Biso   1.000  Cu
  Cu4      1.0000 0.54071  0.66788  0.90337  Biso   1.000  Cu
  Cu5      1.0000 0.04071  0.83212  0.40337  Biso   1.000  Cu
  Cu6      1.0000 0.54071  0.33212  0.40337  Biso   1.000  Cu
  Cu7      1.0000 0.95929  0.83212  0.09663  Biso   1.000  Cu
  Cu8      1.0000 0.45929  0.33212  0.09663  Biso   1.000  Cu
  N1       1.0000 0.01444  0.25591  0.56287  Biso   1.000  N
  N2       1.0000 0.51444  0.75591  0.56287  Biso   1.000  N
  N3       1.0000 0.98556  0.25591  0.93713  Biso   1.000  N
  N4       1.0000 0.48556  0.75591  0.93713  Biso   1.000  N
  N5       1.0000 0.98556  0.74409  0.43713  Biso   1.000  N
  N6       1.0000 0.48556  0.24409  0.43713  Biso   1.000  N
  N7       1.0000 0.01444  0.74409  0.06287  Biso   1.000  N
  N8       1.0000 0.51444  0.24409  0.06287  Biso   1.000  N
  N9       1.0000 0.89397  0.25182  0.61627  Biso   1.000  N
  N10      1.0000 0.39397  0.75182  0.61627  Biso   1.000  N
  N11      1.0000 0.10603  0.25182  0.88373  Biso   1.000  N
  N12      1.0000 0.60603  0.75182  0.88373  Biso   1.000  N
  N13      1.0000 0.10603  0.74818  0.38373  Biso   1.000  N
  N14      1.0000 0.60603  0.24818  0.38373  Biso   1.000  N
  N15      1.0000 0.89397  0.74818  0.11627  Biso   1.000  N
  N16      1.0000 0.39397  0.24818  0.11627  Biso   1.000  N
  N17      1.0000 0.91035  0.12635  0.40047  Biso   1.000  N
  N18      1.0000 0.41035  0.62635  0.40047  Biso   1.000  N
  N19      1.0000 0.08965  0.12635  0.09953  Biso   1.000  N
  N20      1.0000 0.58965  0.62635  0.09953  Biso   1.000  N
  N21      1.0000 0.08965  0.87365  0.59953  Biso   1.000  N
  N22      1.0000 0.58965  0.37365  0.59953  Biso   1.000  N
  N23      1.0000 0.91035  0.87365  0.90047  Biso   1.000  N
  N24      1.0000 0.41035  0.37365  0.90047  Biso   1.000  N
  O1       1.0000 0.94568  0.89931  0.35122  Biso   1.000  O
  O2       1.0000 0.44568  0.39931  0.35122  Biso   1.000  O
  O3       1.0000 0.05432  0.89931  0.14878  Biso   1.000  O
  O4       1.0000 0.55432  0.39931  0.14878  Biso   1.000  O
  O5       1.0000 0.05432  0.10069  0.64878  Biso   1.000  O
  O6       1.0000 0.55432  0.60069  0.64878  Biso   1.000  O
  O7       1.0000 0.94568  0.10069  0.85122  Biso   1.000  O
  O8       1.0000 0.44568  0.60069  0.85122  Biso   1.000  O
  O9       1.0000 0.90675  0.91620  0.14269  Biso   1.000  O
  O10      1.0000 0.40675  0.41620  0.14269  Biso   1.000  O
  O11      1.0000 0.09325  0.91620  0.35731  Biso   1.000  O
  O12      1.0000 0.59325  0.41620  0.35731  Biso   1.000  O
  O13      1.0000 0.09325  0.08380  0.85731  Biso   1.000  O
  O14      1.0000 0.59325  0.58380  0.85731  Biso   1.000  O
  O15      1.0000 0.90675  0.08380  0.64269  Biso   1.000  O
  O16      1.0000 0.40675  0.58380  0.64269  Biso   1.000  O
  C1       1.0000 0.07785  0.25085  0.53710  Biso   1.000  C
  C2       1.0000 0.57785  0.75085  0.53710  Biso   1.000  C
  C3       1.0000 0.92215  0.25085  0.96290  Biso   1.000  C
  C4       1.0000 0.42215  0.75085  0.96290  Biso   1.000  C
  C5       1.0000 0.92215  0.74915  0.46290  Biso   1.000  C
  C6       1.0000 0.42215  0.24915  0.46290  Biso   1.000  C
  C7       1.0000 0.07785  0.74915  0.03710  Biso   1.000  C
  C8       1.0000 0.57785  0.24915  0.03710  Biso   1.000  C
  H1       1.0000 0.09760  0.20160  0.53110  Biso   1.000  H
  H2       1.0000 0.59760  0.70160  0.53110  Biso   1.000  H
  H3       1.0000 0.90240  0.20160  0.96890  Biso   1.000  H
  H4       1.0000 0.40240  0.70160  0.96890  Biso   1.000  H
  H5       1.0000 0.90240  0.79840  0.46890  Biso   1.000  H
  H6       1.0000 0.40240  0.29840  0.46890  Biso   1.000  H
  H7       1.0000 0.09760  0.79840  0.03110  Biso   1.000  H
  H8       1.0000 0.59760  0.29840  0.03110  Biso   1.000  H
  C9       1.0000 0.11515  0.31492  0.51910  Biso   1.000  C
  C10      1.0000 0.61515  0.81492  0.51910  Biso   1.000  C
  C11      1.0000 0.88485  0.31492  0.98090  Biso   1.000  C
  C12      1.0000 0.38485  0.81492  0.98090  Biso   1.000  C
  C13      1.0000 0.88485  0.68508  0.48090  Biso   1.000  C
  C14      1.0000 0.38485  0.18508  0.48090  Biso   1.000  C
  C15      1.0000 0.11515  0.68508  0.01910  Biso   1.000  C
  C16      1.0000 0.61515  0.18508  0.01910  Biso   1.000  C
  H9       1.0000 0.15890  0.31000  0.49830  Biso   1.000  H
  H10      1.0000 0.65890  0.81000  0.49830  Biso   1.000  H
  H11      1.0000 0.84110  0.31000  0.00170  Biso   1.000  H
  H12      1.0000 0.34110  0.81000  0.00170  Biso   1.000  H
  H13      1.0000 0.84110  0.69000  0.50170  Biso   1.000  H
  H14      1.0000 0.34110  0.19000  0.50170  Biso   1.000  H
  H15      1.0000 0.15890  0.69000  0.99830  Biso   1.000  H
  H16      1.0000 0.65890  0.19000  0.99830  Biso   1.000  H
  C17      1.0000 0.08772  0.38591  0.53170  Biso   1.000  C
  C18      1.0000 0.58772  0.88591  0.53170  Biso   1.000  C
  C19      1.0000 0.91228  0.38591  0.96830  Biso   1.000  C
  C20      1.0000 0.41228  0.88591  0.96830  Biso   1.000  C
  C21      1.0000 0.91228  0.61409  0.46830  Biso   1.000  C
  C22      1.0000 0.41228  0.11409  0.46830  Biso   1.000  C
  C23      1.0000 0.08772  0.61409  0.03170  Biso   1.000  C
  C24      1.0000 0.58772  0.11409  0.03170  Biso   1.000  C
  H17      1.0000 0.11350  0.43080  0.52250  Biso   1.000  H
  H18      1.0000 0.61350  0.93080  0.52250  Biso   1.000  H
  H19      1.0000 0.88650  0.43080  0.97750  Biso   1.000  H
  H20      1.0000 0.38650  0.93080  0.97750  Biso   1.000  H
  H21      1.0000 0.88650  0.56920  0.47750  Biso   1.000  H
  H22      1.0000 0.38650  0.06920  0.47750  Biso   1.000  H
  H23      1.0000 0.11350  0.56920  0.02250  Biso   1.000  H
  H24      1.0000 0.61350  0.06920  0.02250  Biso   1.000  H
  C25      1.0000 0.02205  0.39190  0.55820  Biso   1.000  C
  C26      1.0000 0.52205  0.89190  0.55820  Biso   1.000  C
  C27      1.0000 0.97795  0.39190  0.94180  Biso   1.000  C
  C28      1.0000 0.47795  0.89190  0.94180  Biso   1.000  C
  C29      1.0000 0.97795  0.60810  0.44180  Biso   1.000  C
  C30      1.0000 0.47795  0.10810  0.44180  Biso   1.000  C
  C31      1.0000 0.02205  0.60810  0.05820  Biso   1.000  C
  C32      1.0000 0.52205  0.10810  0.05820  Biso   1.000  C
  H25      1.0000 0.00250  0.44060  0.56730  Biso   1.000  H
  H26      1.0000 0.50250  0.94060  0.56730  Biso   1.000  H
  H27      1.0000 0.99750  0.44060  0.93270  Biso   1.000  H
  H28      1.0000 0.49750  0.94060  0.93270  Biso   1.000  H
  H29      1.0000 0.99750  0.55940  0.43270  Biso   1.000  H
  H30      1.0000 0.49750  0.05940  0.43270  Biso   1.000  H
  H31      1.0000 0.00250  0.55940  0.06730  Biso   1.000  H
  H32      1.0000 0.50250  0.05940  0.06730  Biso   1.000  H
  C33      1.0000 0.98571  0.32545  0.57093  Biso   1.000  C
  C34      1.0000 0.48571  0.82545  0.57093  Biso   1.000  C
  C35      1.0000 0.01429  0.32545  0.92907  Biso   1.000  C
  C36      1.0000 0.51429  0.82545  0.92907  Biso   1.000  C
  C37      1.0000 0.01429  0.67455  0.42907  Biso   1.000  C
  C38      1.0000 0.51429  0.17455  0.42907  Biso   1.000  C
  C39      1.0000 0.98571  0.67455  0.07093  Biso   1.000  C
  C40      1.0000 0.48571  0.17455  0.07093  Biso   1.000  C
  C41      1.0000 0.91491  0.32307  0.59654  Biso   1.000  C
  C42      1.0000 0.41491  0.82307  0.59654  Biso   1.000  C
  C43      1.0000 0.08509  0.32307  0.90346  Biso   1.000  C
  C44      1.0000 0.58509  0.82307  0.90346  Biso   1.000  C
  C45      1.0000 0.08509  0.67693  0.40346  Biso   1.000  C
  C46      1.0000 0.58509  0.17693  0.40346  Biso   1.000  C
  C47      1.0000 0.91491  0.67693  0.09654  Biso   1.000  C
  C48      1.0000 0.41491  0.17693  0.09654  Biso   1.000  C
  C49      1.0000 0.87245  0.38680  0.60190  Biso   1.000  C
  C50      1.0000 0.37245  0.88680  0.60190  Biso   1.000  C
  C51      1.0000 0.12755  0.38680  0.89810  Biso   1.000  C
  C52      1.0000 0.62755  0.88680  0.89810  Biso   1.000  C
  C53      1.0000 0.12755  0.61320  0.39810  Biso   1.000  C
  C54      1.0000 0.62755  0.11320  0.39810  Biso   1.000  C
  C55      1.0000 0.87245  0.61320  0.10190  Biso   1.000  C
  C56      1.0000 0.37245  0.11320  0.10190  Biso   1.000  C
  H33      1.0000 0.88740  0.43650  0.58690  Biso   1.000  H
  H34      1.0000 0.38740  0.93650  0.58690  Biso   1.000  H
  H35      1.0000 0.11260  0.43650  0.91310  Biso   1.000  H
  H36      1.0000 0.61260  0.93650  0.91310  Biso   1.000  H
  H37      1.0000 0.11260  0.56350  0.41310  Biso   1.000  H
  H38      1.0000 0.61260  0.06350  0.41310  Biso   1.000  H
  H39      1.0000 0.88740  0.56350  0.08690  Biso   1.000  H
  H40      1.0000 0.38740  0.06350  0.08690  Biso   1.000  H
  C57      1.0000 0.80800  0.37705  0.62940  Biso   1.000  C
  C58      1.0000 0.30800  0.87705  0.62940  Biso   1.000  C
  C59      1.0000 0.19200  0.37705  0.87060  Biso   1.000  C
  C60      1.0000 0.69200  0.87705  0.87060  Biso   1.000  C
  C61      1.0000 0.19200  0.62295  0.37060  Biso   1.000  C
  C62      1.0000 0.69200  0.12295  0.37060  Biso   1.000  C
  C63      1.0000 0.80800  0.62295  0.12940  Biso   1.000  C
  C64      1.0000 0.30800  0.12295  0.12940  Biso   1.000  C
  H41      1.0000 0.77780  0.41990  0.63290  Biso   1.000  H
  H42      1.0000 0.27780  0.91990  0.63290  Biso   1.000  H
  H43      1.0000 0.22220  0.41990  0.86710  Biso   1.000  H
  H44      1.0000 0.72220  0.91990  0.86710  Biso   1.000  H
  H45      1.0000 0.22220  0.58010  0.36710  Biso   1.000  H
  H46      1.0000 0.72220  0.08010  0.36710  Biso   1.000  H
  H47      1.0000 0.77780  0.58010  0.13290  Biso   1.000  H
  H48      1.0000 0.27780  0.08010  0.13290  Biso   1.000  H
  C65      1.0000 0.83195  0.24299  0.64420  Biso   1.000  C
  C66      1.0000 0.33195  0.74299  0.64420  Biso   1.000  C
  C67      1.0000 0.16805  0.24299  0.85580  Biso   1.000  C
  C68      1.0000 0.66805  0.74299  0.85580  Biso   1.000  C
  C69      1.0000 0.16805  0.75701  0.35580  Biso   1.000  C
  C70      1.0000 0.66805  0.25701  0.35580  Biso   1.000  C
  C71      1.0000 0.83195  0.75701  0.14420  Biso   1.000  C
  C72      1.0000 0.33195  0.25701  0.14420  Biso   1.000  C
  H49      1.0000 0.81780  0.19300  0.65910  Biso   1.000  H
  H50      1.0000 0.31780  0.69300  0.65910  Biso   1.000  H
  H51      1.0000 0.18220  0.19300  0.84090  Biso   1.000  H
  H52      1.0000 0.68220  0.69300  0.84090  Biso   1.000  H
  H53      1.0000 0.18220  0.80700  0.34090  Biso   1.000  H
  H54      1.0000 0.68220  0.30700  0.34090  Biso   1.000  H
  H55      1.0000 0.81780  0.80700  0.15910  Biso   1.000  H
  H56      1.0000 0.31780  0.30700  0.15910  Biso   1.000  H
  C73      1.0000 0.78823  0.30463  0.65170  Biso   1.000  C
  C74      1.0000 0.28823  0.80463  0.65170  Biso   1.000  C
  C75      1.0000 0.21177  0.30463  0.84830  Biso   1.000  C
  C76      1.0000 0.71177  0.80463  0.84830  Biso   1.000  C
  C77      1.0000 0.21177  0.69537  0.34830  Biso   1.000  C
  C78      1.0000 0.71177  0.19537  0.34830  Biso   1.000  C
  C79      1.0000 0.78823  0.69537  0.15170  Biso   1.000  C
  C80      1.0000 0.28823  0.19537  0.15170  Biso   1.000  C
  H57      1.0000 0.74470  0.29710  0.67220  Biso   1.000  H
  H58      1.0000 0.24470  0.79710  0.67220  Biso   1.000  H
  H59      1.0000 0.25530  0.29710  0.82780  Biso   1.000  H
  H60      1.0000 0.75530  0.79710  0.82780  Biso   1.000  H
  H61      1.0000 0.25530  0.70290  0.32780  Biso   1.000  H
  H62      1.0000 0.75530  0.20290  0.32780  Biso   1.000  H
  H63      1.0000 0.74470  0.70290  0.17220  Biso   1.000  H
  H64      1.0000 0.24470  0.20290  0.17220  Biso   1.000  H
  C81      1.0000 0.91611  0.93799  0.25152  Biso   1.000  C
  C82      1.0000 0.41611  0.43799  0.25152  Biso   1.000  C
  C83      1.0000 0.08389  0.93799  0.24848  Biso   1.000  C
  C84      1.0000 0.58389  0.43799  0.24848  Biso   1.000  C
  C85      1.0000 0.08389  0.06201  0.74848  Biso   1.000  C
  C86      1.0000 0.58389  0.56201  0.74848  Biso   1.000  C
  C87      1.0000 0.91611  0.06201  0.75152  Biso   1.000  C
  C88      1.0000 0.41611  0.56201  0.75152  Biso   1.000  C
  C89      1.0000 0.88126  0.17201  0.29810  Biso   1.000  C
  C90      1.0000 0.38126  0.67201  0.29810  Biso   1.000  C
  C91      1.0000 0.11874  0.17201  0.20190  Biso   1.000  C
  C92      1.0000 0.61874  0.67201  0.20190  Biso   1.000  C
  C93      1.0000 0.11874  0.82799  0.70190  Biso   1.000  C
  C94      1.0000 0.61874  0.32799  0.70190  Biso   1.000  C
  C95      1.0000 0.88126  0.82799  0.79810  Biso   1.000  C
  C96      1.0000 0.38126  0.32799  0.79810  Biso   1.000  C
  H65      1.0000 0.87930  0.22560  0.31030  Biso   1.000  H
  H66      1.0000 0.37930  0.72560  0.31030  Biso   1.000  H
  H67      1.0000 0.12070  0.22560  0.18970  Biso   1.000  H
  H68      1.0000 0.62070  0.72560  0.18970  Biso   1.000  H
  H69      1.0000 0.12070  0.77440  0.68970  Biso   1.000  H
  H70      1.0000 0.62070  0.27440  0.68970  Biso   1.000  H
  H71      1.0000 0.87930  0.77440  0.81030  Biso   1.000  H
  H72      1.0000 0.37930  0.27440  0.81030  Biso   1.000  H
  C97      1.0000 0.91537  0.05136  0.38124  Biso   1.000  C
  C98      1.0000 0.41537  0.55136  0.38124  Biso   1.000  C
  C99      1.0000 0.08463  0.05136  0.11876  Biso   1.000  C
  C100     1.0000 0.58463  0.55136  0.11876  Biso   1.000  C
  C101     1.0000 0.08463  0.94864  0.61876  Biso   1.000  C
  C102     1.0000 0.58463  0.44864  0.61876  Biso   1.000  C
  C103     1.0000 0.91537  0.94864  0.88124  Biso   1.000  C
  C104     1.0000 0.41537  0.44864  0.88124  Biso   1.000  C
  H73      1.0000 0.93380  0.01820  0.45250  Biso   1.000  H
  H74      1.0000 0.43380  0.51820  0.45250  Biso   1.000  H
  H75      1.0000 0.06620  0.01820  0.04750  Biso   1.000  H
  H76      1.0000 0.56620  0.51820  0.04750  Biso   1.000  H
  H77      1.0000 0.06620  0.98180  0.54750  Biso   1.000  H
  H78      1.0000 0.56620  0.48180  0.54750  Biso   1.000  H
  H79      1.0000 0.93380  0.98180  0.95250  Biso   1.000  H
  H80      1.0000 0.43380  0.48180  0.95250  Biso   1.000  H
  C105     1.0000 0.89491  0.01965  0.26239  Biso   1.000  C
  C106     1.0000 0.39491  0.51965  0.26239  Biso   1.000  C
  C107     1.0000 0.10509  0.01965  0.23761  Biso   1.000  C
  C108     1.0000 0.60509  0.51965  0.23761  Biso   1.000  C
  C109     1.0000 0.10509  0.98035  0.73761  Biso   1.000  C
  C110     1.0000 0.60509  0.48035  0.73761  Biso   1.000  C
  C111     1.0000 0.89491  0.98035  0.76239  Biso   1.000  C
  C112     1.0000 0.39491  0.48035  0.76239  Biso   1.000  C
  C113     1.0000 0.86213  0.06702  0.15760  Biso   1.000  C
  C114     1.0000 0.36213  0.56702  0.15760  Biso   1.000  C
  C115     1.0000 0.13787  0.06702  0.34240  Biso   1.000  C
  C116     1.0000 0.63787  0.56702  0.34240  Biso   1.000  C
  C117     1.0000 0.13787  0.93298  0.84240  Biso   1.000  C
  C118     1.0000 0.63787  0.43298  0.84240  Biso   1.000  C
  C119     1.0000 0.86213  0.93298  0.65760  Biso   1.000  C
  C120     1.0000 0.36213  0.43298  0.65760  Biso   1.000  C
  H81      1.0000 0.84540  0.04690  0.07460  Biso   1.000  H
  H82      1.0000 0.34540  0.54690  0.07460  Biso   1.000  H
  H83      1.0000 0.15460  0.04690  0.42540  Biso   1.000  H
  H84      1.0000 0.65460  0.54690  0.42540  Biso   1.000  H
  H85      1.0000 0.15460  0.95310  0.92540  Biso   1.000  H
  H86      1.0000 0.65460  0.45310  0.92540  Biso   1.000  H
  H87      1.0000 0.84540  0.95310  0.57460  Biso   1.000  H
  H88      1.0000 0.34540  0.45310  0.57460  Biso   1.000  H
  C121     1.0000 0.85420  0.14428  0.17630  Biso   1.000  C
  C122     1.0000 0.35420  0.64428  0.17630  Biso   1.000  C
  C123     1.0000 0.14580  0.14428  0.32370  Biso   1.000  C
  C124     1.0000 0.64580  0.64428  0.32370  Biso   1.000  C
  C125     1.0000 0.14580  0.85572  0.82370  Biso   1.000  C
  C126     1.0000 0.64580  0.35572  0.82370  Biso   1.000  C
  C127     1.0000 0.85420  0.85572  0.67630  Biso   1.000  C
  C128     1.0000 0.35420  0.35572  0.67630  Biso   1.000  C
  H89      1.0000 0.83040  0.17770  0.10610  Biso   1.000  H
  H90      1.0000 0.33040  0.67770  0.10610  Biso   1.000  H
  H91      1.0000 0.16960  0.17770  0.39390  Biso   1.000  H
  H92      1.0000 0.66960  0.67770  0.39390  Biso   1.000  H
  H93      1.0000 0.16960  0.82230  0.89390  Biso   1.000  H
  H94      1.0000 0.66960  0.32230  0.89390  Biso   1.000  H
  H95      1.0000 0.83040  0.82230  0.60610  Biso   1.000  H
  H96      1.0000 0.33040  0.32230  0.60610  Biso   1.000  H
  Cl1      1.0000 0.29641  0.11154  0.71114  Biso   1.000  Cl
  Cl2      1.0000 0.79641  0.61154  0.71114  Biso   1.000  Cl
  Cl3      1.0000 0.70359  0.11154  0.78886  Biso   1.000  Cl
  Cl4      1.0000 0.20359  0.61154  0.78886  Biso   1.000  Cl
  Cl5      1.0000 0.70359  0.88846  0.28886  Biso   1.000  Cl
  Cl6      1.0000 0.20359  0.38846  0.28886  Biso   1.000  Cl
  Cl7      1.0000 0.29641  0.88846  0.21114  Biso   1.000  Cl
  Cl8      1.0000 0.79641  0.38846  0.21114  Biso   1.000  Cl
  O17      1.0000 0.25844  0.18190  0.65130  Biso   1.000  O
  O18      1.0000 0.75844  0.68190  0.65130  Biso   1.000  O
  O19      1.0000 0.74156  0.18190  0.84870  Biso   1.000  O
  O20      1.0000 0.24156  0.68190  0.84870  Biso   1.000  O
  O21      1.0000 0.74156  0.81810  0.34870  Biso   1.000  O
  O22      1.0000 0.24156  0.31810  0.34870  Biso   1.000  O
  O23      1.0000 0.25844  0.81810  0.15130  Biso   1.000  O
  O24      1.0000 0.75844  0.31810  0.15130  Biso   1.000  O
  O25      1.0000 0.29380  0.06125  0.61320  Biso   1.000  O
  O26      1.0000 0.79380  0.56125  0.61320  Biso   1.000  O
  O27      1.0000 0.70620  0.06125  0.88680  Biso   1.000  O
  O28      1.0000 0.20620  0.56125  0.88680  Biso   1.000  O
  O29      1.0000 0.70620  0.93875  0.38680  Biso   1.000  O
  O30      1.0000 0.20620  0.43875  0.38680  Biso   1.000  O
  O31      1.0000 0.29380  0.93875  0.11320  Biso   1.000  O
  O32      1.0000 0.79380  0.43875  0.11320  Biso   1.000  O
  O33      1.0000 0.37757  0.12862  0.78870  Biso   1.000  O
  O34      1.0000 0.87757  0.62862  0.78870  Biso   1.000  O
  O35      1.0000 0.62243  0.12862  0.71130  Biso   1.000  O
  O36      1.0000 0.12243  0.62862  0.71130  Biso   1.000  O
  O37      1.0000 0.62243  0.87138  0.21130  Biso   1.000  O
  O38      1.0000 0.12243  0.37138  0.21130  Biso   1.000  O
  O39      1.0000 0.37757  0.87138  0.28870  Biso   1.000  O
  O40      1.0000 0.87757  0.37138  0.28870  Biso   1.000  O
  O41      1.0000 0.26020  0.07890  0.78350  Biso   1.000  O
  O42      1.0000 0.76020  0.57890  0.78350  Biso   1.000  O
  O43      1.0000 0.73980  0.07890  0.71650  Biso   1.000  O
  O44      1.0000 0.23980  0.57890  0.71650  Biso   1.000  O
  O45      1.0000 0.73980  0.92110  0.21650  Biso   1.000  O
  O46      1.0000 0.23980  0.42110  0.21650  Biso   1.000  O
  O47      1.0000 0.26020  0.92110  0.28350  Biso   1.000  O
  O48      1.0000 0.76020  0.42110  0.28350  Biso   1.000  O
  O49      1.0000 0.00000  0.46754  0.25000  Biso   1.000  O
  O50      1.0000 0.50000  0.96754  0.25000  Biso   1.000  O
  O51      1.0000 0.00000  0.53246  0.75000  Biso   1.000  O
  O52      1.0000 0.50000  0.03246  0.75000  Biso   1.000  O
  H97      1.0000 0.03700  0.44200  0.24700  Biso   1.000  H
  H98      1.0000 0.53700  0.94200  0.24700  Biso   1.000  H
  H99      1.0000 0.96300  0.44200  0.25300  Biso   1.000  H
  H100     1.0000 0.46300  0.94200  0.25300  Biso   1.000  H
  H101     1.0000 0.96300  0.55800  0.75300  Biso   1.000  H
  H102     1.0000 0.46300  0.05800  0.75300  Biso   1.000  H
  H103     1.0000 0.03700  0.55800  0.74700  Biso   1.000  H
  H104     1.0000 0.53700  0.05800  0.74700  Biso   1.000  H
