data_image0
_cell_length_a       13.167
_cell_length_b       22.657
_cell_length_c       13.56
_cell_angle_alpha    90
_cell_angle_beta     93.711
_cell_angle_gamma    90

_symmetry_space_group_name_H-M    "P 1"
_symmetry_int_tables_number       1

loop_
  _symmetry_equiv_pos_as_xyz
  'x, y, z'

loop_
  _atom_site_label
  _atom_site_occupancy
  _atom_site_fract_x
  _atom_site_fract_y
  _atom_site_fract_z
  _atom_site_thermal_displace_type
  _atom_site_B_iso_or_equiv
  _atom_site_type_symbol
  I1       1.0000 0.24312  0.75909  0.98471  Biso   1.000  I
  I2       1.0000 0.75688  0.25909  0.51529  Biso   1.000  I
  I3       1.0000 0.75688  0.24091  0.01529  Biso   1.000  I
  I4       1.0000 0.24312  0.74091  0.48471  Biso   1.000  I
  I5       1.0000 0.22674  0.62631  0.74050  Biso   1.000  I
  I6       1.0000 0.77326  0.12631  0.75950  Biso   1.000  I
  I7       1.0000 0.77326  0.37369  0.25950  Biso   1.000  I
  I8       1.0000 0.22674  0.87369  0.24050  Biso   1.000  I
  I9       1.0000 0.94144  0.85600  0.04754  Biso   1.000  I
  I10      1.0000 0.05856  0.35600  0.45246  Biso   1.000  I
  I11      1.0000 0.05856  0.14400  0.95246  Biso   1.000  I
  I12      1.0000 0.94144  0.64400  0.54754  Biso   1.000  I
  I13      1.0000 0.43583  0.79569  0.73851  Biso   1.000  I
  I14      1.0000 0.56417  0.29569  0.76149  Biso   1.000  I
  I15      1.0000 0.56417  0.20431  0.26149  Biso   1.000  I
  I16      1.0000 0.43583  0.70431  0.23851  Biso   1.000  I
  I17      1.0000 0.40819  0.46465  0.77789  Biso   1.000  I
  I18      1.0000 0.59181  0.96465  0.72211  Biso   1.000  I
  I19      1.0000 0.59181  0.53535  0.22211  Biso   1.000  I
  I20      1.0000 0.40819  0.03535  0.27789  Biso   1.000  I
  I21      1.0000 0.05299  0.81541  0.72628  Biso   1.000  I
  I22      1.0000 0.94701  0.31541  0.77372  Biso   1.000  I
  I23      1.0000 0.94701  0.18459  0.27372  Biso   1.000  I
  I24      1.0000 0.05299  0.68459  0.22628  Biso   1.000  I
  I25      1.0000 0.95506  0.65619  0.91024  Biso   1.000  I
  I26      1.0000 0.04494  0.15619  0.58976  Biso   1.000  I
  I27      1.0000 0.04494  0.34381  0.08976  Biso   1.000  I
  I28      1.0000 0.95506  0.84381  0.41024  Biso   1.000  I
  I29      1.0000 0.26284  0.55484  0.06398  Biso   1.000  I
  I30      1.0000 0.73716  0.05484  0.43602  Biso   1.000  I
  I31      1.0000 0.73716  0.44516  0.93602  Biso   1.000  I
  I32      1.0000 0.26284  0.94516  0.56398  Biso   1.000  I
  I33      1.0000 0.53567  0.64052  0.92363  Biso   1.000  I
  I34      1.0000 0.46433  0.14052  0.57637  Biso   1.000  I
  I35      1.0000 0.46433  0.35948  0.07637  Biso   1.000  I
  I36      1.0000 0.53567  0.85948  0.42363  Biso   1.000  I
  Cu1      1.0000 0.75805  0.91225  0.90373  Biso   1.000  Cu
  Cu2      1.0000 0.24195  0.41225  0.59627  Biso   1.000  Cu
  Cu3      1.0000 0.24195  0.08775  0.09627  Biso   1.000  Cu
  Cu4      1.0000 0.75805  0.58775  0.40373  Biso   1.000  Cu
  Ag1      1.0000 0.36442  0.69893  0.85457  Biso   1.000  Ag
  Ag2      1.0000 0.63558  0.19893  0.64543  Biso   1.000  Ag
  Ag3      1.0000 0.63558  0.30107  0.14543  Biso   1.000  Ag
  Ag4      1.0000 0.36442  0.80107  0.35457  Biso   1.000  Ag
  Ag5      1.0000 0.02643  0.77380  0.92610  Biso   1.000  Ag
  Ag6      1.0000 0.97357  0.27380  0.57390  Biso   1.000  Ag
  Ag7      1.0000 0.97357  0.22620  0.07390  Biso   1.000  Ag
  Ag8      1.0000 0.02643  0.72620  0.42610  Biso   1.000  Ag
  Ag9      1.0000 0.03379  0.68967  0.72501  Biso   1.000  Ag
  Ag10     1.0000 0.96621  0.18967  0.77499  Biso   1.000  Ag
  Ag11     1.0000 0.96621  0.31033  0.27499  Biso   1.000  Ag
  Ag12     1.0000 0.03379  0.81033  0.22501  Biso   1.000  Ag
  Ag13     1.0000 0.37023  0.55998  0.89265  Biso   1.000  Ag
  Ag14     1.0000 0.62977  0.05998  0.60735  Biso   1.000  Ag
  Ag15     1.0000 0.62977  0.44002  0.10735  Biso   1.000  Ag
  Ag16     1.0000 0.37023  0.94002  0.39265  Biso   1.000  Ag
  Ag17     1.0000 0.23690  0.73942  0.19395  Biso   1.000  Ag
  Ag18     1.0000 0.76310  0.23942  0.30605  Biso   1.000  Ag
  Ag19     1.0000 0.76310  0.26058  0.80605  Biso   1.000  Ag
  Ag20     1.0000 0.23690  0.76058  0.69395  Biso   1.000  Ag
  Ag21     1.0000 0.45898  0.89329  0.60559  Biso   1.000  Ag
  Ag22     1.0000 0.54102  0.39329  0.89441  Biso   1.000  Ag
  Ag23     1.0000 0.54102  0.10671  0.39441  Biso   1.000  Ag
  Ag24     1.0000 0.45898  0.60671  0.10559  Biso   1.000  Ag
  Ag25     1.0000 0.16690  0.85840  0.44010  Biso   1.000  Ag
  Ag26     1.0000 0.83310  0.35840  0.05990  Biso   1.000  Ag
  Ag27     1.0000 0.83310  0.14160  0.55990  Biso   1.000  Ag
  Ag28     1.0000 0.16690  0.64160  0.94010  Biso   1.000  Ag
  Ag29     1.0000 0.16440  0.64420  0.97200  Biso   1.000  Ag
  Ag30     1.0000 0.83560  0.14420  0.52800  Biso   1.000  Ag
  Ag31     1.0000 0.83560  0.35580  0.02800  Biso   1.000  Ag
  Ag32     1.0000 0.16440  0.85580  0.47200  Biso   1.000  Ag
  Ag33     1.0000 0.13960  0.84770  0.52680  Biso   1.000  Ag
  Ag34     1.0000 0.86040  0.34770  0.97320  Biso   1.000  Ag
  Ag35     1.0000 0.86040  0.15230  0.47320  Biso   1.000  Ag
  Ag36     1.0000 0.13960  0.65230  0.02680  Biso   1.000  Ag
  N1       1.0000 0.64450  0.88570  0.98080  Biso   1.000  N
  N2       1.0000 0.35550  0.38570  0.51920  Biso   1.000  N
  N3       1.0000 0.35550  0.11430  0.01920  Biso   1.000  N
  N4       1.0000 0.64450  0.61430  0.48080  Biso   1.000  N
  N5       1.0000 0.74870  0.98250  0.98940  Biso   1.000  N
  N6       1.0000 0.25130  0.48250  0.51060  Biso   1.000  N
  N7       1.0000 0.25130  0.01750  0.01060  Biso   1.000  N
  N8       1.0000 0.74870  0.51750  0.48940  Biso   1.000  N
  O1       1.0000 0.85880  0.94690  0.82540  Biso   1.000  O
  O2       1.0000 0.14120  0.44690  0.67460  Biso   1.000  O
  O3       1.0000 0.14120  0.05310  0.17460  Biso   1.000  O
  O4       1.0000 0.85880  0.55310  0.32540  Biso   1.000  O
  O5       1.0000 0.75730  0.83960  0.82880  Biso   1.000  O
  O6       1.0000 0.24270  0.33960  0.67120  Biso   1.000  O
  O7       1.0000 0.24270  0.16040  0.17120  Biso   1.000  O
  O8       1.0000 0.75730  0.66040  0.32880  Biso   1.000  O
  N9       1.0000 0.74630  0.77870  0.70140  Biso   1.000  N
  N10      1.0000 0.25370  0.27870  0.79860  Biso   1.000  N
  N11      1.0000 0.25370  0.22130  0.29860  Biso   1.000  N
  N12      1.0000 0.74630  0.72130  0.20140  Biso   1.000  N
  N13      1.0000 0.96770  0.98000  0.72370  Biso   1.000  N
  N14      1.0000 0.03230  0.48000  0.77630  Biso   1.000  N
  N15      1.0000 0.03230  0.02000  0.27630  Biso   1.000  N
  N16      1.0000 0.96770  0.52000  0.22370  Biso   1.000  N
  C1       1.0000 0.59510  0.83400  0.97140  Biso   1.000  C
  C2       1.0000 0.40490  0.33400  0.52860  Biso   1.000  C
  C3       1.0000 0.40490  0.16600  0.02860  Biso   1.000  C
  C4       1.0000 0.59510  0.66600  0.47140  Biso   1.000  C
  H1       1.0000 0.61440  0.80670  0.92500  Biso   1.000  H
  H2       1.0000 0.38560  0.30670  0.57500  Biso   1.000  H
  H3       1.0000 0.38560  0.19330  0.07500  Biso   1.000  H
  H4       1.0000 0.61440  0.69330  0.42500  Biso   1.000  H
  C5       1.0000 0.51590  0.82070  0.02970  Biso   1.000  C
  C6       1.0000 0.48410  0.32070  0.47030  Biso   1.000  C
  C7       1.0000 0.48410  0.17930  0.97030  Biso   1.000  C
  C8       1.0000 0.51590  0.67930  0.52970  Biso   1.000  C
  H5       1.0000 0.48190  0.78480  0.02170  Biso   1.000  H
  H6       1.0000 0.51810  0.28480  0.47830  Biso   1.000  H
  H7       1.0000 0.51810  0.21520  0.97830  Biso   1.000  H
  H8       1.0000 0.48190  0.71520  0.52170  Biso   1.000  H
  C9       1.0000 0.48860  0.85870  0.09640  Biso   1.000  C
  C10      1.0000 0.51140  0.35870  0.40360  Biso   1.000  C
  C11      1.0000 0.51140  0.14130  0.90360  Biso   1.000  C
  C12      1.0000 0.48860  0.64130  0.59640  Biso   1.000  C
  H9       1.0000 0.43570  0.84940  0.13600  Biso   1.000  H
  H10      1.0000 0.56430  0.34940  0.36400  Biso   1.000  H
  H11      1.0000 0.56430  0.15060  0.86400  Biso   1.000  H
  H12      1.0000 0.43570  0.65060  0.63600  Biso   1.000  H
  C13      1.0000 0.53860  0.91270  0.10810  Biso   1.000  C
  C14      1.0000 0.46140  0.41270  0.39190  Biso   1.000  C
  C15      1.0000 0.46140  0.08730  0.89190  Biso   1.000  C
  C16      1.0000 0.53860  0.58730  0.60810  Biso   1.000  C
  H13      1.0000 0.51960  0.93960  0.15530  Biso   1.000  H
  H14      1.0000 0.48040  0.43960  0.34470  Biso   1.000  H
  H15      1.0000 0.48040  0.06040  0.84470  Biso   1.000  H
  H16      1.0000 0.51960  0.56040  0.65530  Biso   1.000  H
  C17      1.0000 0.61640  0.92560  0.04880  Biso   1.000  C
  C18      1.0000 0.38360  0.42560  0.45120  Biso   1.000  C
  C19      1.0000 0.38360  0.07440  0.95120  Biso   1.000  C
  C20      1.0000 0.61640  0.57440  0.54880  Biso   1.000  C
  C21      1.0000 0.67580  0.97980  0.05430  Biso   1.000  C
  C22      1.0000 0.32420  0.47980  0.44570  Biso   1.000  C
  C23      1.0000 0.32420  0.02020  0.94570  Biso   1.000  C
  C24      1.0000 0.67580  0.52020  0.55430  Biso   1.000  C
  C25      1.0000 0.65810  0.02670  0.11470  Biso   1.000  C
  C26      1.0000 0.34190  0.52670  0.38530  Biso   1.000  C
  C27      1.0000 0.34190  0.97330  0.88530  Biso   1.000  C
  C28      1.0000 0.65810  0.47330  0.61470  Biso   1.000  C
  H17      1.0000 0.60600  0.02470  0.15780  Biso   1.000  H
  H18      1.0000 0.39400  0.52470  0.34220  Biso   1.000  H
  H19      1.0000 0.39400  0.97530  0.84220  Biso   1.000  H
  H20      1.0000 0.60600  0.47530  0.65780  Biso   1.000  H
  C29      1.0000 0.71600  0.07580  0.11200  Biso   1.000  C
  C30      1.0000 0.28400  0.57580  0.38800  Biso   1.000  C
  C31      1.0000 0.28400  0.92420  0.88800  Biso   1.000  C
  C32      1.0000 0.71600  0.42420  0.61200  Biso   1.000  C
  H21      1.0000 0.70350  0.10780  0.15250  Biso   1.000  H
  H22      1.0000 0.29650  0.60780  0.34750  Biso   1.000  H
  H23      1.0000 0.29650  0.89220  0.84750  Biso   1.000  H
  H24      1.0000 0.70350  0.39220  0.65250  Biso   1.000  H
  C33      1.0000 0.79450  0.07830  0.04810  Biso   1.000  C
  C34      1.0000 0.20550  0.57830  0.45190  Biso   1.000  C
  C35      1.0000 0.20550  0.92170  0.95190  Biso   1.000  C
  C36      1.0000 0.79450  0.42170  0.54810  Biso   1.000  C
  H25      1.0000 0.83770  0.11080  0.04750  Biso   1.000  H
  H26      1.0000 0.16230  0.61080  0.45250  Biso   1.000  H
  H27      1.0000 0.16230  0.88920  0.95250  Biso   1.000  H
  H28      1.0000 0.83770  0.38920  0.54750  Biso   1.000  H
  C37      1.0000 0.80600  0.03130  0.98600  Biso   1.000  C
  C38      1.0000 0.19400  0.53130  0.51400  Biso   1.000  C
  C39      1.0000 0.19400  0.96870  0.01400  Biso   1.000  C
  C40      1.0000 0.80600  0.46870  0.48600  Biso   1.000  C
  H29      1.0000 0.85520  0.03330  0.93990  Biso   1.000  H
  H30      1.0000 0.14480  0.53330  0.56010  Biso   1.000  H
  H31      1.0000 0.14480  0.96670  0.06010  Biso   1.000  H
  H32      1.0000 0.85520  0.46670  0.43990  Biso   1.000  H
  C41      1.0000 0.87670  0.95300  0.74820  Biso   1.000  C
  C42      1.0000 0.12330  0.45300  0.75180  Biso   1.000  C
  C43      1.0000 0.12330  0.04700  0.25180  Biso   1.000  C
  C44      1.0000 0.87670  0.54700  0.24820  Biso   1.000  C
  C45      1.0000 0.06100  0.00480  0.75840  Biso   1.000  C
  C46      1.0000 0.93900  0.50480  0.74160  Biso   1.000  C
  C47      1.0000 0.93900  0.99520  0.24160  Biso   1.000  C
  C48      1.0000 0.06100  0.49520  0.25840  Biso   1.000  C
  H33      1.0000 0.09540  0.02050  0.70370  Biso   1.000  H
  H34      1.0000 0.90460  0.52050  0.79630  Biso   1.000  H
  H35      1.0000 0.90460  0.97950  0.29630  Biso   1.000  H
  H36      1.0000 0.09540  0.47950  0.20370  Biso   1.000  H
  H37      1.0000 0.10300  0.97490  0.79080  Biso   1.000  H
  H38      1.0000 0.89700  0.47490  0.70920  Biso   1.000  H
  H39      1.0000 0.89700  0.02510  0.20920  Biso   1.000  H
  H40      1.0000 0.10300  0.52510  0.29080  Biso   1.000  H
  H41      1.0000 0.04940  0.03590  0.80430  Biso   1.000  H
  H42      1.0000 0.95060  0.53590  0.69570  Biso   1.000  H
  H43      1.0000 0.95060  0.96410  0.19570  Biso   1.000  H
  H44      1.0000 0.04940  0.46410  0.30430  Biso   1.000  H
  C49      1.0000 0.95100  0.97900  0.62300  Biso   1.000  C
  C50      1.0000 0.04900  0.47900  0.87700  Biso   1.000  C
  C51      1.0000 0.04900  0.02100  0.37700  Biso   1.000  C
  C52      1.0000 0.95100  0.52100  0.12300  Biso   1.000  C
  H45      1.0000 0.88380  0.96380  0.60640  Biso   1.000  H
  H46      1.0000 0.11620  0.46380  0.89360  Biso   1.000  H
  H47      1.0000 0.11620  0.03620  0.39360  Biso   1.000  H
  H48      1.0000 0.88380  0.53620  0.10640  Biso   1.000  H
  H49      1.0000 0.00040  0.95420  0.59520  Biso   1.000  H
  H50      1.0000 0.99960  0.45420  0.90480  Biso   1.000  H
  H51      1.0000 0.99960  0.04580  0.40480  Biso   1.000  H
  H52      1.0000 0.00040  0.54580  0.09520  Biso   1.000  H
  H53      1.0000 0.95600  0.01830  0.59770  Biso   1.000  H
  H54      1.0000 0.04400  0.51830  0.90230  Biso   1.000  H
  H55      1.0000 0.04400  0.98170  0.40230  Biso   1.000  H
  H56      1.0000 0.95600  0.48170  0.09770  Biso   1.000  H
  C53      1.0000 0.75890  0.83310  0.74710  Biso   1.000  C
  C54      1.0000 0.24110  0.33310  0.75290  Biso   1.000  C
  C55      1.0000 0.24110  0.16690  0.25290  Biso   1.000  C
  C56      1.0000 0.75890  0.66690  0.24710  Biso   1.000  C
  H57      1.0000 0.76930  0.86600  0.70790  Biso   1.000  H
  H58      1.0000 0.23070  0.36600  0.79210  Biso   1.000  H
  H59      1.0000 0.23070  0.13400  0.29210  Biso   1.000  H
  H60      1.0000 0.76930  0.63400  0.20790  Biso   1.000  H
  C57      1.0000 0.75100  0.78440  0.59400  Biso   1.000  C
  C58      1.0000 0.24900  0.28440  0.90600  Biso   1.000  C
  C59      1.0000 0.24900  0.21560  0.40600  Biso   1.000  C
  C60      1.0000 0.75100  0.71560  0.09400  Biso   1.000  C
  H61      1.0000 0.74240  0.74630  0.56400  Biso   1.000  H
  H62      1.0000 0.25760  0.24630  0.93600  Biso   1.000  H
  H63      1.0000 0.25760  0.25370  0.43600  Biso   1.000  H
  H64      1.0000 0.74240  0.75370  0.06400  Biso   1.000  H
  H65      1.0000 0.81560  0.80050  0.57960  Biso   1.000  H
  H66      1.0000 0.18440  0.30050  0.92040  Biso   1.000  H
  H67      1.0000 0.18440  0.19950  0.42040  Biso   1.000  H
  H68      1.0000 0.81560  0.69950  0.07960  Biso   1.000  H
  H69      1.0000 0.69750  0.81020  0.56890  Biso   1.000  H
  H70      1.0000 0.30250  0.31020  0.93110  Biso   1.000  H
  H71      1.0000 0.30250  0.18980  0.43110  Biso   1.000  H
  H72      1.0000 0.69750  0.68980  0.06890  Biso   1.000  H
  C61      1.0000 0.72400  0.72170  0.74210  Biso   1.000  C
  C62      1.0000 0.27600  0.22170  0.75790  Biso   1.000  C
  C63      1.0000 0.27600  0.27830  0.25790  Biso   1.000  C
  C64      1.0000 0.72400  0.77830  0.24210  Biso   1.000  C
  H73      1.0000 0.72100  0.69270  0.69040  Biso   1.000  H
  H74      1.0000 0.27900  0.19270  0.80960  Biso   1.000  H
  H75      1.0000 0.27900  0.30730  0.30960  Biso   1.000  H
  H76      1.0000 0.72100  0.80730  0.19040  Biso   1.000  H
  H77      1.0000 0.65960  0.72320  0.77150  Biso   1.000  H
  H78      1.0000 0.34040  0.22320  0.72850  Biso   1.000  H
  H79      1.0000 0.34040  0.27680  0.22850  Biso   1.000  H
  H80      1.0000 0.65960  0.77680  0.27150  Biso   1.000  H
  H81      1.0000 0.77640  0.71120  0.79150  Biso   1.000  H
  H82      1.0000 0.22360  0.21120  0.70850  Biso   1.000  H
  H83      1.0000 0.22360  0.28880  0.20850  Biso   1.000  H
  H84      1.0000 0.77640  0.78880  0.29150  Biso   1.000  H
  C65      1.0000 0.93680  0.96300  0.82220  Biso   1.000  C
  C66      1.0000 0.06320  0.46300  0.67780  Biso   1.000  C
  C67      1.0000 0.06320  0.03700  0.17780  Biso   1.000  C
  C68      1.0000 0.93680  0.53700  0.32220  Biso   1.000  C
