data_image0
_cell_length_a       10.594
_cell_length_b       15.1
_cell_length_c       20.05
_cell_angle_alpha    90
_cell_angle_beta     95.01
_cell_angle_gamma    90

_symmetry_space_group_name_H-M    "P 1"
_symmetry_int_tables_number       1

loop_
  _symmetry_equiv_pos_as_xyz
  'x, y, z'

loop_
  _atom_site_label
  _atom_site_occupancy
  _atom_site_fract_x
  _atom_site_fract_y
  _atom_site_fract_z
  _atom_site_thermal_displace_type
  _atom_site_B_iso_or_equiv
  _atom_site_type_symbol
  Cu1      1.0000 0.82547  0.48066  0.03086  Biso   1.000  Cu
  Cu2      1.0000 0.17453  0.98066  0.46914  Biso   1.000  Cu
  Cu3      1.0000 0.17453  0.51934  0.96914  Biso   1.000  Cu
  Cu4      1.0000 0.82547  0.01934  0.53086  Biso   1.000  Cu
  O1       1.0000 0.88040  0.39620  0.09960  Biso   1.000  O
  O2       1.0000 0.11960  0.89620  0.40040  Biso   1.000  O
  O3       1.0000 0.11960  0.60380  0.90040  Biso   1.000  O
  O4       1.0000 0.88040  0.10380  0.59960  Biso   1.000  O
  O5       1.0000 0.73130  0.45730  0.15740  Biso   1.000  O
  O6       1.0000 0.26870  0.95730  0.34260  Biso   1.000  O
  O7       1.0000 0.26870  0.54270  0.84260  Biso   1.000  O
  O8       1.0000 0.73130  0.04270  0.65740  Biso   1.000  O
  N1       1.0000 0.87940  0.14410  0.41480  Biso   1.000  N
  N2       1.0000 0.12060  0.64410  0.08520  Biso   1.000  N
  N3       1.0000 0.12060  0.85590  0.58520  Biso   1.000  N
  N4       1.0000 0.87940  0.35590  0.91480  Biso   1.000  N
  N5       1.0000 0.93870  0.08200  0.45190  Biso   1.000  N
  N6       1.0000 0.06130  0.58200  0.04810  Biso   1.000  N
  N7       1.0000 0.06130  0.91800  0.54810  Biso   1.000  N
  N8       1.0000 0.93870  0.41800  0.95190  Biso   1.000  N
  N9       1.0000 0.05080  0.06760  0.42970  Biso   1.000  N
  N10      1.0000 0.94920  0.56760  0.07030  Biso   1.000  N
  N11      1.0000 0.94920  0.93240  0.57030  Biso   1.000  N
  N12      1.0000 0.05080  0.43240  0.92970  Biso   1.000  N
  N13      1.0000 0.06660  0.11610  0.37610  Biso   1.000  N
  N14      1.0000 0.93340  0.61610  0.12390  Biso   1.000  N
  N15      1.0000 0.93340  0.88390  0.62390  Biso   1.000  N
  N16      1.0000 0.06660  0.38390  0.87610  Biso   1.000  N
  N17      1.0000 0.67400  0.41270  0.99640  Biso   1.000  N
  N18      1.0000 0.32600  0.91270  0.50360  Biso   1.000  N
  N19      1.0000 0.32600  0.58730  0.00360  Biso   1.000  N
  N20      1.0000 0.67400  0.08730  0.49640  Biso   1.000  N
  N21      1.0000 0.74340  0.56680  0.96560  Biso   1.000  N
  N22      1.0000 0.25660  0.06680  0.53440  Biso   1.000  N
  N23      1.0000 0.25660  0.43320  0.03440  Biso   1.000  N
  N24      1.0000 0.74340  0.93320  0.46560  Biso   1.000  N
  C1       1.0000 0.96040  0.16230  0.36800  Biso   1.000  C
  C2       1.0000 0.03960  0.66230  0.13200  Biso   1.000  C
  C3       1.0000 0.03960  0.83770  0.63200  Biso   1.000  C
  C4       1.0000 0.96040  0.33770  0.86800  Biso   1.000  C
  C5       1.0000 0.92790  0.22610  0.31420  Biso   1.000  C
  C6       1.0000 0.07210  0.72610  0.18580  Biso   1.000  C
  C7       1.0000 0.07210  0.77390  0.68580  Biso   1.000  C
  C8       1.0000 0.92790  0.27390  0.81420  Biso   1.000  C
  C9       1.0000 0.82400  0.27750  0.31670  Biso   1.000  C
  C10      1.0000 0.17600  0.77750  0.18330  Biso   1.000  C
  C11      1.0000 0.17600  0.72250  0.68330  Biso   1.000  C
  C12      1.0000 0.82400  0.22250  0.81670  Biso   1.000  C
  H1       1.0000 0.77560  0.27330  0.35310  Biso   1.000  H
  H2       1.0000 0.22440  0.77330  0.14690  Biso   1.000  H
  H3       1.0000 0.22440  0.72670  0.64690  Biso   1.000  H
  H4       1.0000 0.77560  0.22670  0.85310  Biso   1.000  H
  C13      1.0000 0.78890  0.33650  0.26530  Biso   1.000  C
  C14      1.0000 0.21110  0.83650  0.23470  Biso   1.000  C
  C15      1.0000 0.21110  0.66350  0.73470  Biso   1.000  C
  C16      1.0000 0.78890  0.16350  0.76530  Biso   1.000  C
  H5       1.0000 0.71770  0.37220  0.26750  Biso   1.000  H
  H6       1.0000 0.28230  0.87220  0.23250  Biso   1.000  H
  H7       1.0000 0.28230  0.62780  0.73250  Biso   1.000  H
  H8       1.0000 0.71770  0.12780  0.76750  Biso   1.000  H
  C17      1.0000 0.86220  0.34210  0.20960  Biso   1.000  C
  C18      1.0000 0.13780  0.84210  0.29040  Biso   1.000  C
  C19      1.0000 0.13780  0.65790  0.79040  Biso   1.000  C
  C20      1.0000 0.86220  0.15790  0.70960  Biso   1.000  C
  C21      1.0000 0.96870  0.28680  0.20700  Biso   1.000  C
  C22      1.0000 0.03130  0.78680  0.29300  Biso   1.000  C
  C23      1.0000 0.03130  0.71320  0.79300  Biso   1.000  C
  C24      1.0000 0.96870  0.21320  0.70700  Biso   1.000  C
  H9       1.0000 0.01690  0.28860  0.17040  Biso   1.000  H
  H10      1.0000 0.98310  0.78860  0.32960  Biso   1.000  H
  H11      1.0000 0.98310  0.71140  0.82960  Biso   1.000  H
  H12      1.0000 0.01690  0.21140  0.67040  Biso   1.000  H
  C25      1.0000 0.00100  0.22870  0.26080  Biso   1.000  C
  C26      1.0000 0.99900  0.72870  0.23920  Biso   1.000  C
  C27      1.0000 0.99900  0.77130  0.73920  Biso   1.000  C
  C28      1.0000 0.00100  0.27130  0.76080  Biso   1.000  C
  H13      1.0000 0.07150  0.19220  0.26020  Biso   1.000  H
  H14      1.0000 0.92850  0.69220  0.23980  Biso   1.000  H
  H15      1.0000 0.92850  0.80780  0.73980  Biso   1.000  H
  H16      1.0000 0.07150  0.30780  0.76020  Biso   1.000  H
  C29      1.0000 0.81990  0.40570  0.15300  Biso   1.000  C
  C30      1.0000 0.18010  0.90570  0.34700  Biso   1.000  C
  C31      1.0000 0.18010  0.59430  0.84700  Biso   1.000  C
  C32      1.0000 0.81990  0.09430  0.65300  Biso   1.000  C
  C33      1.0000 0.61610  0.67670  0.86920  Biso   1.000  C
  C34      1.0000 0.38390  0.17670  0.63080  Biso   1.000  C
  C35      1.0000 0.38390  0.32330  0.13080  Biso   1.000  C
  C36      1.0000 0.61610  0.82330  0.36920  Biso   1.000  C
  C37      1.0000 0.54170  0.73620  0.81880  Biso   1.000  C
  C38      1.0000 0.45830  0.23620  0.68120  Biso   1.000  C
  C39      1.0000 0.45830  0.26380  0.18120  Biso   1.000  C
  C40      1.0000 0.54170  0.76380  0.31880  Biso   1.000  C
  H17      1.0000 0.56070  0.79710  0.82920  Biso   1.000  H
  H18      1.0000 0.43930  0.29710  0.67080  Biso   1.000  H
  H19      1.0000 0.43930  0.20290  0.17080  Biso   1.000  H
  H20      1.0000 0.56070  0.70290  0.32920  Biso   1.000  H
  H21      1.0000 0.45260  0.72600  0.82060  Biso   1.000  H
  H22      1.0000 0.54740  0.22600  0.67940  Biso   1.000  H
  H23      1.0000 0.54740  0.27400  0.17940  Biso   1.000  H
  H24      1.0000 0.45260  0.77400  0.32060  Biso   1.000  H
  H25      1.0000 0.56480  0.72310  0.77460  Biso   1.000  H
  H26      1.0000 0.43520  0.22310  0.72540  Biso   1.000  H
  H27      1.0000 0.43520  0.27690  0.22540  Biso   1.000  H
  H28      1.0000 0.56480  0.77690  0.27460  Biso   1.000  H
  C41      1.0000 0.57010  0.59270  0.88430  Biso   1.000  C
  C42      1.0000 0.42990  0.09270  0.61570  Biso   1.000  C
  C43      1.0000 0.42990  0.40730  0.11570  Biso   1.000  C
  C44      1.0000 0.57010  0.90730  0.38430  Biso   1.000  C
  H29      1.0000 0.49470  0.57290  0.86200  Biso   1.000  H
  H30      1.0000 0.50530  0.07290  0.63800  Biso   1.000  H
  H31      1.0000 0.50530  0.42710  0.13800  Biso   1.000  H
  H32      1.0000 0.49470  0.92710  0.36200  Biso   1.000  H
  C45      1.0000 0.63410  0.53830  0.93180  Biso   1.000  C
  C46      1.0000 0.36590  0.03830  0.56820  Biso   1.000  C
  C47      1.0000 0.36590  0.46170  0.06820  Biso   1.000  C
  C48      1.0000 0.63410  0.96170  0.43180  Biso   1.000  C
  C49      1.0000 0.59670  0.44990  0.94820  Biso   1.000  C
  C50      1.0000 0.40330  0.94990  0.55180  Biso   1.000  C
  C51      1.0000 0.40330  0.55010  0.05180  Biso   1.000  C
  C52      1.0000 0.59670  0.05010  0.44820  Biso   1.000  C
  C53      1.0000 0.49610  0.40580  0.91530  Biso   1.000  C
  C54      1.0000 0.50390  0.90580  0.58470  Biso   1.000  C
  C55      1.0000 0.50390  0.59420  0.08470  Biso   1.000  C
  C56      1.0000 0.49610  0.09420  0.41530  Biso   1.000  C
  H33      1.0000 0.44400  0.43500  0.88270  Biso   1.000  H
  H34      1.0000 0.55600  0.93500  0.61730  Biso   1.000  H
  H35      1.0000 0.55600  0.56500  0.11730  Biso   1.000  H
  H36      1.0000 0.44400  0.06500  0.38270  Biso   1.000  H
  C57      1.0000 0.47180  0.31920  0.93030  Biso   1.000  C
  C58      1.0000 0.52820  0.81920  0.56970  Biso   1.000  C
  C59      1.0000 0.52820  0.68080  0.06970  Biso   1.000  C
  C60      1.0000 0.47180  0.18080  0.43030  Biso   1.000  C
  C61      1.0000 0.36260  0.27090  0.89750  Biso   1.000  C
  C62      1.0000 0.63740  0.77090  0.60250  Biso   1.000  C
  C63      1.0000 0.63740  0.72910  0.10250  Biso   1.000  C
  C64      1.0000 0.36260  0.22910  0.39750  Biso   1.000  C
  H37      1.0000 0.37310  0.20860  0.90580  Biso   1.000  H
  H38      1.0000 0.62690  0.70860  0.59420  Biso   1.000  H
  H39      1.0000 0.62690  0.79140  0.09420  Biso   1.000  H
  H40      1.0000 0.37310  0.29140  0.40580  Biso   1.000  H
  H41      1.0000 0.35740  0.28170  0.85020  Biso   1.000  H
  H42      1.0000 0.64260  0.78170  0.64980  Biso   1.000  H
  H43      1.0000 0.64260  0.71830  0.14980  Biso   1.000  H
  H44      1.0000 0.35740  0.21830  0.35020  Biso   1.000  H
  H45      1.0000 0.28630  0.29100  0.91520  Biso   1.000  H
  H46      1.0000 0.71370  0.79100  0.58480  Biso   1.000  H
  H47      1.0000 0.71370  0.70900  0.08480  Biso   1.000  H
  H48      1.0000 0.28630  0.20900  0.41520  Biso   1.000  H
  C65      1.0000 0.54940  0.28100  0.97930  Biso   1.000  C
  C66      1.0000 0.45060  0.78100  0.52070  Biso   1.000  C
  C67      1.0000 0.45060  0.71900  0.02070  Biso   1.000  C
  C68      1.0000 0.54940  0.21900  0.47930  Biso   1.000  C
  H49      1.0000 0.53560  0.22280  0.99210  Biso   1.000  H
  H50      1.0000 0.46440  0.72280  0.50790  Biso   1.000  H
  H51      1.0000 0.46440  0.77720  0.00790  Biso   1.000  H
  H52      1.0000 0.53560  0.27720  0.49210  Biso   1.000  H
  C69      1.0000 0.65010  0.32920  0.01060  Biso   1.000  C
  C70      1.0000 0.34990  0.82920  0.48940  Biso   1.000  C
  C71      1.0000 0.34990  0.67080  0.98940  Biso   1.000  C
  C72      1.0000 0.65010  0.17080  0.51060  Biso   1.000  C
  H53      1.0000 0.70350  0.30110  0.04330  Biso   1.000  H
  H54      1.0000 0.29650  0.80110  0.45670  Biso   1.000  H
  H55      1.0000 0.29650  0.69890  0.95670  Biso   1.000  H
  H56      1.0000 0.70350  0.19890  0.54330  Biso   1.000  H
  C73      1.0000 0.78680  0.65120  0.94940  Biso   1.000  C
  C74      1.0000 0.21320  0.15120  0.55060  Biso   1.000  C
  C75      1.0000 0.21320  0.34880  0.05060  Biso   1.000  C
  C76      1.0000 0.78680  0.84880  0.44940  Biso   1.000  C
  H57      1.0000 0.86260  0.67090  0.97130  Biso   1.000  H
  H58      1.0000 0.13740  0.17090  0.52870  Biso   1.000  H
  H59      1.0000 0.13740  0.32910  0.02870  Biso   1.000  H
  H60      1.0000 0.86260  0.82910  0.47130  Biso   1.000  H
  C77      1.0000 0.72480  0.70650  0.90330  Biso   1.000  C
  C78      1.0000 0.27520  0.20650  0.59670  Biso   1.000  C
  C79      1.0000 0.27520  0.29350  0.09670  Biso   1.000  C
  C80      1.0000 0.72480  0.79350  0.40330  Biso   1.000  C
  H61      1.0000 0.75600  0.76280  0.89560  Biso   1.000  H
  H62      1.0000 0.24400  0.26280  0.60440  Biso   1.000  H
  H63      1.0000 0.24400  0.23720  0.10440  Biso   1.000  H
  H64      1.0000 0.75600  0.73720  0.39560  Biso   1.000  H
  O9       1.0000 0.17900  0.48870  0.23320  Biso   1.000  O
  O10      1.0000 0.82100  0.98870  0.26680  Biso   1.000  O
  O11      1.0000 0.82100  0.51130  0.76680  Biso   1.000  O
  O12      1.0000 0.17900  0.01130  0.73320  Biso   1.000  O
  C81      1.0000 0.29040  0.54640  0.25320  Biso   1.000  C
  C82      1.0000 0.70960  0.04640  0.24680  Biso   1.000  C
  C83      1.0000 0.70960  0.45360  0.74680  Biso   1.000  C
  C84      1.0000 0.29040  0.95360  0.75320  Biso   1.000  C
  N25      1.0000 0.32150  0.55020  0.32120  Biso   1.000  N
  N26      1.0000 0.67850  0.05020  0.17880  Biso   1.000  N
  N27      1.0000 0.67850  0.44980  0.67880  Biso   1.000  N
  N28      1.0000 0.32150  0.94980  0.82120  Biso   1.000  N
  C85      1.0000 0.27590  0.62400  0.35210  Biso   1.000  C
  C86      1.0000 0.72410  0.12400  0.14790  Biso   1.000  C
  C87      1.0000 0.72410  0.37600  0.64790  Biso   1.000  C
  C88      1.0000 0.27590  0.87600  0.85210  Biso   1.000  C
  C89      1.0000 0.37290  0.48600  0.35290  Biso   1.000  C
  C90      1.0000 0.62710  0.98600  0.14710  Biso   1.000  C
  C91      1.0000 0.62710  0.51400  0.64710  Biso   1.000  C
  C92      1.0000 0.37290  0.01400  0.85290  Biso   1.000  C
  C93      1.0000 0.31510  0.61950  0.40300  Biso   1.000  C
  C94      1.0000 0.68490  0.11950  0.09700  Biso   1.000  C
  C95      1.0000 0.68490  0.38050  0.59700  Biso   1.000  C
  C96      1.0000 0.31510  0.88050  0.90300  Biso   1.000  C
  C97      1.0000 0.55440  0.60980  0.35800  Biso   1.000  C
  C98      1.0000 0.44560  0.10980  0.14200  Biso   1.000  C
  C99      1.0000 0.44560  0.39020  0.64200  Biso   1.000  C
  C100     1.0000 0.55440  0.89020  0.85800  Biso   1.000  C
  C101     1.0000 0.28330  0.09300  0.24880  Biso   1.000  C
  C102     1.0000 0.71670  0.59300  0.25120  Biso   1.000  C
  C103     1.0000 0.71670  0.90700  0.75120  Biso   1.000  C
  C104     1.0000 0.28330  0.40700  0.74880  Biso   1.000  C
  C105     1.0000 0.95170  0.97700  0.93680  Biso   1.000  C
  C106     1.0000 0.04830  0.47700  0.56320  Biso   1.000  C
  C107     1.0000 0.04830  0.02300  0.06320  Biso   1.000  C
  C108     1.0000 0.95170  0.52300  0.43680  Biso   1.000  C
  C109     1.0000 0.02230  0.86950  0.96520  Biso   1.000  C
  C110     1.0000 0.97770  0.36950  0.53480  Biso   1.000  C
  C111     1.0000 0.97770  0.13050  0.03480  Biso   1.000  C
  C112     1.0000 0.02230  0.63050  0.46520  Biso   1.000  C
  C113     1.0000 0.83700  0.90900  0.87000  Biso   1.000  C
  C114     1.0000 0.16300  0.40900  0.63000  Biso   1.000  C
  C115     1.0000 0.16300  0.09100  0.13000  Biso   1.000  C
  C116     1.0000 0.83700  0.59100  0.37000  Biso   1.000  C
