data_image0
_cell_length_a       3.8671
_cell_length_b       14.8937
_cell_length_c       7.6363
_cell_angle_alpha    90
_cell_angle_beta     93.742
_cell_angle_gamma    90

_symmetry_space_group_name_H-M    "P 1"
_symmetry_int_tables_number       1

loop_
  _symmetry_equiv_pos_as_xyz
  'x, y, z'

loop_
  _atom_site_label
  _atom_site_occupancy
  _atom_site_fract_x
  _atom_site_fract_y
  _atom_site_fract_z
  _atom_site_thermal_displace_type
  _atom_site_B_iso_or_equiv
  _atom_site_type_symbol
  Cu1      1.0000 0.36370  0.86139  0.63901  Biso   1.000  Cu
  Cu2      1.0000 0.63630  0.36139  0.36099  Biso   1.000  Cu
  Cl1      1.0000 0.37410  0.75984  0.85950  Biso   1.000  Cl
  Cl2      1.0000 0.62590  0.25984  0.14050  Biso   1.000  Cl
  Cl3      1.0000 0.77430  0.95448  0.76710  Biso   1.000  Cl
  Cl4      1.0000 0.22570  0.45448  0.23290  Biso   1.000  Cl
  N1       1.0000 0.07010  0.78040  0.47960  Biso   1.000  N
  N2       1.0000 0.92990  0.28040  0.52040  Biso   1.000  N
  N3       1.0000 0.88190  0.74760  0.21120  Biso   1.000  N
  N4       1.0000 0.11810  0.24760  0.78880  Biso   1.000  N
  H1       1.0000 0.83960  0.75140  0.09950  Biso   1.000  H
  H2       1.0000 0.16040  0.25140  0.90050  Biso   1.000  H
  N5       1.0000 0.23320  0.94060  0.13350  Biso   1.000  N
  N6       1.0000 0.76680  0.44060  0.86650  Biso   1.000  N
  H3       1.0000 0.15020  0.92670  0.02990  Biso   1.000  H
  H4       1.0000 0.84980  0.42670  0.97010  Biso   1.000  H
  N7       1.0000 0.36980  0.93250  0.41570  Biso   1.000  N
  N8       1.0000 0.63020  0.43250  0.58430  Biso   1.000  N
  C1       1.0000 0.90750  0.69840  0.48220  Biso   1.000  C
  C2       1.0000 0.09250  0.19840  0.51780  Biso   1.000  C
  H5       1.0000 0.88460  0.66280  0.58080  Biso   1.000  H
  H6       1.0000 0.11540  0.16280  0.41920  Biso   1.000  H
  C3       1.0000 0.78600  0.67850  0.31620  Biso   1.000  C
  C4       1.0000 0.21400  0.17850  0.68380  Biso   1.000  C
  H7       1.0000 0.66200  0.62750  0.28040  Biso   1.000  H
  H8       1.0000 0.33800  0.12750  0.71960  Biso   1.000  H
  C5       1.0000 0.04980  0.80690  0.31170  Biso   1.000  C
  C6       1.0000 0.95020  0.30690  0.68830  Biso   1.000  C
  C7       1.0000 0.21340  0.89320  0.27660  Biso   1.000  C
  C8       1.0000 0.78660  0.39320  0.72340  Biso   1.000  C
  C9       1.0000 0.49900  0.00990  0.35430  Biso   1.000  C
  C10      1.0000 0.50100  0.50990  0.64570  Biso   1.000  C
  H9       1.0000 0.62760  0.05200  0.42050  Biso   1.000  H
  H10      1.0000 0.37240  0.55200  0.57950  Biso   1.000  H
  C11      1.0000 0.41000  0.01570  0.18100  Biso   1.000  C
  C12      1.0000 0.59000  0.51570  0.81900  Biso   1.000  C
  H11      1.0000 0.46060  0.06300  0.10760  Biso   1.000  H
  H12      1.0000 0.53940  0.56300  0.89240  Biso   1.000  H
