data_image0
_cell_length_a       9.752
_cell_length_b       9.894
_cell_length_c       11.685
_cell_angle_alpha    105.963
_cell_angle_beta     99.76
_cell_angle_gamma    98.062

_symmetry_space_group_name_H-M    "P 1"
_symmetry_int_tables_number       1

loop_
  _symmetry_equiv_pos_as_xyz
  'x, y, z'

loop_
  _atom_site_label
  _atom_site_occupancy
  _atom_site_fract_x
  _atom_site_fract_y
  _atom_site_fract_z
  _atom_site_thermal_displace_type
  _atom_site_B_iso_or_equiv
  _atom_site_type_symbol
  Cu1      1.0000 0.53017  0.74937  0.21936  Biso   1.000  Cu
  Cu2      1.0000 0.46983  0.25063  0.78064  Biso   1.000  Cu
  Cl1      1.0000 0.70712  0.65664  0.12999  Biso   1.000  Cl
  Cl2      1.0000 0.29288  0.34336  0.87001  Biso   1.000  Cl
  Cl3      1.0000 0.60472  0.01460  0.34671  Biso   1.000  Cl
  Cl4      1.0000 0.39528  0.98540  0.65329  Biso   1.000  Cl
  N1       1.0000 0.59500  0.69050  0.36530  Biso   1.000  N
  N2       1.0000 0.40500  0.30950  0.63470  Biso   1.000  N
  N3       1.0000 0.63300  0.68460  0.55410  Biso   1.000  N
  N4       1.0000 0.36700  0.31540  0.44590  Biso   1.000  N
  N5       1.0000 0.32580  0.90080  0.95700  Biso   1.000  N
  N6       1.0000 0.67420  0.09920  0.04300  Biso   1.000  N
  N7       1.0000 0.45210  0.79980  0.06930  Biso   1.000  N
  N8       1.0000 0.54790  0.20020  0.93070  Biso   1.000  N
  H1       1.0000 0.49510  0.78070  0.13190  Biso   1.000  H
  H2       1.0000 0.50490  0.21930  0.86810  Biso   1.000  H
  N9       1.0000 0.32020  0.70240  0.23510  Biso   1.000  N
  N10      1.0000 0.67980  0.29760  0.76490  Biso   1.000  N
  N11      1.0000 0.12340  0.70960  0.30280  Biso   1.000  N
  N12      1.0000 0.87660  0.29040  0.69720  Biso   1.000  N
  C1       1.0000 0.59100  0.75820  0.47870  Biso   1.000  C
  C2       1.0000 0.40900  0.24180  0.52130  Biso   1.000  C
  H3       1.0000 0.56270  0.84570  0.50300  Biso   1.000  H
  H4       1.0000 0.43730  0.15430  0.49700  Biso   1.000  H
  C3       1.0000 0.66680  0.56270  0.48530  Biso   1.000  C
  C4       1.0000 0.33320  0.43730  0.51470  Biso   1.000  C
  H5       1.0000 0.69990  0.49110  0.51290  Biso   1.000  H
  H6       1.0000 0.30010  0.50890  0.48710  Biso   1.000  H
  C5       1.0000 0.64250  0.56740  0.36940  Biso   1.000  C
  C6       1.0000 0.35750  0.43260  0.63060  Biso   1.000  C
  H7       1.0000 0.65580  0.49780  0.30260  Biso   1.000  H
  H8       1.0000 0.34420  0.50220  0.69740  Biso   1.000  H
  C7       1.0000 0.65070  0.73260  0.68710  Biso   1.000  C
  C8       1.0000 0.34930  0.26740  0.31290  Biso   1.000  C
  H9       1.0000 0.62150  0.65100  0.71420  Biso   1.000  H
  H10      1.0000 0.37850  0.34900  0.28580  Biso   1.000  H
  H11      1.0000 0.58960  0.80040  0.70900  Biso   1.000  H
  H12      1.0000 0.41040  0.19960  0.29100  Biso   1.000  H
  C9       1.0000 0.80230  0.80250  0.75170  Biso   1.000  C
  C10      1.0000 0.19770  0.19750  0.24830  Biso   1.000  C
  C11      1.0000 0.87600  0.75020  0.83640  Biso   1.000  C
  C12      1.0000 0.12400  0.24980  0.16360  Biso   1.000  C
  H13      1.0000 0.83110  0.67260  0.85550  Biso   1.000  H
  H14      1.0000 0.16890  0.32740  0.14450  Biso   1.000  H
  C13      1.0000 0.01650  0.81240  0.89330  Biso   1.000  C
  C14      1.0000 0.98350  0.18760  0.10670  Biso   1.000  C
  H15      1.0000 0.06450  0.77670  0.95070  Biso   1.000  H
  H16      1.0000 0.93550  0.22330  0.04930  Biso   1.000  H
  C15      1.0000 0.08570  0.92730  0.86520  Biso   1.000  C
  C16      1.0000 0.91430  0.07270  0.13480  Biso   1.000  C
  C17      1.0000 0.00990  0.98020  0.78170  Biso   1.000  C
  C18      1.0000 0.99010  0.01980  0.21830  Biso   1.000  C
  H17      1.0000 0.05450  0.05800  0.76260  Biso   1.000  H
  H18      1.0000 0.94550  0.94200  0.23740  Biso   1.000  H
  C19      1.0000 0.87070  0.92050  0.72660  Biso   1.000  C
  C20      1.0000 0.12930  0.07950  0.27340  Biso   1.000  C
  H19      1.0000 0.82160  0.95920  0.67200  Biso   1.000  H
  H20      1.0000 0.17840  0.04080  0.32800  Biso   1.000  H
  C21      1.0000 0.23880  0.99740  0.92230  Biso   1.000  C
  C22      1.0000 0.76120  0.00260  0.07770  Biso   1.000  C
  H21      1.0000 0.27900  0.03680  0.86510  Biso   1.000  H
  H22      1.0000 0.72100  0.96320  0.13490  Biso   1.000  H
  H23      1.0000 0.24250  0.07660  0.99420  Biso   1.000  H
  H24      1.0000 0.75750  0.92340  0.00580  Biso   1.000  H
  C23      1.0000 0.37700  0.89890  0.07020  Biso   1.000  C
  C24      1.0000 0.62300  0.10110  0.92980  Biso   1.000  C
  H25      1.0000 0.36090  0.96040  0.14050  Biso   1.000  H
  H26      1.0000 0.63910  0.03960  0.85950  Biso   1.000  H
  C25      1.0000 0.44950  0.73210  0.94970  Biso   1.000  C
  C26      1.0000 0.55050  0.26790  0.05030  Biso   1.000  C
  H27      1.0000 0.49370  0.65590  0.92160  Biso   1.000  H
  H28      1.0000 0.50630  0.34410  0.07840  Biso   1.000  H
  C27      1.0000 0.37190  0.79430  0.87920  Biso   1.000  C
  C28      1.0000 0.62810  0.20570  0.12080  Biso   1.000  C
  H29      1.0000 0.35350  0.76970  0.79450  Biso   1.000  H
  H30      1.0000 0.64650  0.23030  0.20550  Biso   1.000  H
  C29      1.0000 0.26500  0.74700  0.33170  Biso   1.000  C
  C30      1.0000 0.73500  0.25300  0.66830  Biso   1.000  C
  H31      1.0000 0.31810  0.79780  0.40970  Biso   1.000  H
  H32      1.0000 0.68190  0.20220  0.59030  Biso   1.000  H
  C31      1.0000 0.20610  0.63330  0.13970  Biso   1.000  C
  C32      1.0000 0.79390  0.36670  0.86030  Biso   1.000  C
  H33      1.0000 0.21170  0.59090  0.05950  Biso   1.000  H
  H34      1.0000 0.78830  0.40910  0.94050  Biso   1.000  H
  C33      1.0000 0.08420  0.63670  0.18080  Biso   1.000  C
  C34      1.0000 0.91580  0.36330  0.81920  Biso   1.000  C
  H35      1.0000 0.99230  0.59740  0.13510  Biso   1.000  H
  H36      1.0000 0.00770  0.40260  0.86490  Biso   1.000  H
  C35      1.0000 0.03090  0.73050  0.39060  Biso   1.000  C
  C36      1.0000 0.96910  0.26950  0.60940  Biso   1.000  C
  H37      1.0000 0.93790  0.73670  0.34960  Biso   1.000  H
  H38      1.0000 0.06210  0.26330  0.65040  Biso   1.000  H
  H39      1.0000 0.06980  0.82060  0.45480  Biso   1.000  H
  H40      1.0000 0.93020  0.17940  0.54520  Biso   1.000  H
  C37      1.0000 0.01550  0.61060  0.44680  Biso   1.000  C
  C38      1.0000 0.98450  0.38940  0.55320  Biso   1.000  C
  C39      1.0000 0.95830  0.47000  0.37520  Biso   1.000  C
  C40      1.0000 0.04170  0.53000  0.62480  Biso   1.000  C
  H41      1.0000 0.93040  0.44890  0.29100  Biso   1.000  H
  H42      1.0000 0.06960  0.55110  0.70900  Biso   1.000  H
  C41      1.0000 0.05730  0.63880  0.57220  Biso   1.000  C
  C42      1.0000 0.94270  0.36120  0.42780  Biso   1.000  C
  H43      1.0000 0.09630  0.73230  0.62130  Biso   1.000  H
  H44      1.0000 0.90370  0.26770  0.37870  Biso   1.000  H
