data_image0
_cell_length_a       11.767
_cell_length_b       7.418
_cell_length_c       33.87
_cell_angle_alpha    90
_cell_angle_beta     90
_cell_angle_gamma    90

_symmetry_space_group_name_H-M    "P 1"
_symmetry_int_tables_number       1

loop_
  _symmetry_equiv_pos_as_xyz
  'x, y, z'

loop_
  _atom_site_label
  _atom_site_occupancy
  _atom_site_fract_x
  _atom_site_fract_y
  _atom_site_fract_z
  _atom_site_thermal_displace_type
  _atom_site_B_iso_or_equiv
  _atom_site_type_symbol
  Cu1      1.0000 0.33425  0.09184  0.66722  Biso   1.000  Cu
  Cu2      1.0000 0.66575  0.90816  0.16722  Biso   1.000  Cu
  Cu3      1.0000 0.16575  0.09184  0.16722  Biso   1.000  Cu
  Cu4      1.0000 0.83425  0.90816  0.66722  Biso   1.000  Cu
  Cu5      1.0000 0.06807  0.58332  0.97296  Biso   1.000  Cu
  Cu6      1.0000 0.93193  0.41668  0.47296  Biso   1.000  Cu
  Cu7      1.0000 0.43193  0.58332  0.47296  Biso   1.000  Cu
  Cu8      1.0000 0.56807  0.41668  0.97296  Biso   1.000  Cu
  Br1      1.0000 0.07567  0.51639  0.82033  Biso   1.000  Br
  Br2      1.0000 0.92433  0.48361  0.32033  Biso   1.000  Br
  Br3      1.0000 0.42433  0.51639  0.32033  Biso   1.000  Br
  Br4      1.0000 0.57567  0.48361  0.82033  Biso   1.000  Br
  Br5      1.0000 0.82084  0.95860  0.82686  Biso   1.000  Br
  Br6      1.0000 0.17916  0.04140  0.32686  Biso   1.000  Br
  Br7      1.0000 0.67916  0.95860  0.32686  Biso   1.000  Br
  Br8      1.0000 0.32084  0.04140  0.82686  Biso   1.000  Br
  S1       1.0000 0.20441  0.88277  0.61383  Biso   1.000  S
  S2       1.0000 0.79559  0.11723  0.11383  Biso   1.000  S
  S3       1.0000 0.29559  0.88277  0.11383  Biso   1.000  S
  S4       1.0000 0.70441  0.11723  0.61383  Biso   1.000  S
  S5       1.0000 0.93749  0.37270  0.02598  Biso   1.000  S
  S6       1.0000 0.06251  0.62730  0.52598  Biso   1.000  S
  S7       1.0000 0.56251  0.37270  0.52598  Biso   1.000  S
  S8       1.0000 0.43749  0.62730  0.02598  Biso   1.000  S
  O1       1.0000 0.37300  0.90190  0.70337  Biso   1.000  O
  O2       1.0000 0.62700  0.09810  0.20337  Biso   1.000  O
  O3       1.0000 0.12700  0.90190  0.20337  Biso   1.000  O
  O4       1.0000 0.87300  0.09810  0.70337  Biso   1.000  O
  O5       1.0000 0.11100  0.39370  0.93729  Biso   1.000  O
  O6       1.0000 0.88900  0.60630  0.43729  Biso   1.000  O
  O7       1.0000 0.38900  0.39370  0.43729  Biso   1.000  O
  O8       1.0000 0.61100  0.60630  0.93729  Biso   1.000  O
  N1       1.0000 0.19760  0.15260  0.69653  Biso   1.000  N
  N2       1.0000 0.80240  0.84740  0.19653  Biso   1.000  N
  N3       1.0000 0.30240  0.15260  0.19653  Biso   1.000  N
  N4       1.0000 0.69760  0.84740  0.69653  Biso   1.000  N
  N5       1.0000 0.29800  0.32530  0.63632  Biso   1.000  N
  N6       1.0000 0.70200  0.67470  0.13632  Biso   1.000  N
  N7       1.0000 0.20200  0.32530  0.13632  Biso   1.000  N
  N8       1.0000 0.79800  0.67470  0.63632  Biso   1.000  N
  N9       1.0000 0.98500  0.92420  0.64335  Biso   1.000  N
  N10      1.0000 0.01500  0.07580  0.14335  Biso   1.000  N
  N11      1.0000 0.51500  0.92420  0.14335  Biso   1.000  N
  N12      1.0000 0.48500  0.07580  0.64335  Biso   1.000  N
  N13      1.0000 0.93100  0.63430  0.94268  Biso   1.000  N
  N14      1.0000 0.06900  0.36570  0.44268  Biso   1.000  N
  N15      1.0000 0.56900  0.63430  0.44268  Biso   1.000  N
  N16      1.0000 0.43100  0.36570  0.94268  Biso   1.000  N
  N17      1.0000 0.02900  0.81610  0.00366  Biso   1.000  N
  N18      1.0000 0.97100  0.18390  0.50366  Biso   1.000  N
  N19      1.0000 0.47100  0.81610  0.50366  Biso   1.000  N
  N20      1.0000 0.52900  0.18390  0.00366  Biso   1.000  N
  N21      1.0000 0.71950  0.42810  0.99760  Biso   1.000  N
  N22      1.0000 0.28050  0.57190  0.49760  Biso   1.000  N
  N23      1.0000 0.78050  0.42810  0.49760  Biso   1.000  N
  N24      1.0000 0.21950  0.57190  0.99760  Biso   1.000  N
  C1       1.0000 0.19200  0.88160  0.73626  Biso   1.000  C
  C2       1.0000 0.80800  0.11840  0.23626  Biso   1.000  C
  C3       1.0000 0.30800  0.88160  0.23626  Biso   1.000  C
  C4       1.0000 0.69200  0.11840  0.73626  Biso   1.000  C
  C5       1.0000 0.30360  0.82210  0.72835  Biso   1.000  C
  C6       1.0000 0.69640  0.17790  0.22835  Biso   1.000  C
  C7       1.0000 0.19640  0.82210  0.22835  Biso   1.000  C
  C8       1.0000 0.80360  0.17790  0.72835  Biso   1.000  C
  C9       1.0000 0.34320  0.67410  0.74964  Biso   1.000  C
  C10      1.0000 0.65680  0.32590  0.24964  Biso   1.000  C
  C11      1.0000 0.15680  0.67410  0.24964  Biso   1.000  C
  C12      1.0000 0.84320  0.32590  0.74964  Biso   1.000  C
  H1       1.0000 0.41740  0.63500  0.74560  Biso   1.000  H
  H2       1.0000 0.58260  0.36500  0.24560  Biso   1.000  H
  H3       1.0000 0.08260  0.63500  0.24560  Biso   1.000  H
  H4       1.0000 0.91740  0.36500  0.74560  Biso   1.000  H
  C13      1.0000 0.27690  0.58430  0.77633  Biso   1.000  C
  C14      1.0000 0.72310  0.41570  0.27633  Biso   1.000  C
  C15      1.0000 0.22310  0.58430  0.27633  Biso   1.000  C
  C16      1.0000 0.77690  0.41570  0.77633  Biso   1.000  C
  H5       1.0000 0.30620  0.48720  0.79040  Biso   1.000  H
  H6       1.0000 0.69380  0.51280  0.29040  Biso   1.000  H
  H7       1.0000 0.19380  0.48720  0.29040  Biso   1.000  H
  H8       1.0000 0.80620  0.51280  0.79040  Biso   1.000  H
  C17      1.0000 0.16420  0.63980  0.78237  Biso   1.000  C
  C18      1.0000 0.83580  0.36020  0.28237  Biso   1.000  C
  C19      1.0000 0.33580  0.63980  0.28237  Biso   1.000  C
  C20      1.0000 0.66420  0.36020  0.78237  Biso   1.000  C
  C21      1.0000 0.12320  0.78710  0.76302  Biso   1.000  C
  C22      1.0000 0.87680  0.21290  0.26302  Biso   1.000  C
  C23      1.0000 0.37680  0.78710  0.26302  Biso   1.000  C
  C24      1.0000 0.62320  0.21290  0.76302  Biso   1.000  C
  H9       1.0000 0.04910  0.82530  0.76760  Biso   1.000  H
  H10      1.0000 0.95090  0.17470  0.26760  Biso   1.000  H
  H11      1.0000 0.45090  0.82530  0.26760  Biso   1.000  H
  H12      1.0000 0.54910  0.17470  0.76760  Biso   1.000  H
  C25      1.0000 0.14610  0.04700  0.72063  Biso   1.000  C
  C26      1.0000 0.85390  0.95300  0.22063  Biso   1.000  C
  C27      1.0000 0.35390  0.04700  0.22063  Biso   1.000  C
  C28      1.0000 0.64610  0.95300  0.72063  Biso   1.000  C
  H13      1.0000 0.07340  0.07980  0.72860  Biso   1.000  H
  H14      1.0000 0.92660  0.92020  0.22860  Biso   1.000  H
  H15      1.0000 0.42660  0.07980  0.22860  Biso   1.000  H
  H16      1.0000 0.57340  0.92020  0.72860  Biso   1.000  H
  C29      1.0000 0.14300  0.31950  0.68465  Biso   1.000  C
  C30      1.0000 0.85700  0.68050  0.18465  Biso   1.000  C
  C31      1.0000 0.35700  0.31950  0.18465  Biso   1.000  C
  C32      1.0000 0.64300  0.68050  0.68465  Biso   1.000  C
  H17      1.0000 0.16770  0.41740  0.70160  Biso   1.000  H
  H18      1.0000 0.83230  0.58260  0.20160  Biso   1.000  H
  H19      1.0000 0.33230  0.41740  0.20160  Biso   1.000  H
  H20      1.0000 0.66770  0.58260  0.70160  Biso   1.000  H
  H21      1.0000 0.06120  0.30800  0.68700  Biso   1.000  H
  H22      1.0000 0.93880  0.69200  0.18700  Biso   1.000  H
  H23      1.0000 0.43880  0.30800  0.18700  Biso   1.000  H
  H24      1.0000 0.56120  0.69200  0.68700  Biso   1.000  H
  C33      1.0000 0.17500  0.35880  0.64241  Biso   1.000  C
  C34      1.0000 0.82500  0.64120  0.14241  Biso   1.000  C
  C35      1.0000 0.32500  0.35880  0.14241  Biso   1.000  C
  C36      1.0000 0.67500  0.64120  0.64241  Biso   1.000  C
  H25      1.0000 0.13120  0.28240  0.62480  Biso   1.000  H
  H26      1.0000 0.86880  0.71760  0.12480  Biso   1.000  H
  H27      1.0000 0.36880  0.28240  0.12480  Biso   1.000  H
  H28      1.0000 0.63120  0.71760  0.62480  Biso   1.000  H
  H29      1.0000 0.15750  0.48340  0.63620  Biso   1.000  H
  H30      1.0000 0.84250  0.51660  0.13620  Biso   1.000  H
  H31      1.0000 0.34250  0.48340  0.13620  Biso   1.000  H
  H32      1.0000 0.65750  0.51660  0.63620  Biso   1.000  H
  C37      1.0000 0.32140  0.32430  0.59389  Biso   1.000  C
  C38      1.0000 0.67860  0.67570  0.09389  Biso   1.000  C
  C39      1.0000 0.17860  0.32430  0.09389  Biso   1.000  C
  C40      1.0000 0.82140  0.67570  0.59389  Biso   1.000  C
  H33      1.0000 0.27390  0.23650  0.58120  Biso   1.000  H
  H34      1.0000 0.72610  0.76350  0.08120  Biso   1.000  H
  H35      1.0000 0.22610  0.23650  0.08120  Biso   1.000  H
  H36      1.0000 0.77390  0.76350  0.58120  Biso   1.000  H
  H37      1.0000 0.39980  0.29440  0.58950  Biso   1.000  H
  H38      1.0000 0.60020  0.70560  0.08950  Biso   1.000  H
  H39      1.0000 0.10020  0.29440  0.08950  Biso   1.000  H
  H40      1.0000 0.89980  0.70560  0.58950  Biso   1.000  H
  H41      1.0000 0.30590  0.44150  0.58310  Biso   1.000  H
  H42      1.0000 0.69410  0.55850  0.08310  Biso   1.000  H
  H43      1.0000 0.19410  0.44150  0.08310  Biso   1.000  H
  H44      1.0000 0.80590  0.55850  0.58310  Biso   1.000  H
  C41      1.0000 0.36760  0.46880  0.65550  Biso   1.000  C
  C42      1.0000 0.63240  0.53120  0.15550  Biso   1.000  C
  C43      1.0000 0.13240  0.46880  0.15550  Biso   1.000  C
  C44      1.0000 0.86760  0.53120  0.65550  Biso   1.000  C
  H45      1.0000 0.34830  0.58390  0.64440  Biso   1.000  H
  H46      1.0000 0.65170  0.41610  0.14440  Biso   1.000  H
  H47      1.0000 0.15170  0.58390  0.14440  Biso   1.000  H
  H48      1.0000 0.84830  0.41610  0.64440  Biso   1.000  H
  H49      1.0000 0.44680  0.44490  0.65110  Biso   1.000  H
  H50      1.0000 0.55320  0.55510  0.15110  Biso   1.000  H
  H51      1.0000 0.05320  0.44490  0.15110  Biso   1.000  H
  H52      1.0000 0.94680  0.55510  0.65110  Biso   1.000  H
  H53      1.0000 0.35260  0.47000  0.68340  Biso   1.000  H
  H54      1.0000 0.64740  0.53000  0.18340  Biso   1.000  H
  H55      1.0000 0.14740  0.47000  0.18340  Biso   1.000  H
  H56      1.0000 0.85260  0.53000  0.68340  Biso   1.000  H
  C45      1.0000 0.07560  0.90730  0.63116  Biso   1.000  C
  C46      1.0000 0.92440  0.09270  0.13116  Biso   1.000  C
  C47      1.0000 0.42440  0.90730  0.13116  Biso   1.000  C
  C48      1.0000 0.57560  0.09270  0.63116  Biso   1.000  C
  C49      1.0000 0.93110  0.36270  0.90387  Biso   1.000  C
  C50      1.0000 0.06890  0.63730  0.40387  Biso   1.000  C
  C51      1.0000 0.56890  0.36270  0.40387  Biso   1.000  C
  C52      1.0000 0.43110  0.63730  0.90387  Biso   1.000  C
  C53      1.0000 0.04390  0.30880  0.91264  Biso   1.000  C
  C54      1.0000 0.95610  0.69120  0.41264  Biso   1.000  C
  C55      1.0000 0.45610  0.30880  0.41264  Biso   1.000  C
  C56      1.0000 0.54390  0.69120  0.91264  Biso   1.000  C
  C57      1.0000 0.08720  0.15560  0.89327  Biso   1.000  C
  C58      1.0000 0.91280  0.84440  0.39327  Biso   1.000  C
  C59      1.0000 0.41280  0.15560  0.39327  Biso   1.000  C
  C60      1.0000 0.58720  0.84440  0.89327  Biso   1.000  C
  H57      1.0000 0.16220  0.12150  0.89760  Biso   1.000  H
  H58      1.0000 0.83780  0.87850  0.39760  Biso   1.000  H
  H59      1.0000 0.33780  0.12150  0.39760  Biso   1.000  H
  H60      1.0000 0.66220  0.87850  0.89760  Biso   1.000  H
  C61      1.0000 0.02120  0.05610  0.86824  Biso   1.000  C
  C62      1.0000 0.97880  0.94390  0.36824  Biso   1.000  C
  C63      1.0000 0.47880  0.05610  0.36824  Biso   1.000  C
  C64      1.0000 0.52120  0.94390  0.86824  Biso   1.000  C
  H61      1.0000 0.05110  0.95430  0.85610  Biso   1.000  H
  H62      1.0000 0.94890  0.04570  0.35610  Biso   1.000  H
  H63      1.0000 0.44890  0.95430  0.35610  Biso   1.000  H
  H64      1.0000 0.55110  0.04570  0.85610  Biso   1.000  H
  C65      1.0000 0.90880  0.10680  0.86090  Biso   1.000  C
  C66      1.0000 0.09120  0.89320  0.36090  Biso   1.000  C
  C67      1.0000 0.59120  0.10680  0.36090  Biso   1.000  C
  C68      1.0000 0.40880  0.89320  0.86090  Biso   1.000  C
  C69      1.0000 0.86470  0.25650  0.87778  Biso   1.000  C
  C70      1.0000 0.13530  0.74350  0.37778  Biso   1.000  C
  C71      1.0000 0.63530  0.25650  0.37778  Biso   1.000  C
  C72      1.0000 0.36470  0.74350  0.87778  Biso   1.000  C
  H65      1.0000 0.79020  0.29000  0.87220  Biso   1.000  H
  H66      1.0000 0.20980  0.71000  0.37220  Biso   1.000  H
  H67      1.0000 0.70980  0.29000  0.37220  Biso   1.000  H
  H68      1.0000 0.29020  0.71000  0.87220  Biso   1.000  H
  C73      1.0000 0.88320  0.52820  0.91865  Biso   1.000  C
  C74      1.0000 0.11680  0.47180  0.41865  Biso   1.000  C
  C75      1.0000 0.61680  0.52820  0.41865  Biso   1.000  C
  C76      1.0000 0.38320  0.47180  0.91865  Biso   1.000  C
  H69      1.0000 0.81100  0.55960  0.90980  Biso   1.000  H
  H70      1.0000 0.18900  0.44040  0.40980  Biso   1.000  H
  H71      1.0000 0.68900  0.55960  0.40980  Biso   1.000  H
  H72      1.0000 0.31100  0.44040  0.90980  Biso   1.000  H
  C77      1.0000 0.87330  0.80410  0.95454  Biso   1.000  C
  C78      1.0000 0.12670  0.19590  0.45454  Biso   1.000  C
  C79      1.0000 0.62670  0.80410  0.45454  Biso   1.000  C
  C80      1.0000 0.37330  0.19590  0.95454  Biso   1.000  C
  H73      1.0000 0.79160  0.79050  0.95220  Biso   1.000  H
  H74      1.0000 0.20840  0.20950  0.45220  Biso   1.000  H
  H75      1.0000 0.70840  0.79050  0.45220  Biso   1.000  H
  H76      1.0000 0.29160  0.20950  0.95220  Biso   1.000  H
  H77      1.0000 0.89710  0.90210  0.93750  Biso   1.000  H
  H78      1.0000 0.10290  0.09790  0.43750  Biso   1.000  H
  H79      1.0000 0.60290  0.90210  0.43750  Biso   1.000  H
  H80      1.0000 0.39710  0.09790  0.93750  Biso   1.000  H
  C81      1.0000 0.90480  0.84490  0.99657  Biso   1.000  C
  C82      1.0000 0.09520  0.15510  0.49657  Biso   1.000  C
  C83      1.0000 0.59520  0.84490  0.49657  Biso   1.000  C
  C84      1.0000 0.40480  0.15510  0.99657  Biso   1.000  C
  H81      1.0000 0.88540  0.96900  0.00260  Biso   1.000  H
  H82      1.0000 0.11460  0.03100  0.50260  Biso   1.000  H
  H83      1.0000 0.61460  0.96900  0.50260  Biso   1.000  H
  H84      1.0000 0.38540  0.03100  0.00260  Biso   1.000  H
  H85      1.0000 0.86150  0.76760  0.01410  Biso   1.000  H
  H86      1.0000 0.13850  0.23240  0.51410  Biso   1.000  H
  H87      1.0000 0.63850  0.76760  0.51410  Biso   1.000  H
  H88      1.0000 0.36150  0.23240  0.01410  Biso   1.000  H
  C85      1.0000 0.04890  0.81380  0.04632  Biso   1.000  C
  C86      1.0000 0.95110  0.18620  0.54632  Biso   1.000  C
  C87      1.0000 0.45110  0.81380  0.54632  Biso   1.000  C
  C88      1.0000 0.54890  0.18620  0.04632  Biso   1.000  C
  H89      1.0000 0.12880  0.80130  0.05140  Biso   1.000  H
  H90      1.0000 0.87120  0.19870  0.55140  Biso   1.000  H
  H91      1.0000 0.37120  0.80130  0.55140  Biso   1.000  H
  H92      1.0000 0.62880  0.19870  0.05140  Biso   1.000  H
  H93      1.0000 0.00890  0.71420  0.05790  Biso   1.000  H
  H94      1.0000 0.99110  0.28580  0.55790  Biso   1.000  H
  H95      1.0000 0.49110  0.71420  0.55790  Biso   1.000  H
  H96      1.0000 0.50890  0.28580  0.05790  Biso   1.000  H
  H97      1.0000 0.02210  0.92450  0.05770  Biso   1.000  H
  H98      1.0000 0.97790  0.07550  0.55770  Biso   1.000  H
  H99      1.0000 0.47790  0.92450  0.55770  Biso   1.000  H
  H100     1.0000 0.52210  0.07550  0.05770  Biso   1.000  H
  C89      1.0000 0.09800  0.95910  0.98450  Biso   1.000  C
  C90      1.0000 0.90200  0.04090  0.48450  Biso   1.000  C
  C91      1.0000 0.40200  0.95910  0.48450  Biso   1.000  C
  C92      1.0000 0.59800  0.04090  0.98450  Biso   1.000  C
  H101     1.0000 0.09160  0.06870  0.99940  Biso   1.000  H
  H102     1.0000 0.90840  0.93130  0.49940  Biso   1.000  H
  H103     1.0000 0.40840  0.06870  0.49940  Biso   1.000  H
  H104     1.0000 0.59160  0.93130  0.99940  Biso   1.000  H
  H105     1.0000 0.07080  0.97880  0.95820  Biso   1.000  H
  H106     1.0000 0.92920  0.02120  0.45820  Biso   1.000  H
  H107     1.0000 0.42920  0.97880  0.45820  Biso   1.000  H
  H108     1.0000 0.57080  0.02120  0.95820  Biso   1.000  H
  H109     1.0000 0.17610  0.92210  0.98360  Biso   1.000  H
  H110     1.0000 0.82390  0.07790  0.48360  Biso   1.000  H
  H111     1.0000 0.32390  0.92210  0.48360  Biso   1.000  H
  H112     1.0000 0.67610  0.07790  0.98360  Biso   1.000  H
  C93      1.0000 0.80860  0.40180  0.00904  Biso   1.000  C
  C94      1.0000 0.19140  0.59820  0.50904  Biso   1.000  C
  C95      1.0000 0.69140  0.40180  0.50904  Biso   1.000  C
  C96      1.0000 0.30860  0.59820  0.00904  Biso   1.000  C
