data_image0
_cell_length_a       10.499
_cell_length_b       12.208
_cell_length_c       11.886
_cell_angle_alpha    90
_cell_angle_beta     90
_cell_angle_gamma    90

_symmetry_space_group_name_H-M    "P 1"
_symmetry_int_tables_number       1

loop_
  _symmetry_equiv_pos_as_xyz
  'x, y, z'

loop_
  _atom_site_label
  _atom_site_occupancy
  _atom_site_fract_x
  _atom_site_fract_y
  _atom_site_fract_z
  _atom_site_thermal_displace_type
  _atom_site_B_iso_or_equiv
  _atom_site_type_symbol
  Cu1      1.0000 0.68884  0.68029  0.00370  Biso   1.000  Cu
  Cu2      1.0000 0.31116  0.31971  0.50370  Biso   1.000  Cu
  Cu3      1.0000 0.81116  0.18029  0.50370  Biso   1.000  Cu
  Cu4      1.0000 0.18884  0.81971  0.00370  Biso   1.000  Cu
  Cl1      1.0000 0.67218  0.05098  0.87564  Biso   1.000  Cl
  Cl2      1.0000 0.32782  0.94902  0.37564  Biso   1.000  Cl
  Cl3      1.0000 0.82782  0.55098  0.37564  Biso   1.000  Cl
  Cl4      1.0000 0.17218  0.44902  0.87564  Biso   1.000  Cl
  Cl5      1.0000 0.21788  0.98168  0.68315  Biso   1.000  Cl
  Cl6      1.0000 0.78212  0.01832  0.18315  Biso   1.000  Cl
  Cl7      1.0000 0.28212  0.48168  0.18315  Biso   1.000  Cl
  Cl8      1.0000 0.71788  0.51832  0.68315  Biso   1.000  Cl
  S1       1.0000 0.54785  0.68990  0.20265  Biso   1.000  S
  S2       1.0000 0.45215  0.31010  0.70265  Biso   1.000  S
  S3       1.0000 0.95215  0.18990  0.70265  Biso   1.000  S
  S4       1.0000 0.04785  0.81010  0.20265  Biso   1.000  S
  O1       1.0000 0.65940  0.82140  0.93480  Biso   1.000  O
  O2       1.0000 0.34060  0.17860  0.43480  Biso   1.000  O
  O3       1.0000 0.84060  0.32140  0.43480  Biso   1.000  O
  O4       1.0000 0.15940  0.67860  0.93480  Biso   1.000  O
  N1       1.0000 0.54570  0.61550  0.92280  Biso   1.000  N
  N2       1.0000 0.45430  0.38450  0.42280  Biso   1.000  N
  N3       1.0000 0.95430  0.11550  0.42280  Biso   1.000  N
  N4       1.0000 0.04570  0.88450  0.92280  Biso   1.000  N
  N5       1.0000 0.73930  0.52060  0.02030  Biso   1.000  N
  N6       1.0000 0.26070  0.47940  0.52030  Biso   1.000  N
  N7       1.0000 0.76070  0.02060  0.52030  Biso   1.000  N
  N8       1.0000 0.23930  0.97940  0.02030  Biso   1.000  N
  N9       1.0000 0.33500  0.76540  0.08730  Biso   1.000  N
  N10      1.0000 0.66500  0.23460  0.58730  Biso   1.000  N
  N11      1.0000 0.16500  0.26540  0.58730  Biso   1.000  N
  N12      1.0000 0.83500  0.73460  0.08730  Biso   1.000  N
  C1       1.0000 0.46400  0.78090  0.83740  Biso   1.000  C
  C2       1.0000 0.53600  0.21910  0.33740  Biso   1.000  C
  C3       1.0000 0.03600  0.28090  0.33740  Biso   1.000  C
  C4       1.0000 0.96400  0.71910  0.83740  Biso   1.000  C
  C5       1.0000 0.56310  0.85050  0.87590  Biso   1.000  C
  C6       1.0000 0.43690  0.14950  0.37590  Biso   1.000  C
  C7       1.0000 0.93690  0.35050  0.37590  Biso   1.000  C
  C8       1.0000 0.06310  0.64950  0.87590  Biso   1.000  C
  C9       1.0000 0.55000  0.96220  0.84120  Biso   1.000  C
  C10      1.0000 0.45000  0.03780  0.34120  Biso   1.000  C
  C11      1.0000 0.95000  0.46220  0.34120  Biso   1.000  C
  C12      1.0000 0.05000  0.53780  0.84120  Biso   1.000  C
  C13      1.0000 0.44720  0.00150  0.78330  Biso   1.000  C
  C14      1.0000 0.55280  0.99850  0.28330  Biso   1.000  C
  C15      1.0000 0.05280  0.50150  0.28330  Biso   1.000  C
  C16      1.0000 0.94720  0.49850  0.78330  Biso   1.000  C
  H1       1.0000 0.44180  0.07530  0.76480  Biso   1.000  H
  H2       1.0000 0.55820  0.92470  0.26480  Biso   1.000  H
  H3       1.0000 0.05820  0.57530  0.26480  Biso   1.000  H
  H4       1.0000 0.94180  0.42470  0.76480  Biso   1.000  H
  C17      1.0000 0.35090  0.92960  0.75270  Biso   1.000  C
  C18      1.0000 0.64910  0.07040  0.25270  Biso   1.000  C
  C19      1.0000 0.14910  0.42960  0.25270  Biso   1.000  C
  C20      1.0000 0.85090  0.57040  0.75270  Biso   1.000  C
  C21      1.0000 0.35940  0.82190  0.77710  Biso   1.000  C
  C22      1.0000 0.64060  0.17810  0.27710  Biso   1.000  C
  C23      1.0000 0.14060  0.32190  0.27710  Biso   1.000  C
  C24      1.0000 0.85940  0.67810  0.77710  Biso   1.000  C
  H5       1.0000 0.29530  0.77440  0.75380  Biso   1.000  H
  H6       1.0000 0.70470  0.22560  0.25380  Biso   1.000  H
  H7       1.0000 0.20470  0.27440  0.25380  Biso   1.000  H
  H8       1.0000 0.79530  0.72560  0.75380  Biso   1.000  H
  C25      1.0000 0.46390  0.66590  0.86290  Biso   1.000  C
  C26      1.0000 0.53610  0.33410  0.36290  Biso   1.000  C
  C27      1.0000 0.03610  0.16590  0.36290  Biso   1.000  C
  C28      1.0000 0.96390  0.83410  0.86290  Biso   1.000  C
  H9       1.0000 0.39790  0.62440  0.83290  Biso   1.000  H
  H10      1.0000 0.60210  0.37560  0.33290  Biso   1.000  H
  H11      1.0000 0.10210  0.12440  0.33290  Biso   1.000  H
  H12      1.0000 0.89790  0.87560  0.83290  Biso   1.000  H
  C29      1.0000 0.52990  0.49840  0.94180  Biso   1.000  C
  C30      1.0000 0.47010  0.50160  0.44180  Biso   1.000  C
  C31      1.0000 0.97010  0.99840  0.44180  Biso   1.000  C
  C32      1.0000 0.02990  0.00160  0.94180  Biso   1.000  C
  H13      1.0000 0.50190  0.46320  0.87300  Biso   1.000  H
  H14      1.0000 0.49810  0.53680  0.37300  Biso   1.000  H
  H15      1.0000 0.99810  0.96320  0.37300  Biso   1.000  H
  H16      1.0000 0.00190  0.03680  0.87300  Biso   1.000  H
  H17      1.0000 0.46560  0.48620  0.99910  Biso   1.000  H
  H18      1.0000 0.53440  0.51380  0.49910  Biso   1.000  H
  H19      1.0000 0.03440  0.98620  0.49910  Biso   1.000  H
  H20      1.0000 0.96560  0.01380  0.99910  Biso   1.000  H
  C33      1.0000 0.65330  0.45030  0.97880  Biso   1.000  C
  C34      1.0000 0.34670  0.54970  0.47880  Biso   1.000  C
  C35      1.0000 0.84670  0.95030  0.47880  Biso   1.000  C
  C36      1.0000 0.15330  0.04970  0.97880  Biso   1.000  C
  C37      1.0000 0.67770  0.33890  0.97410  Biso   1.000  C
  C38      1.0000 0.32230  0.66110  0.47410  Biso   1.000  C
  C39      1.0000 0.82230  0.83890  0.47410  Biso   1.000  C
  C40      1.0000 0.17770  0.16110  0.97410  Biso   1.000  C
  H21      1.0000 0.61800  0.29090  0.94390  Biso   1.000  H
  H22      1.0000 0.38200  0.70910  0.44390  Biso   1.000  H
  H23      1.0000 0.88200  0.79090  0.44390  Biso   1.000  H
  H24      1.0000 0.11800  0.20910  0.94390  Biso   1.000  H
  C41      1.0000 0.79260  0.30040  0.01520  Biso   1.000  C
  C42      1.0000 0.20740  0.69960  0.51520  Biso   1.000  C
  C43      1.0000 0.70740  0.80040  0.51520  Biso   1.000  C
  C44      1.0000 0.29260  0.19960  0.01520  Biso   1.000  C
  H25      1.0000 0.81040  0.22580  0.01420  Biso   1.000  H
  H26      1.0000 0.18960  0.77420  0.51420  Biso   1.000  H
  H27      1.0000 0.68960  0.72580  0.51420  Biso   1.000  H
  H28      1.0000 0.31040  0.27420  0.01420  Biso   1.000  H
  C45      1.0000 0.87910  0.37220  0.05710  Biso   1.000  C
  C46      1.0000 0.12090  0.62780  0.55710  Biso   1.000  C
  C47      1.0000 0.62090  0.87220  0.55710  Biso   1.000  C
  C48      1.0000 0.37910  0.12780  0.05710  Biso   1.000  C
  H29      1.0000 0.95680  0.34750  0.08490  Biso   1.000  H
  H30      1.0000 0.04320  0.65250  0.58490  Biso   1.000  H
  H31      1.0000 0.54320  0.84750  0.58490  Biso   1.000  H
  H32      1.0000 0.45680  0.15250  0.08490  Biso   1.000  H
  C49      1.0000 0.85030  0.48200  0.05790  Biso   1.000  C
  C50      1.0000 0.14970  0.51800  0.55790  Biso   1.000  C
  C51      1.0000 0.64970  0.98200  0.55790  Biso   1.000  C
  C52      1.0000 0.35030  0.01800  0.05790  Biso   1.000  C
  H33      1.0000 0.91030  0.53110  0.08560  Biso   1.000  H
  H34      1.0000 0.08970  0.46890  0.58560  Biso   1.000  H
  H35      1.0000 0.58970  0.03110  0.58560  Biso   1.000  H
  H36      1.0000 0.41030  0.96890  0.08560  Biso   1.000  H
  C53      1.0000 0.42180  0.73390  0.13690  Biso   1.000  C
  C54      1.0000 0.57820  0.26610  0.63690  Biso   1.000  C
  C55      1.0000 0.07820  0.23390  0.63690  Biso   1.000  C
  C56      1.0000 0.92180  0.76610  0.13690  Biso   1.000  C
