data_image0
_cell_length_a       7.4257
_cell_length_b       17.214
_cell_length_c       12.028
_cell_angle_alpha    90
_cell_angle_beta     106.863
_cell_angle_gamma    90

_symmetry_space_group_name_H-M    "P 1"
_symmetry_int_tables_number       1

loop_
  _symmetry_equiv_pos_as_xyz
  'x, y, z'

loop_
  _atom_site_label
  _atom_site_occupancy
  _atom_site_fract_x
  _atom_site_fract_y
  _atom_site_fract_z
  _atom_site_thermal_displace_type
  _atom_site_B_iso_or_equiv
  _atom_site_type_symbol
  Cu1      1.0000 0.59406  0.22835  0.29368  Biso   1.000  Cu
  Cu2      1.0000 0.40594  0.72835  0.20632  Biso   1.000  Cu
  Cu3      1.0000 0.40594  0.77165  0.70632  Biso   1.000  Cu
  Cu4      1.0000 0.59406  0.27165  0.79368  Biso   1.000  Cu
  O1       1.0000 0.60990  0.33780  0.33690  Biso   1.000  O
  O2       1.0000 0.39010  0.83780  0.16310  Biso   1.000  O
  O3       1.0000 0.39010  0.66220  0.66310  Biso   1.000  O
  O4       1.0000 0.60990  0.16220  0.83690  Biso   1.000  O
  O5       1.0000 0.79360  0.29760  0.50560  Biso   1.000  O
  O6       1.0000 0.20640  0.79760  0.99440  Biso   1.000  O
  O7       1.0000 0.20640  0.70240  0.49440  Biso   1.000  O
  O8       1.0000 0.79360  0.20240  0.00560  Biso   1.000  O
  O9       1.0000 0.45770  0.62310  0.27560  Biso   1.000  O
  O10      1.0000 0.54230  0.12310  0.22440  Biso   1.000  O
  O11      1.0000 0.54230  0.37690  0.72440  Biso   1.000  O
  O12      1.0000 0.45770  0.87690  0.77560  Biso   1.000  O
  O13      1.0000 0.62040  0.70530  0.40740  Biso   1.000  O
  O14      1.0000 0.37960  0.20530  0.09260  Biso   1.000  O
  O15      1.0000 0.37960  0.29470  0.59260  Biso   1.000  O
  O16      1.0000 0.62040  0.79470  0.90740  Biso   1.000  O
  O17      1.0000 0.89120  0.50680  0.84840  Biso   1.000  O
  O18      1.0000 0.10880  0.00680  0.65160  Biso   1.000  O
  O19      1.0000 0.10880  0.49320  0.15160  Biso   1.000  O
  O20      1.0000 0.89120  0.99320  0.34840  Biso   1.000  O
  O21      1.0000 0.18000  0.51140  0.79960  Biso   1.000  O
  O22      1.0000 0.82000  0.01140  0.70040  Biso   1.000  O
  O23      1.0000 0.82000  0.48860  0.20040  Biso   1.000  O
  O24      1.0000 0.18000  0.98860  0.29960  Biso   1.000  O
  O25      1.0000 0.99620  0.62930  0.79300  Biso   1.000  O
  O26      1.0000 0.00380  0.12930  0.70700  Biso   1.000  O
  O27      1.0000 0.00380  0.37070  0.20700  Biso   1.000  O
  O28      1.0000 0.99620  0.87070  0.29300  Biso   1.000  O
  O29      1.0000 0.79920  0.24360  0.22200  Biso   1.000  O
  O30      1.0000 0.20080  0.74360  0.27800  Biso   1.000  O
  O31      1.0000 0.20080  0.75640  0.77800  Biso   1.000  O
  O32      1.0000 0.79920  0.25640  0.72200  Biso   1.000  O
  H1       1.0000 0.85000  0.29080  0.21900  Biso   1.000  H
  H2       1.0000 0.15000  0.79080  0.28100  Biso   1.000  H
  H3       1.0000 0.15000  0.70920  0.78100  Biso   1.000  H
  H4       1.0000 0.85000  0.20920  0.71900  Biso   1.000  H
  H5       1.0000 0.78500  0.22100  0.15300  Biso   1.000  H
  H6       1.0000 0.21500  0.72100  0.34700  Biso   1.000  H
  H7       1.0000 0.21500  0.77900  0.84700  Biso   1.000  H
  H8       1.0000 0.78500  0.27900  0.65300  Biso   1.000  H
  N1       1.0000 0.44580  0.19990  0.40320  Biso   1.000  N
  N2       1.0000 0.55420  0.69990  0.09680  Biso   1.000  N
  N3       1.0000 0.55420  0.80010  0.59680  Biso   1.000  N
  N4       1.0000 0.44580  0.30010  0.90320  Biso   1.000  N
  H9       1.0000 0.43300  0.24000  0.45200  Biso   1.000  H
  H10      1.0000 0.56700  0.74000  0.04800  Biso   1.000  H
  H11      1.0000 0.56700  0.76000  0.54800  Biso   1.000  H
  H12      1.0000 0.43300  0.26000  0.95200  Biso   1.000  H
  N5       1.0000 0.22860  0.08980  0.49260  Biso   1.000  N
  N6       1.0000 0.77140  0.58980  0.00740  Biso   1.000  N
  N7       1.0000 0.77140  0.91020  0.50740  Biso   1.000  N
  N8       1.0000 0.22860  0.41020  0.99260  Biso   1.000  N
  H13      1.0000 0.15700  0.07300  0.54000  Biso   1.000  H
  H14      1.0000 0.84300  0.57300  0.96000  Biso   1.000  H
  H15      1.0000 0.84300  0.92700  0.46000  Biso   1.000  H
  H16      1.0000 0.15700  0.42700  0.04000  Biso   1.000  H
  H17      1.0000 0.21400  0.05000  0.43900  Biso   1.000  H
  H18      1.0000 0.78600  0.55000  0.06100  Biso   1.000  H
  H19      1.0000 0.78600  0.95000  0.56100  Biso   1.000  H
  H20      1.0000 0.21400  0.45000  0.93900  Biso   1.000  H
  C1       1.0000 0.73650  0.43410  0.48040  Biso   1.000  C
  C2       1.0000 0.26350  0.93410  0.01960  Biso   1.000  C
  C3       1.0000 0.26350  0.56590  0.51960  Biso   1.000  C
  C4       1.0000 0.73650  0.06590  0.98040  Biso   1.000  C
  C5       1.0000 0.64510  0.49410  0.40710  Biso   1.000  C
  C6       1.0000 0.35490  0.99410  0.09290  Biso   1.000  C
  C7       1.0000 0.35490  0.50590  0.59290  Biso   1.000  C
  C8       1.0000 0.64510  0.00590  0.90710  Biso   1.000  C
  H21      1.0000 0.56960  0.48330  0.33230  Biso   1.000  H
  H22      1.0000 0.43040  0.98330  0.16770  Biso   1.000  H
  H23      1.0000 0.43040  0.51670  0.66770  Biso   1.000  H
  H24      1.0000 0.56960  0.01670  0.83230  Biso   1.000  H
  C9       1.0000 0.66910  0.57020  0.44820  Biso   1.000  C
  C10      1.0000 0.33090  0.07020  0.05180  Biso   1.000  C
  C11      1.0000 0.33090  0.42980  0.55180  Biso   1.000  C
  C12      1.0000 0.66910  0.92980  0.94820  Biso   1.000  C
  C13      1.0000 0.78070  0.58620  0.55980  Biso   1.000  C
  C14      1.0000 0.21930  0.08620  0.94020  Biso   1.000  C
  C15      1.0000 0.21930  0.41380  0.44020  Biso   1.000  C
  C16      1.0000 0.78070  0.91380  0.05980  Biso   1.000  C
  H25      1.0000 0.79680  0.63720  0.58620  Biso   1.000  H
  H26      1.0000 0.20320  0.13720  0.91380  Biso   1.000  H
  H27      1.0000 0.20320  0.36280  0.41380  Biso   1.000  H
  H28      1.0000 0.79680  0.86280  0.08620  Biso   1.000  H
  C17      1.0000 0.86810  0.52630  0.63200  Biso   1.000  C
  C18      1.0000 0.13190  0.02630  0.86800  Biso   1.000  C
  C19      1.0000 0.13190  0.47370  0.36800  Biso   1.000  C
  C20      1.0000 0.86810  0.97370  0.13200  Biso   1.000  C
  C21      1.0000 0.84810  0.45000  0.59220  Biso   1.000  C
  C22      1.0000 0.15190  0.95000  0.90780  Biso   1.000  C
  C23      1.0000 0.15190  0.55000  0.40780  Biso   1.000  C
  C24      1.0000 0.84810  0.05000  0.09220  Biso   1.000  C
  H29      1.0000 0.90910  0.40990  0.64030  Biso   1.000  H
  H30      1.0000 0.09090  0.90990  0.85970  Biso   1.000  H
  H31      1.0000 0.09090  0.59010  0.35970  Biso   1.000  H
  H32      1.0000 0.90910  0.09010  0.14030  Biso   1.000  H
  C25      1.0000 0.71550  0.35040  0.43970  Biso   1.000  C
  C26      1.0000 0.28450  0.85040  0.06030  Biso   1.000  C
  C27      1.0000 0.28450  0.64960  0.56030  Biso   1.000  C
  C28      1.0000 0.71550  0.14960  0.93970  Biso   1.000  C
  C29      1.0000 0.57710  0.63830  0.37330  Biso   1.000  C
  C30      1.0000 0.42290  0.13830  0.12670  Biso   1.000  C
  C31      1.0000 0.42290  0.36170  0.62670  Biso   1.000  C
  C32      1.0000 0.57710  0.86170  0.87330  Biso   1.000  C
  C33      1.0000 0.53270  0.13040  0.47240  Biso   1.000  C
  C34      1.0000 0.46730  0.63040  0.02760  Biso   1.000  C
  C35      1.0000 0.46730  0.86960  0.52760  Biso   1.000  C
  C36      1.0000 0.53270  0.36960  0.97240  Biso   1.000  C
  H33      1.0000 0.66190  0.14240  0.51530  Biso   1.000  H
  H34      1.0000 0.33810  0.64240  0.98470  Biso   1.000  H
  H35      1.0000 0.33810  0.85760  0.48470  Biso   1.000  H
  H36      1.0000 0.66190  0.35760  0.01530  Biso   1.000  H
  H37      1.0000 0.53490  0.08790  0.41990  Biso   1.000  H
  H38      1.0000 0.46510  0.58790  0.08010  Biso   1.000  H
  H39      1.0000 0.46510  0.91210  0.58010  Biso   1.000  H
  H40      1.0000 0.53490  0.41210  0.91990  Biso   1.000  H
  C37      1.0000 0.42780  0.10490  0.55680  Biso   1.000  C
  C38      1.0000 0.57220  0.60490  0.94320  Biso   1.000  C
  C39      1.0000 0.57220  0.89510  0.44320  Biso   1.000  C
  C40      1.0000 0.42780  0.39510  0.05680  Biso   1.000  C
  H41      1.0000 0.48470  0.05810  0.59680  Biso   1.000  H
  H42      1.0000 0.51530  0.55810  0.90320  Biso   1.000  H
  H43      1.0000 0.51530  0.94190  0.40320  Biso   1.000  H
  H44      1.0000 0.48470  0.44190  0.09680  Biso   1.000  H
  H45      1.0000 0.43520  0.14510  0.61450  Biso   1.000  H
  H46      1.0000 0.56480  0.64510  0.88550  Biso   1.000  H
  H47      1.0000 0.56480  0.85490  0.38550  Biso   1.000  H
  H48      1.0000 0.43520  0.35490  0.11450  Biso   1.000  H
  C41      1.0000 0.13530  0.16120  0.42940  Biso   1.000  C
  C42      1.0000 0.86470  0.66120  0.07060  Biso   1.000  C
  C43      1.0000 0.86470  0.83880  0.57060  Biso   1.000  C
  C44      1.0000 0.13530  0.33880  0.92940  Biso   1.000  C
  H49      1.0000 0.13730  0.20260  0.48440  Biso   1.000  H
  H50      1.0000 0.86270  0.70260  0.01560  Biso   1.000  H
  H51      1.0000 0.86270  0.79740  0.51560  Biso   1.000  H
  H52      1.0000 0.13730  0.29740  0.98440  Biso   1.000  H
  H53      1.0000 0.00520  0.15000  0.38770  Biso   1.000  H
  H54      1.0000 0.99480  0.65000  0.11230  Biso   1.000  H
  H55      1.0000 0.99480  0.85000  0.61230  Biso   1.000  H
  H56      1.0000 0.00520  0.35000  0.88770  Biso   1.000  H
  C45      1.0000 0.24130  0.18590  0.34490  Biso   1.000  C
  C46      1.0000 0.75870  0.68590  0.15510  Biso   1.000  C
  C47      1.0000 0.75870  0.81410  0.65510  Biso   1.000  C
  C48      1.0000 0.24130  0.31410  0.84490  Biso   1.000  C
  H57      1.0000 0.22850  0.14580  0.28640  Biso   1.000  H
  H58      1.0000 0.77150  0.64580  0.21360  Biso   1.000  H
  H59      1.0000 0.77150  0.85420  0.71360  Biso   1.000  H
  H60      1.0000 0.22850  0.35420  0.78640  Biso   1.000  H
  H61      1.0000 0.18520  0.23310  0.30590  Biso   1.000  H
  H62      1.0000 0.81480  0.73310  0.19410  Biso   1.000  H
  H63      1.0000 0.81480  0.76690  0.69410  Biso   1.000  H
  H64      1.0000 0.18520  0.26690  0.80590  Biso   1.000  H
  S1       1.0000 0.99452  0.54539  0.77891  Biso   1.000  S
  S2       1.0000 0.00548  0.04539  0.72109  Biso   1.000  S
  S3       1.0000 0.00548  0.45461  0.22109  Biso   1.000  S
  S4       1.0000 0.99452  0.95461  0.27891  Biso   1.000  S
