data_image0
_cell_length_a       12.743
_cell_length_b       10.874
_cell_length_c       17.709
_cell_angle_alpha    90
_cell_angle_beta     103.198
_cell_angle_gamma    90

_symmetry_space_group_name_H-M    "P 1"
_symmetry_int_tables_number       1

loop_
  _symmetry_equiv_pos_as_xyz
  'x, y, z'

loop_
  _atom_site_label
  _atom_site_occupancy
  _atom_site_fract_x
  _atom_site_fract_y
  _atom_site_fract_z
  _atom_site_thermal_displace_type
  _atom_site_B_iso_or_equiv
  _atom_site_type_symbol
  Cu1      1.0000 0.04733  0.22881  0.39677  Biso   1.000  Cu
  Cu2      1.0000 0.54733  0.77119  0.39677  Biso   1.000  Cu
  Cu3      1.0000 0.54733  0.72881  0.89677  Biso   1.000  Cu
  Cu4      1.0000 0.04733  0.27119  0.89677  Biso   1.000  Cu
  O1       1.0000 0.96620  0.34080  0.31860  Biso   1.000  O
  O2       1.0000 0.46620  0.65920  0.31860  Biso   1.000  O
  O3       1.0000 0.46620  0.84080  0.81860  Biso   1.000  O
  O4       1.0000 0.96620  0.15920  0.81860  Biso   1.000  O
  O5       1.0000 0.80040  0.27580  0.31740  Biso   1.000  O
  O6       1.0000 0.30040  0.72420  0.31740  Biso   1.000  O
  O7       1.0000 0.30040  0.77580  0.81740  Biso   1.000  O
  O8       1.0000 0.80040  0.22420  0.81740  Biso   1.000  O
  O9       1.0000 0.74950  0.77030  0.03410  Biso   1.000  O
  O10      1.0000 0.24950  0.22970  0.03410  Biso   1.000  O
  O11      1.0000 0.24950  0.27030  0.53410  Biso   1.000  O
  O12      1.0000 0.74950  0.72970  0.53410  Biso   1.000  O
  O13      1.0000 0.63620  0.62260  0.97590  Biso   1.000  O
  O14      1.0000 0.13620  0.37740  0.97590  Biso   1.000  O
  O15      1.0000 0.13620  0.12260  0.47590  Biso   1.000  O
  O16      1.0000 0.63620  0.87740  0.47590  Biso   1.000  O
  C1       1.0000 0.13020  0.20440  0.25800  Biso   1.000  C
  C2       1.0000 0.63020  0.79560  0.25800  Biso   1.000  C
  C3       1.0000 0.63020  0.70440  0.75800  Biso   1.000  C
  C4       1.0000 0.13020  0.29560  0.75800  Biso   1.000  C
  H1       1.0000 0.12310  0.28960  0.25740  Biso   1.000  H
  H2       1.0000 0.62310  0.71040  0.25740  Biso   1.000  H
  H3       1.0000 0.62310  0.78960  0.75740  Biso   1.000  H
  H4       1.0000 0.12310  0.21040  0.75740  Biso   1.000  H
  C5       1.0000 0.75320  0.57880  0.09670  Biso   1.000  C
  C6       1.0000 0.25320  0.42120  0.09670  Biso   1.000  C
  C7       1.0000 0.25320  0.07880  0.59670  Biso   1.000  C
  C8       1.0000 0.75320  0.92120  0.59670  Biso   1.000  C
  N1       1.0000 0.10280  0.14130  0.31380  Biso   1.000  N
  N2       1.0000 0.60280  0.85870  0.31380  Biso   1.000  N
  N3       1.0000 0.60280  0.64130  0.81380  Biso   1.000  N
  N4       1.0000 0.10280  0.35870  0.81380  Biso   1.000  N
  N5       1.0000 0.48230  0.80500  0.97850  Biso   1.000  N
  N6       1.0000 0.98230  0.19500  0.97850  Biso   1.000  N
  N7       1.0000 0.98230  0.30500  0.47850  Biso   1.000  N
  N8       1.0000 0.48230  0.69500  0.47850  Biso   1.000  N
  C9       1.0000 0.89380  0.51450  0.20730  Biso   1.000  C
  C10      1.0000 0.39380  0.48550  0.20730  Biso   1.000  C
  C11      1.0000 0.39380  0.01450  0.70730  Biso   1.000  C
  C12      1.0000 0.89380  0.98550  0.70730  Biso   1.000  C
  H5       1.0000 0.96410  0.52300  0.23630  Biso   1.000  H
  H6       1.0000 0.46410  0.47700  0.23630  Biso   1.000  H
  H7       1.0000 0.46410  0.02300  0.73630  Biso   1.000  H
  H8       1.0000 0.96410  0.97700  0.73630  Biso   1.000  H
  C13      1.0000 0.85640  0.58600  0.14210  Biso   1.000  C
  C14      1.0000 0.35640  0.41400  0.14210  Biso   1.000  C
  C15      1.0000 0.35640  0.08600  0.64210  Biso   1.000  C
  C16      1.0000 0.85640  0.91400  0.64210  Biso   1.000  C
  C17      1.0000 0.82500  0.43080  0.22830  Biso   1.000  C
  C18      1.0000 0.32500  0.56920  0.22830  Biso   1.000  C
  C19      1.0000 0.32500  0.93080  0.72830  Biso   1.000  C
  C20      1.0000 0.82500  0.06920  0.72830  Biso   1.000  C
  C21      1.0000 0.68680  0.49550  0.11950  Biso   1.000  C
  C22      1.0000 0.18680  0.50450  0.11950  Biso   1.000  C
  C23      1.0000 0.18680  0.99550  0.61950  Biso   1.000  C
  C24      1.0000 0.68680  0.00450  0.61950  Biso   1.000  C
  H9       1.0000 0.61670  0.48710  0.09010  Biso   1.000  H
  H10      1.0000 0.11670  0.51290  0.09010  Biso   1.000  H
  H11      1.0000 0.11670  0.98710  0.59010  Biso   1.000  H
  H12      1.0000 0.61670  0.01290  0.59010  Biso   1.000  H
  C25      1.0000 0.14470  0.95780  0.25570  Biso   1.000  C
  C26      1.0000 0.64470  0.04220  0.25570  Biso   1.000  C
  C27      1.0000 0.64470  0.45780  0.75570  Biso   1.000  C
  C28      1.0000 0.14470  0.54220  0.75570  Biso   1.000  C
  H13      1.0000 0.14660  0.87230  0.25650  Biso   1.000  H
  H14      1.0000 0.64660  0.12770  0.25650  Biso   1.000  H
  H15      1.0000 0.64660  0.37230  0.75650  Biso   1.000  H
  H16      1.0000 0.14660  0.62770  0.75650  Biso   1.000  H
  C29      1.0000 0.22230  0.95950  0.13450  Biso   1.000  C
  C30      1.0000 0.72230  0.04050  0.13450  Biso   1.000  C
  C31      1.0000 0.72230  0.45950  0.63450  Biso   1.000  C
  C32      1.0000 0.22230  0.54050  0.63450  Biso   1.000  C
  H17      1.0000 0.19680  0.87530  0.12700  Biso   1.000  H
  H18      1.0000 0.69680  0.12470  0.12700  Biso   1.000  H
  H19      1.0000 0.69680  0.37530  0.62700  Biso   1.000  H
  H20      1.0000 0.19680  0.62470  0.62700  Biso   1.000  H
  H21      1.0000 0.19640  0.00350  0.08620  Biso   1.000  H
  H22      1.0000 0.69640  0.99650  0.08620  Biso   1.000  H
  H23      1.0000 0.69640  0.50350  0.58620  Biso   1.000  H
  H24      1.0000 0.19640  0.49650  0.58620  Biso   1.000  H
  C33      1.0000 0.39180  0.90480  0.09370  Biso   1.000  C
  C34      1.0000 0.89180  0.09520  0.09370  Biso   1.000  C
  C35      1.0000 0.89180  0.40480  0.59370  Biso   1.000  C
  C36      1.0000 0.39180  0.59520  0.59370  Biso   1.000  C
  C37      1.0000 0.72040  0.42170  0.18560  Biso   1.000  C
  C38      1.0000 0.22040  0.57830  0.18560  Biso   1.000  C
  C39      1.0000 0.22040  0.92170  0.68560  Biso   1.000  C
  C40      1.0000 0.72040  0.07830  0.68560  Biso   1.000  C
  H25      1.0000 0.67250  0.36730  0.20050  Biso   1.000  H
  H26      1.0000 0.17250  0.63270  0.20050  Biso   1.000  H
  H27      1.0000 0.17250  0.86730  0.70050  Biso   1.000  H
  H28      1.0000 0.67250  0.13270  0.70050  Biso   1.000  H
  C41      1.0000 0.43050  0.97780  0.04280  Biso   1.000  C
  C42      1.0000 0.93050  0.02220  0.04280  Biso   1.000  C
  C43      1.0000 0.93050  0.47780  0.54280  Biso   1.000  C
  C44      1.0000 0.43050  0.52220  0.54280  Biso   1.000  C
  H29      1.0000 0.42640  0.06300  0.04630  Biso   1.000  H
  H30      1.0000 0.92640  0.93700  0.04630  Biso   1.000  H
  H31      1.0000 0.92640  0.56300  0.54630  Biso   1.000  H
  H32      1.0000 0.42640  0.43700  0.54630  Biso   1.000  H
  C45      1.0000 0.16950  0.14760  0.20000  Biso   1.000  C
  C46      1.0000 0.66950  0.85240  0.20000  Biso   1.000  C
  C47      1.0000 0.66950  0.64760  0.70000  Biso   1.000  C
  C48      1.0000 0.16950  0.35240  0.70000  Biso   1.000  C
  H33      1.0000 0.19050  0.19480  0.16220  Biso   1.000  H
  H34      1.0000 0.69050  0.80520  0.16220  Biso   1.000  H
  H35      1.0000 0.69050  0.69480  0.66220  Biso   1.000  H
  H36      1.0000 0.19050  0.30520  0.66220  Biso   1.000  H
  C49      1.0000 0.71150  0.66520  0.02880  Biso   1.000  C
  C50      1.0000 0.21150  0.33480  0.02880  Biso   1.000  C
  C51      1.0000 0.21150  0.16520  0.52880  Biso   1.000  C
  C52      1.0000 0.71150  0.83480  0.52880  Biso   1.000  C
  O17      1.0000 0.97810  0.74540  0.16680  Biso   1.000  O
  O18      1.0000 0.47810  0.25460  0.16680  Biso   1.000  O
  O19      1.0000 0.47810  0.24540  0.66680  Biso   1.000  O
  O20      1.0000 0.97810  0.75460  0.66680  Biso   1.000  O
  N9       1.0000 0.93510  0.67050  0.11950  Biso   1.000  N
  N10      1.0000 0.43510  0.32950  0.11950  Biso   1.000  N
  N11      1.0000 0.43510  0.17050  0.61950  Biso   1.000  N
  N12      1.0000 0.93510  0.82950  0.61950  Biso   1.000  N
  C53      1.0000 0.86520  0.34160  0.29410  Biso   1.000  C
  C54      1.0000 0.36520  0.65840  0.29410  Biso   1.000  C
  C55      1.0000 0.36520  0.84160  0.79410  Biso   1.000  C
  C56      1.0000 0.86520  0.15840  0.79410  Biso   1.000  C
  C57      1.0000 0.47560  0.92550  0.98650  Biso   1.000  C
  C58      1.0000 0.97560  0.07450  0.98650  Biso   1.000  C
  C59      1.0000 0.97560  0.42550  0.48650  Biso   1.000  C
  C60      1.0000 0.47560  0.57450  0.48650  Biso   1.000  C
  H37      1.0000 0.50210  0.97670  0.95310  Biso   1.000  H
  H38      1.0000 0.00210  0.02330  0.95310  Biso   1.000  H
  H39      1.0000 0.00210  0.47670  0.45310  Biso   1.000  H
  H40      1.0000 0.50210  0.52330  0.45310  Biso   1.000  H
  C61      1.0000 0.39790  0.78070  0.08310  Biso   1.000  C
  C62      1.0000 0.89790  0.21930  0.08310  Biso   1.000  C
  C63      1.0000 0.89790  0.28070  0.58310  Biso   1.000  C
  C64      1.0000 0.39790  0.71930  0.58310  Biso   1.000  C
  H41      1.0000 0.37120  0.72710  0.11510  Biso   1.000  H
  H42      1.0000 0.87120  0.27290  0.11510  Biso   1.000  H
  H43      1.0000 0.87120  0.22710  0.61510  Biso   1.000  H
  H44      1.0000 0.37120  0.77290  0.61510  Biso   1.000  H
  C65      1.0000 0.10900  0.01960  0.31220  Biso   1.000  C
  C66      1.0000 0.60900  0.98040  0.31220  Biso   1.000  C
  C67      1.0000 0.60900  0.51960  0.81220  Biso   1.000  C
  C68      1.0000 0.10900  0.48040  0.81220  Biso   1.000  C
  H45      1.0000 0.08840  0.97460  0.35110  Biso   1.000  H
  H46      1.0000 0.58840  0.02540  0.35110  Biso   1.000  H
  H47      1.0000 0.58840  0.47460  0.85110  Biso   1.000  H
  H48      1.0000 0.08840  0.52540  0.85110  Biso   1.000  H
  O21      1.0000 0.95150  0.65270  0.05380  Biso   1.000  O
  O22      1.0000 0.45150  0.34730  0.05380  Biso   1.000  O
  O23      1.0000 0.45150  0.15270  0.55380  Biso   1.000  O
  O24      1.0000 0.95150  0.84730  0.55380  Biso   1.000  O
  C69      1.0000 0.17750  0.01920  0.19810  Biso   1.000  C
  C70      1.0000 0.67750  0.98080  0.19810  Biso   1.000  C
  C71      1.0000 0.67750  0.51920  0.69810  Biso   1.000  C
  C72      1.0000 0.17750  0.48080  0.69810  Biso   1.000  C
  C73      1.0000 0.34350  0.96050  0.15500  Biso   1.000  C
  C74      1.0000 0.84350  0.03950  0.15500  Biso   1.000  C
  C75      1.0000 0.84350  0.46050  0.65500  Biso   1.000  C
  C76      1.0000 0.34350  0.53950  0.65500  Biso   1.000  C
  H49      1.0000 0.36830  0.04480  0.16370  Biso   1.000  H
  H50      1.0000 0.86830  0.95520  0.16370  Biso   1.000  H
  H51      1.0000 0.86830  0.54480  0.66370  Biso   1.000  H
  H52      1.0000 0.36830  0.45520  0.66370  Biso   1.000  H
  H53      1.0000 0.36880  0.91570  0.20310  Biso   1.000  H
  H54      1.0000 0.86880  0.08430  0.20310  Biso   1.000  H
  H55      1.0000 0.86880  0.41570  0.70310  Biso   1.000  H
  H56      1.0000 0.36880  0.58430  0.70310  Biso   1.000  H
  C77      1.0000 0.44240  0.73460  0.02650  Biso   1.000  C
  C78      1.0000 0.94240  0.26540  0.02650  Biso   1.000  C
  C79      1.0000 0.94240  0.23460  0.52650  Biso   1.000  C
  C80      1.0000 0.44240  0.76540  0.52650  Biso   1.000  C
  H57      1.0000 0.44510  0.64970  0.02110  Biso   1.000  H
  H58      1.0000 0.94510  0.35030  0.02110  Biso   1.000  H
  H59      1.0000 0.94510  0.14970  0.52110  Biso   1.000  H
  H60      1.0000 0.44510  0.85030  0.52110  Biso   1.000  H
  O25      1.0000 0.89820  0.05590  0.38220  Biso   1.000  O
  O26      1.0000 0.39820  0.94410  0.38220  Biso   1.000  O
  O27      1.0000 0.39820  0.55590  0.88220  Biso   1.000  O
  O28      1.0000 0.89820  0.44410  0.88220  Biso   1.000  O
  H61      1.0000 0.83940  0.09590  0.37140  Biso   1.000  H
  H62      1.0000 0.33940  0.90410  0.37140  Biso   1.000  H
  H63      1.0000 0.33940  0.59590  0.87140  Biso   1.000  H
  H64      1.0000 0.83940  0.40410  0.87140  Biso   1.000  H
  H65      1.0000 0.88480  0.97930  0.38020  Biso   1.000  H
  H66      1.0000 0.38480  0.02070  0.38020  Biso   1.000  H
  H67      1.0000 0.38480  0.47930  0.88020  Biso   1.000  H
  H68      1.0000 0.88480  0.52070  0.88020  Biso   1.000  H
  O29      1.0000 0.20650  0.38630  0.39760  Biso   1.000  O
  O30      1.0000 0.70650  0.61370  0.39760  Biso   1.000  O
  O31      1.0000 0.70650  0.88630  0.89760  Biso   1.000  O
  O32      1.0000 0.20650  0.11370  0.89760  Biso   1.000  O
  O33      1.0000 0.62420  0.12550  0.86700  Biso   1.000  O
  O34      1.0000 0.12420  0.87450  0.86700  Biso   1.000  O
  O35      1.0000 0.12420  0.62550  0.36700  Biso   1.000  O
  O36      1.0000 0.62420  0.37450  0.36700  Biso   1.000  O
  H69      1.0000 0.66220  0.17110  0.90170  Biso   1.000  H
  H70      1.0000 0.16220  0.82890  0.90170  Biso   1.000  H
  H71      1.0000 0.16220  0.67110  0.40170  Biso   1.000  H
  H72      1.0000 0.66220  0.32890  0.40170  Biso   1.000  H
  H73      1.0000 0.64690  0.05190  0.87330  Biso   1.000  H
  H74      1.0000 0.14690  0.94810  0.87330  Biso   1.000  H
  H75      1.0000 0.14690  0.55190  0.37330  Biso   1.000  H
  H76      1.0000 0.64690  0.44810  0.37330  Biso   1.000  H
  O37      1.0000 0.91260  0.74390  0.87690  Biso   1.000  O
  O38      1.0000 0.41260  0.25610  0.87690  Biso   1.000  O
  O39      1.0000 0.41260  0.24390  0.37690  Biso   1.000  O
  O40      1.0000 0.91260  0.75610  0.37690  Biso   1.000  O
  H77      1.0000 0.95480  0.74880  0.84610  Biso   1.000  H
  H78      1.0000 0.45480  0.25120  0.84610  Biso   1.000  H
  H79      1.0000 0.45480  0.24880  0.34610  Biso   1.000  H
  H80      1.0000 0.95480  0.75120  0.34610  Biso   1.000  H
  H81      1.0000 0.86420  0.79890  0.86540  Biso   1.000  H
  H82      1.0000 0.36420  0.20110  0.86540  Biso   1.000  H
  H83      1.0000 0.36420  0.29890  0.36540  Biso   1.000  H
  H84      1.0000 0.86420  0.70110  0.36540  Biso   1.000  H
