data_image0
_cell_length_a       22.67
_cell_length_b       27.223
_cell_length_c       10.787
_cell_angle_alpha    90
_cell_angle_beta     108.674
_cell_angle_gamma    90

_symmetry_space_group_name_H-M    "P 1"
_symmetry_int_tables_number       1

loop_
  _symmetry_equiv_pos_as_xyz
  'x, y, z'

loop_
  _atom_site_label
  _atom_site_occupancy
  _atom_site_fract_x
  _atom_site_fract_y
  _atom_site_fract_z
  _atom_site_thermal_displace_type
  _atom_site_B_iso_or_equiv
  _atom_site_type_symbol
  Cu1      1.0000 0.24391  0.99602  0.71164  Biso   1.000  Cu
  Cu2      1.0000 0.74391  0.49602  0.71164  Biso   1.000  Cu
  Cu3      1.0000 0.75609  0.99602  0.78836  Biso   1.000  Cu
  Cu4      1.0000 0.25609  0.49602  0.78836  Biso   1.000  Cu
  Cu5      1.0000 0.75609  0.00398  0.28836  Biso   1.000  Cu
  Cu6      1.0000 0.25609  0.50398  0.28836  Biso   1.000  Cu
  Cu7      1.0000 0.24391  0.00398  0.21164  Biso   1.000  Cu
  Cu8      1.0000 0.74391  0.50398  0.21164  Biso   1.000  Cu
  N1       1.0000 0.26760  0.06572  0.68320  Biso   1.000  N
  N2       1.0000 0.76760  0.56572  0.68320  Biso   1.000  N
  N3       1.0000 0.73240  0.06572  0.81680  Biso   1.000  N
  N4       1.0000 0.23240  0.56572  0.81680  Biso   1.000  N
  N5       1.0000 0.73240  0.93428  0.31680  Biso   1.000  N
  N6       1.0000 0.23240  0.43428  0.31680  Biso   1.000  N
  N7       1.0000 0.26760  0.93428  0.18320  Biso   1.000  N
  N8       1.0000 0.76760  0.43428  0.18320  Biso   1.000  N
  N9       1.0000 0.35020  0.22400  0.54580  Biso   1.000  N
  N10      1.0000 0.85020  0.72400  0.54580  Biso   1.000  N
  N11      1.0000 0.64980  0.22400  0.95420  Biso   1.000  N
  N12      1.0000 0.14980  0.72400  0.95420  Biso   1.000  N
  N13      1.0000 0.64980  0.77600  0.45420  Biso   1.000  N
  N14      1.0000 0.14980  0.27600  0.45420  Biso   1.000  N
  N15      1.0000 0.35020  0.77600  0.04580  Biso   1.000  N
  N16      1.0000 0.85020  0.27600  0.04580  Biso   1.000  N
  N17      1.0000 0.35160  0.27574  0.55030  Biso   1.000  N
  N18      1.0000 0.85160  0.77574  0.55030  Biso   1.000  N
  N19      1.0000 0.64840  0.27574  0.94970  Biso   1.000  N
  N20      1.0000 0.14840  0.77574  0.94970  Biso   1.000  N
  N21      1.0000 0.64840  0.72426  0.44970  Biso   1.000  N
  N22      1.0000 0.14840  0.22426  0.44970  Biso   1.000  N
  N23      1.0000 0.35160  0.72426  0.05030  Biso   1.000  N
  N24      1.0000 0.85160  0.22426  0.05030  Biso   1.000  N
  N25      1.0000 0.27690  0.42999  0.72440  Biso   1.000  N
  N26      1.0000 0.77690  0.92999  0.72440  Biso   1.000  N
  N27      1.0000 0.72310  0.42999  0.77560  Biso   1.000  N
  N28      1.0000 0.22310  0.92999  0.77560  Biso   1.000  N
  N29      1.0000 0.72310  0.57001  0.27560  Biso   1.000  N
  N30      1.0000 0.22310  0.07001  0.27560  Biso   1.000  N
  N31      1.0000 0.27690  0.57001  0.22440  Biso   1.000  N
  N32      1.0000 0.77690  0.07001  0.22440  Biso   1.000  N
  O1       1.0000 0.29780  0.24826  0.67240  Biso   1.000  O
  O2       1.0000 0.79780  0.74826  0.67240  Biso   1.000  O
  O3       1.0000 0.70220  0.24826  0.82760  Biso   1.000  O
  O4       1.0000 0.20220  0.74826  0.82760  Biso   1.000  O
  O5       1.0000 0.70220  0.75174  0.32760  Biso   1.000  O
  O6       1.0000 0.20220  0.25174  0.32760  Biso   1.000  O
  O7       1.0000 0.29780  0.75174  0.17240  Biso   1.000  O
  O8       1.0000 0.79780  0.25174  0.17240  Biso   1.000  O
  O9       1.0000 0.15695  0.01016  0.63400  Biso   1.000  O
  O10      1.0000 0.65695  0.51016  0.63400  Biso   1.000  O
  O11      1.0000 0.84305  0.01016  0.86600  Biso   1.000  O
  O12      1.0000 0.34305  0.51016  0.86600  Biso   1.000  O
  O13      1.0000 0.84305  0.98984  0.36600  Biso   1.000  O
  O14      1.0000 0.34305  0.48984  0.36600  Biso   1.000  O
  O15      1.0000 0.15695  0.98984  0.13400  Biso   1.000  O
  O16      1.0000 0.65695  0.48984  0.13400  Biso   1.000  O
  O17      1.0000 0.13438  0.03979  0.80550  Biso   1.000  O
  O18      1.0000 0.63438  0.53979  0.80550  Biso   1.000  O
  O19      1.0000 0.86562  0.03979  0.69450  Biso   1.000  O
  O20      1.0000 0.36562  0.53979  0.69450  Biso   1.000  O
  O21      1.0000 0.86562  0.96021  0.19450  Biso   1.000  O
  O22      1.0000 0.36562  0.46021  0.19450  Biso   1.000  O
  O23      1.0000 0.13438  0.96021  0.30550  Biso   1.000  O
  O24      1.0000 0.63438  0.46021  0.30550  Biso   1.000  O
  O25      1.0000 0.34590  0.02700  0.95160  Biso   1.000  O
  O26      1.0000 0.84590  0.52700  0.95160  Biso   1.000  O
  O27      1.0000 0.65410  0.02700  0.54840  Biso   1.000  O
  O28      1.0000 0.15410  0.52700  0.54840  Biso   1.000  O
  O29      1.0000 0.65410  0.97300  0.04840  Biso   1.000  O
  O30      1.0000 0.15410  0.47300  0.04840  Biso   1.000  O
  O31      1.0000 0.34590  0.97300  0.45160  Biso   1.000  O
  O32      1.0000 0.84590  0.47300  0.45160  Biso   1.000  O
  O33      1.0000 0.33177  0.97966  0.77910  Biso   1.000  O
  O34      1.0000 0.83177  0.47966  0.77910  Biso   1.000  O
  O35      1.0000 0.66823  0.97966  0.72090  Biso   1.000  O
  O36      1.0000 0.16823  0.47966  0.72090  Biso   1.000  O
  O37      1.0000 0.66823  0.02034  0.22090  Biso   1.000  O
  O38      1.0000 0.16823  0.52034  0.22090  Biso   1.000  O
  O39      1.0000 0.33177  0.02034  0.27910  Biso   1.000  O
  O40      1.0000 0.83177  0.52034  0.27910  Biso   1.000  O
  O41      1.0000 0.24131  0.96579  0.51890  Biso   1.000  O
  O42      1.0000 0.74131  0.46579  0.51890  Biso   1.000  O
  O43      1.0000 0.75869  0.96579  0.98110  Biso   1.000  O
  O44      1.0000 0.25869  0.46579  0.98110  Biso   1.000  O
  O45      1.0000 0.75869  0.03421  0.48110  Biso   1.000  O
  O46      1.0000 0.25869  0.53421  0.48110  Biso   1.000  O
  O47      1.0000 0.24131  0.03421  0.01890  Biso   1.000  O
  O48      1.0000 0.74131  0.53421  0.01890  Biso   1.000  O
  H1       1.0000 0.27050  0.96400  0.48500  Biso   1.000  H
  H2       1.0000 0.77050  0.46400  0.48500  Biso   1.000  H
  H3       1.0000 0.72950  0.96400  0.01500  Biso   1.000  H
  H4       1.0000 0.22950  0.46400  0.01500  Biso   1.000  H
  H5       1.0000 0.72950  0.03600  0.51500  Biso   1.000  H
  H6       1.0000 0.22950  0.53600  0.51500  Biso   1.000  H
  H7       1.0000 0.27050  0.03600  0.98500  Biso   1.000  H
  H8       1.0000 0.77050  0.53600  0.98500  Biso   1.000  H
  H9       1.0000 0.20600  0.96600  0.46000  Biso   1.000  H
  H10      1.0000 0.70600  0.46600  0.46000  Biso   1.000  H
  H11      1.0000 0.79400  0.96600  0.04000  Biso   1.000  H
  H12      1.0000 0.29400  0.46600  0.04000  Biso   1.000  H
  H13      1.0000 0.79400  0.03400  0.54000  Biso   1.000  H
  H14      1.0000 0.29400  0.53400  0.54000  Biso   1.000  H
  H15      1.0000 0.20600  0.03400  0.96000  Biso   1.000  H
  H16      1.0000 0.70600  0.53400  0.96000  Biso   1.000  H
  C1       1.0000 0.25260  0.39000  0.76130  Biso   1.000  C
  C2       1.0000 0.75260  0.89000  0.76130  Biso   1.000  C
  C3       1.0000 0.74740  0.39000  0.73870  Biso   1.000  C
  C4       1.0000 0.24740  0.89000  0.73870  Biso   1.000  C
  C5       1.0000 0.74740  0.61000  0.23870  Biso   1.000  C
  C6       1.0000 0.24740  0.11000  0.23870  Biso   1.000  C
  C7       1.0000 0.25260  0.61000  0.26130  Biso   1.000  C
  C8       1.0000 0.75260  0.11000  0.26130  Biso   1.000  C
  H17      1.0000 0.22550  0.39420  0.80950  Biso   1.000  H
  H18      1.0000 0.72550  0.89420  0.80950  Biso   1.000  H
  H19      1.0000 0.77450  0.39420  0.69050  Biso   1.000  H
  H20      1.0000 0.27450  0.89420  0.69050  Biso   1.000  H
  H21      1.0000 0.77450  0.60580  0.19050  Biso   1.000  H
  H22      1.0000 0.27450  0.10580  0.19050  Biso   1.000  H
  H23      1.0000 0.22550  0.60580  0.30950  Biso   1.000  H
  H24      1.0000 0.72550  0.10580  0.30950  Biso   1.000  H
  C9       1.0000 0.26560  0.34290  0.73160  Biso   1.000  C
  C10      1.0000 0.76560  0.84290  0.73160  Biso   1.000  C
  C11      1.0000 0.73440  0.34290  0.76840  Biso   1.000  C
  C12      1.0000 0.23440  0.84290  0.76840  Biso   1.000  C
  C13      1.0000 0.73440  0.65710  0.26840  Biso   1.000  C
  C14      1.0000 0.23440  0.15710  0.26840  Biso   1.000  C
  C15      1.0000 0.26560  0.65710  0.23160  Biso   1.000  C
  C16      1.0000 0.76560  0.15710  0.23160  Biso   1.000  C
  H25      1.0000 0.24740  0.31590  0.75780  Biso   1.000  H
  H26      1.0000 0.74740  0.81590  0.75780  Biso   1.000  H
  H27      1.0000 0.75260  0.31590  0.74220  Biso   1.000  H
  H28      1.0000 0.25260  0.81590  0.74220  Biso   1.000  H
  H29      1.0000 0.75260  0.68410  0.24220  Biso   1.000  H
  H30      1.0000 0.25260  0.18410  0.24220  Biso   1.000  H
  H31      1.0000 0.24740  0.68410  0.25780  Biso   1.000  H
  H32      1.0000 0.74740  0.18410  0.25780  Biso   1.000  H
  C17      1.0000 0.30660  0.33690  0.66190  Biso   1.000  C
  C18      1.0000 0.80660  0.83690  0.66190  Biso   1.000  C
  C19      1.0000 0.69340  0.33690  0.83810  Biso   1.000  C
  C20      1.0000 0.19340  0.83690  0.83810  Biso   1.000  C
  C21      1.0000 0.69340  0.66310  0.33810  Biso   1.000  C
  C22      1.0000 0.19340  0.16310  0.33810  Biso   1.000  C
  C23      1.0000 0.30660  0.66310  0.16190  Biso   1.000  C
  C24      1.0000 0.80660  0.16310  0.16190  Biso   1.000  C
  C25      1.0000 0.33070  0.37820  0.62380  Biso   1.000  C
  C26      1.0000 0.83070  0.87820  0.62380  Biso   1.000  C
  C27      1.0000 0.66930  0.37820  0.87620  Biso   1.000  C
  C28      1.0000 0.16930  0.87820  0.87620  Biso   1.000  C
  C29      1.0000 0.66930  0.62180  0.37620  Biso   1.000  C
  C30      1.0000 0.16930  0.12180  0.37620  Biso   1.000  C
  C31      1.0000 0.33070  0.62180  0.12380  Biso   1.000  C
  C32      1.0000 0.83070  0.12180  0.12380  Biso   1.000  C
  H33      1.0000 0.35790  0.37530  0.57550  Biso   1.000  H
  H34      1.0000 0.85790  0.87530  0.57550  Biso   1.000  H
  H35      1.0000 0.64210  0.37530  0.92450  Biso   1.000  H
  H36      1.0000 0.14210  0.87530  0.92450  Biso   1.000  H
  H37      1.0000 0.64210  0.62470  0.42450  Biso   1.000  H
  H38      1.0000 0.14210  0.12470  0.42450  Biso   1.000  H
  H39      1.0000 0.35790  0.62470  0.07550  Biso   1.000  H
  H40      1.0000 0.85790  0.12470  0.07550  Biso   1.000  H
  C33      1.0000 0.31510  0.42288  0.65610  Biso   1.000  C
  C34      1.0000 0.81510  0.92288  0.65610  Biso   1.000  C
  C35      1.0000 0.68490  0.42288  0.84390  Biso   1.000  C
  C36      1.0000 0.18490  0.92288  0.84390  Biso   1.000  C
  C37      1.0000 0.68490  0.57712  0.34390  Biso   1.000  C
  C38      1.0000 0.18490  0.07712  0.34390  Biso   1.000  C
  C39      1.0000 0.31510  0.57712  0.15610  Biso   1.000  C
  C40      1.0000 0.81510  0.07712  0.15610  Biso   1.000  C
  H41      1.0000 0.33220  0.45030  0.62880  Biso   1.000  H
  H42      1.0000 0.83220  0.95030  0.62880  Biso   1.000  H
  H43      1.0000 0.66780  0.45030  0.87120  Biso   1.000  H
  H44      1.0000 0.16780  0.95030  0.87120  Biso   1.000  H
  H45      1.0000 0.66780  0.54970  0.37120  Biso   1.000  H
  H46      1.0000 0.16780  0.04970  0.37120  Biso   1.000  H
  H47      1.0000 0.33220  0.54970  0.12880  Biso   1.000  H
  H48      1.0000 0.83220  0.04970  0.12880  Biso   1.000  H
  C41      1.0000 0.32090  0.28760  0.62310  Biso   1.000  C
  C42      1.0000 0.82090  0.78760  0.62310  Biso   1.000  C
  C43      1.0000 0.67910  0.28760  0.87690  Biso   1.000  C
  C44      1.0000 0.17910  0.78760  0.87690  Biso   1.000  C
  C45      1.0000 0.67910  0.71240  0.37690  Biso   1.000  C
  C46      1.0000 0.17910  0.21240  0.37690  Biso   1.000  C
  C47      1.0000 0.32090  0.71240  0.12310  Biso   1.000  C
  C48      1.0000 0.82090  0.21240  0.12310  Biso   1.000  C
  C49      1.0000 0.32020  0.20970  0.61560  Biso   1.000  C
  C50      1.0000 0.82020  0.70970  0.61560  Biso   1.000  C
  C51      1.0000 0.67980  0.20970  0.88440  Biso   1.000  C
  C52      1.0000 0.17980  0.70970  0.88440  Biso   1.000  C
  C53      1.0000 0.67980  0.79030  0.38440  Biso   1.000  C
  C54      1.0000 0.17980  0.29030  0.38440  Biso   1.000  C
  C55      1.0000 0.32020  0.79030  0.11560  Biso   1.000  C
  C56      1.0000 0.82020  0.29030  0.11560  Biso   1.000  C
  C57      1.0000 0.24320  0.10450  0.72340  Biso   1.000  C
  C58      1.0000 0.74320  0.60450  0.72340  Biso   1.000  C
  C59      1.0000 0.75680  0.10450  0.77660  Biso   1.000  C
  C60      1.0000 0.25680  0.60450  0.77660  Biso   1.000  C
  C61      1.0000 0.75680  0.89550  0.27660  Biso   1.000  C
  C62      1.0000 0.25680  0.39550  0.27660  Biso   1.000  C
  C63      1.0000 0.24320  0.89550  0.22340  Biso   1.000  C
  C64      1.0000 0.74320  0.39550  0.22340  Biso   1.000  C
  H49      1.0000 0.21360  0.09920  0.76520  Biso   1.000  H
  H50      1.0000 0.71360  0.59920  0.76520  Biso   1.000  H
  H51      1.0000 0.78640  0.09920  0.73480  Biso   1.000  H
  H52      1.0000 0.28640  0.59920  0.73480  Biso   1.000  H
  H53      1.0000 0.78640  0.90080  0.23480  Biso   1.000  H
  H54      1.0000 0.28640  0.40080  0.23480  Biso   1.000  H
  H55      1.0000 0.21360  0.90080  0.26520  Biso   1.000  H
  H56      1.0000 0.71360  0.40080  0.26520  Biso   1.000  H
  C65      1.0000 0.25930  0.15190  0.70670  Biso   1.000  C
  C66      1.0000 0.75930  0.65190  0.70670  Biso   1.000  C
  C67      1.0000 0.74070  0.15190  0.79330  Biso   1.000  C
  C68      1.0000 0.24070  0.65190  0.79330  Biso   1.000  C
  C69      1.0000 0.74070  0.84810  0.29330  Biso   1.000  C
  C70      1.0000 0.24070  0.34810  0.29330  Biso   1.000  C
  C71      1.0000 0.25930  0.84810  0.20670  Biso   1.000  C
  C72      1.0000 0.75930  0.34810  0.20670  Biso   1.000  C
  H57      1.0000 0.24140  0.17800  0.73720  Biso   1.000  H
  H58      1.0000 0.74140  0.67800  0.73720  Biso   1.000  H
  H59      1.0000 0.75860  0.17800  0.76280  Biso   1.000  H
  H60      1.0000 0.25860  0.67800  0.76280  Biso   1.000  H
  H61      1.0000 0.75860  0.82200  0.26280  Biso   1.000  H
  H62      1.0000 0.25860  0.32200  0.26280  Biso   1.000  H
  H63      1.0000 0.24140  0.82200  0.23720  Biso   1.000  H
  H64      1.0000 0.74140  0.32200  0.23720  Biso   1.000  H
  C73      1.0000 0.30270  0.16010  0.64340  Biso   1.000  C
  C74      1.0000 0.80270  0.66010  0.64340  Biso   1.000  C
  C75      1.0000 0.69730  0.16010  0.85660  Biso   1.000  C
  C76      1.0000 0.19730  0.66010  0.85660  Biso   1.000  C
  C77      1.0000 0.69730  0.83990  0.35660  Biso   1.000  C
  C78      1.0000 0.19730  0.33990  0.35660  Biso   1.000  C
  C79      1.0000 0.30270  0.83990  0.14340  Biso   1.000  C
  C80      1.0000 0.80270  0.33990  0.14340  Biso   1.000  C
  C81      1.0000 0.32860  0.12050  0.60250  Biso   1.000  C
  C82      1.0000 0.82860  0.62050  0.60250  Biso   1.000  C
  C83      1.0000 0.67140  0.12050  0.89750  Biso   1.000  C
  C84      1.0000 0.17140  0.62050  0.89750  Biso   1.000  C
  C85      1.0000 0.67140  0.87950  0.39750  Biso   1.000  C
  C86      1.0000 0.17140  0.37950  0.39750  Biso   1.000  C
  C87      1.0000 0.32860  0.87950  0.10250  Biso   1.000  C
  C88      1.0000 0.82860  0.37950  0.10250  Biso   1.000  C
  H65      1.0000 0.35880  0.12480  0.56180  Biso   1.000  H
  H66      1.0000 0.85880  0.62480  0.56180  Biso   1.000  H
  H67      1.0000 0.64120  0.12480  0.93820  Biso   1.000  H
  H68      1.0000 0.14120  0.62480  0.93820  Biso   1.000  H
  H69      1.0000 0.64120  0.87520  0.43820  Biso   1.000  H
  H70      1.0000 0.14120  0.37520  0.43820  Biso   1.000  H
  H71      1.0000 0.35880  0.87520  0.06180  Biso   1.000  H
  H72      1.0000 0.85880  0.37520  0.06180  Biso   1.000  H
  C89      1.0000 0.30960  0.07430  0.62230  Biso   1.000  C
  C90      1.0000 0.80960  0.57430  0.62230  Biso   1.000  C
  C91      1.0000 0.69040  0.07430  0.87770  Biso   1.000  C
  C92      1.0000 0.19040  0.57430  0.87770  Biso   1.000  C
  C93      1.0000 0.69040  0.92570  0.37770  Biso   1.000  C
  C94      1.0000 0.19040  0.42570  0.37770  Biso   1.000  C
  C95      1.0000 0.30960  0.92570  0.12230  Biso   1.000  C
  C96      1.0000 0.80960  0.42570  0.12230  Biso   1.000  C
  H73      1.0000 0.32660  0.04760  0.59220  Biso   1.000  H
  H74      1.0000 0.82660  0.54760  0.59220  Biso   1.000  H
  H75      1.0000 0.67340  0.04760  0.90780  Biso   1.000  H
  H76      1.0000 0.17340  0.54760  0.90780  Biso   1.000  H
  H77      1.0000 0.67340  0.95240  0.40780  Biso   1.000  H
  H78      1.0000 0.17340  0.45240  0.40780  Biso   1.000  H
  H79      1.0000 0.32660  0.95240  0.09220  Biso   1.000  H
  H80      1.0000 0.82660  0.45240  0.09220  Biso   1.000  H
  C97      1.0000 0.11820  0.02450  0.69140  Biso   1.000  C
  C98      1.0000 0.61820  0.52450  0.69140  Biso   1.000  C
  C99      1.0000 0.88180  0.02450  0.80860  Biso   1.000  C
  C100     1.0000 0.38180  0.52450  0.80860  Biso   1.000  C
  C101     1.0000 0.88180  0.97550  0.30860  Biso   1.000  C
  C102     1.0000 0.38180  0.47550  0.30860  Biso   1.000  C
  C103     1.0000 0.11820  0.97550  0.19140  Biso   1.000  C
  C104     1.0000 0.61820  0.47550  0.19140  Biso   1.000  C
  C105     1.0000 0.03290  0.96540  0.60330  Biso   1.000  C
  C106     1.0000 0.53290  0.46540  0.60330  Biso   1.000  C
  C107     1.0000 0.96710  0.96540  0.89670  Biso   1.000  C
  C108     1.0000 0.46710  0.46540  0.89670  Biso   1.000  C
  C109     1.0000 0.96710  0.03460  0.39670  Biso   1.000  C
  C110     1.0000 0.46710  0.53460  0.39670  Biso   1.000  C
  C111     1.0000 0.03290  0.03460  0.10330  Biso   1.000  C
  C112     1.0000 0.53290  0.53460  0.10330  Biso   1.000  C
  H81      1.0000 0.04050  0.95280  0.69120  Biso   1.000  H
  H82      1.0000 0.54050  0.45280  0.69120  Biso   1.000  H
  H83      1.0000 0.95950  0.95280  0.80880  Biso   1.000  H
  H84      1.0000 0.45950  0.45280  0.80880  Biso   1.000  H
  H85      1.0000 0.95950  0.04720  0.30880  Biso   1.000  H
  H86      1.0000 0.45950  0.54720  0.30880  Biso   1.000  H
  H87      1.0000 0.04050  0.04720  0.19120  Biso   1.000  H
  H88      1.0000 0.54050  0.54720  0.19120  Biso   1.000  H
  H89      1.0000 0.05840  0.94690  0.56280  Biso   1.000  H
  H90      1.0000 0.55840  0.44690  0.56280  Biso   1.000  H
  H91      1.0000 0.94160  0.94690  0.93720  Biso   1.000  H
  H92      1.0000 0.44160  0.44690  0.93720  Biso   1.000  H
  H93      1.0000 0.94160  0.05310  0.43720  Biso   1.000  H
  H94      1.0000 0.44160  0.55310  0.43720  Biso   1.000  H
  H95      1.0000 0.05840  0.05310  0.06280  Biso   1.000  H
  H96      1.0000 0.55840  0.55310  0.06280  Biso   1.000  H
  C113     1.0000 0.05110  0.02050  0.60980  Biso   1.000  C
  C114     1.0000 0.55110  0.52050  0.60980  Biso   1.000  C
  C115     1.0000 0.94890  0.02050  0.89020  Biso   1.000  C
  C116     1.0000 0.44890  0.52050  0.89020  Biso   1.000  C
  C117     1.0000 0.94890  0.97950  0.39020  Biso   1.000  C
  C118     1.0000 0.44890  0.47950  0.39020  Biso   1.000  C
  C119     1.0000 0.05110  0.97950  0.10980  Biso   1.000  C
  C120     1.0000 0.55110  0.47950  0.10980  Biso   1.000  C
  H97      1.0000 0.02630  0.03820  0.65470  Biso   1.000  H
  H98      1.0000 0.52630  0.53820  0.65470  Biso   1.000  H
  H99      1.0000 0.97370  0.03820  0.84530  Biso   1.000  H
  H100     1.0000 0.47370  0.53820  0.84530  Biso   1.000  H
  H101     1.0000 0.97370  0.96180  0.34530  Biso   1.000  H
  H102     1.0000 0.47370  0.46180  0.34530  Biso   1.000  H
  H103     1.0000 0.02630  0.96180  0.15470  Biso   1.000  H
  H104     1.0000 0.52630  0.46180  0.15470  Biso   1.000  H
  C121     1.0000 0.03690  0.04110  0.47710  Biso   1.000  C
  C122     1.0000 0.53690  0.54110  0.47710  Biso   1.000  C
  C123     1.0000 0.96310  0.04110  0.02290  Biso   1.000  C
  C124     1.0000 0.46310  0.54110  0.02290  Biso   1.000  C
  C125     1.0000 0.96310  0.95890  0.52290  Biso   1.000  C
  C126     1.0000 0.46310  0.45890  0.52290  Biso   1.000  C
  C127     1.0000 0.03690  0.95890  0.97710  Biso   1.000  C
  C128     1.0000 0.53690  0.45890  0.97710  Biso   1.000  C
  H105     1.0000 0.06230  0.02480  0.43220  Biso   1.000  H
  H106     1.0000 0.56230  0.52480  0.43220  Biso   1.000  H
  H107     1.0000 0.93770  0.02480  0.06780  Biso   1.000  H
  H108     1.0000 0.43770  0.52480  0.06780  Biso   1.000  H
  H109     1.0000 0.93770  0.97520  0.56780  Biso   1.000  H
  H110     1.0000 0.43770  0.47520  0.56780  Biso   1.000  H
  H111     1.0000 0.06230  0.97520  0.93220  Biso   1.000  H
  H112     1.0000 0.56230  0.47520  0.93220  Biso   1.000  H
  H113     1.0000 0.04730  0.07580  0.48320  Biso   1.000  H
  H114     1.0000 0.54730  0.57580  0.48320  Biso   1.000  H
  H115     1.0000 0.95270  0.07580  0.01680  Biso   1.000  H
  H116     1.0000 0.45270  0.57580  0.01680  Biso   1.000  H
  H117     1.0000 0.95270  0.92420  0.51680  Biso   1.000  H
  H118     1.0000 0.45270  0.42420  0.51680  Biso   1.000  H
  H119     1.0000 0.04730  0.92420  0.98320  Biso   1.000  H
  H120     1.0000 0.54730  0.42420  0.98320  Biso   1.000  H
  C129     1.0000 0.36590  0.00060  0.88120  Biso   1.000  C
  C130     1.0000 0.86590  0.50060  0.88120  Biso   1.000  C
  C131     1.0000 0.63410  0.00060  0.61880  Biso   1.000  C
  C132     1.0000 0.13410  0.50060  0.61880  Biso   1.000  C
  C133     1.0000 0.63410  0.99940  0.11880  Biso   1.000  C
  C134     1.0000 0.13410  0.49940  0.11880  Biso   1.000  C
  C135     1.0000 0.36590  0.99940  0.38120  Biso   1.000  C
  C136     1.0000 0.86590  0.49940  0.38120  Biso   1.000  C
  C137     1.0000 0.46900  0.04110  0.92030  Biso   1.000  C
  C138     1.0000 0.96900  0.54110  0.92030  Biso   1.000  C
  C139     1.0000 0.53100  0.04110  0.57970  Biso   1.000  C
  C140     1.0000 0.03100  0.54110  0.57970  Biso   1.000  C
  C141     1.0000 0.53100  0.95890  0.07970  Biso   1.000  C
  C142     1.0000 0.03100  0.45890  0.07970  Biso   1.000  C
  C143     1.0000 0.46900  0.95890  0.42030  Biso   1.000  C
  C144     1.0000 0.96900  0.45890  0.42030  Biso   1.000  C
  H121     1.0000 0.46050  0.06260  0.98430  Biso   1.000  H
  H122     1.0000 0.96050  0.56260  0.98430  Biso   1.000  H
  H123     1.0000 0.53950  0.06260  0.51570  Biso   1.000  H
  H124     1.0000 0.03950  0.56260  0.51570  Biso   1.000  H
  H125     1.0000 0.53950  0.93740  0.01570  Biso   1.000  H
  H126     1.0000 0.03950  0.43740  0.01570  Biso   1.000  H
  H127     1.0000 0.46050  0.93740  0.48430  Biso   1.000  H
  H128     1.0000 0.96050  0.43740  0.48430  Biso   1.000  H
  H129     1.0000 0.45370  0.05700  0.83540  Biso   1.000  H
  H130     1.0000 0.95370  0.55700  0.83540  Biso   1.000  H
  H131     1.0000 0.54630  0.05700  0.66460  Biso   1.000  H
  H132     1.0000 0.04630  0.55700  0.66460  Biso   1.000  H
  H133     1.0000 0.54630  0.94300  0.16460  Biso   1.000  H
  H134     1.0000 0.04630  0.44300  0.16460  Biso   1.000  H
  H135     1.0000 0.45370  0.94300  0.33540  Biso   1.000  H
  H136     1.0000 0.95370  0.44300  0.33540  Biso   1.000  H
  C145     1.0000 0.43620  0.99270  0.91630  Biso   1.000  C
  C146     1.0000 0.93620  0.49270  0.91630  Biso   1.000  C
  C147     1.0000 0.56380  0.99270  0.58370  Biso   1.000  C
  C148     1.0000 0.06380  0.49270  0.58370  Biso   1.000  C
  C149     1.0000 0.56380  0.00730  0.08370  Biso   1.000  C
  C150     1.0000 0.06380  0.50730  0.08370  Biso   1.000  C
  C151     1.0000 0.43620  0.00730  0.41630  Biso   1.000  C
  C152     1.0000 0.93620  0.50730  0.41630  Biso   1.000  C
  H137     1.0000 0.44390  0.97210  0.84870  Biso   1.000  H
  H138     1.0000 0.94390  0.47210  0.84870  Biso   1.000  H
  H139     1.0000 0.55610  0.97210  0.65130  Biso   1.000  H
  H140     1.0000 0.05610  0.47210  0.65130  Biso   1.000  H
  H141     1.0000 0.55610  0.02790  0.15130  Biso   1.000  H
  H142     1.0000 0.05610  0.52790  0.15130  Biso   1.000  H
  H143     1.0000 0.44390  0.02790  0.34870  Biso   1.000  H
  H144     1.0000 0.94390  0.52790  0.34870  Biso   1.000  H
  C153     1.0000 0.46090  0.96740  0.04360  Biso   1.000  C
  C154     1.0000 0.96090  0.46740  0.04360  Biso   1.000  C
  C155     1.0000 0.53910  0.96740  0.45640  Biso   1.000  C
  C156     1.0000 0.03910  0.46740  0.45640  Biso   1.000  C
  C157     1.0000 0.53910  0.03260  0.95640  Biso   1.000  C
  C158     1.0000 0.03910  0.53260  0.95640  Biso   1.000  C
  C159     1.0000 0.46090  0.03260  0.54360  Biso   1.000  C
  C160     1.0000 0.96090  0.53260  0.54360  Biso   1.000  C
  H145     1.0000 0.44000  0.93600  0.03930  Biso   1.000  H
  H146     1.0000 0.94000  0.43600  0.03930  Biso   1.000  H
  H147     1.0000 0.56000  0.93600  0.46070  Biso   1.000  H
  H148     1.0000 0.06000  0.43600  0.46070  Biso   1.000  H
  H149     1.0000 0.56000  0.06400  0.96070  Biso   1.000  H
  H150     1.0000 0.06000  0.56400  0.96070  Biso   1.000  H
  H151     1.0000 0.44000  0.06400  0.53930  Biso   1.000  H
  H152     1.0000 0.94000  0.56400  0.53930  Biso   1.000  H
  H153     1.0000 0.45250  0.98700  0.11100  Biso   1.000  H
  H154     1.0000 0.95250  0.48700  0.11100  Biso   1.000  H
  H155     1.0000 0.54750  0.98700  0.38900  Biso   1.000  H
  H156     1.0000 0.04750  0.48700  0.38900  Biso   1.000  H
  H157     1.0000 0.54750  0.01300  0.88900  Biso   1.000  H
  H158     1.0000 0.04750  0.51300  0.88900  Biso   1.000  H
  H159     1.0000 0.45250  0.01300  0.61100  Biso   1.000  H
  H160     1.0000 0.95250  0.51300  0.61100  Biso   1.000  H
  O49      1.0000 0.37770  0.10590  0.12000  Biso   1.000  O
  O50      1.0000 0.87770  0.60590  0.12000  Biso   1.000  O
  O51      1.0000 0.62230  0.10590  0.38000  Biso   1.000  O
  O52      1.0000 0.12230  0.60590  0.38000  Biso   1.000  O
  O53      1.0000 0.62230  0.89410  0.88000  Biso   1.000  O
  O54      1.0000 0.12230  0.39410  0.88000  Biso   1.000  O
  O55      1.0000 0.37770  0.89410  0.62000  Biso   1.000  O
  O56      1.0000 0.87770  0.39410  0.62000  Biso   1.000  O
  O57      1.0000 0.07260  0.12330  0.84800  Biso   1.000  O
  O58      1.0000 0.57260  0.62330  0.84800  Biso   1.000  O
  O59      1.0000 0.92740  0.12330  0.65200  Biso   1.000  O
  O60      1.0000 0.42740  0.62330  0.65200  Biso   1.000  O
  O61      1.0000 0.92740  0.87670  0.15200  Biso   1.000  O
  O62      1.0000 0.42740  0.37670  0.15200  Biso   1.000  O
  O63      1.0000 0.07260  0.87670  0.34800  Biso   1.000  O
  O64      1.0000 0.57260  0.37670  0.34800  Biso   1.000  O
