data_image0
_cell_length_a       11.8532
_cell_length_b       21.4355
_cell_length_c       14.2472
_cell_angle_alpha    90
_cell_angle_beta     113.751
_cell_angle_gamma    90

_symmetry_space_group_name_H-M    "P 1"
_symmetry_int_tables_number       1

loop_
  _symmetry_equiv_pos_as_xyz
  'x, y, z'

loop_
  _atom_site_label
  _atom_site_occupancy
  _atom_site_fract_x
  _atom_site_fract_y
  _atom_site_fract_z
  _atom_site_thermal_displace_type
  _atom_site_B_iso_or_equiv
  _atom_site_type_symbol
  Cu1      1.0000 0.96380  0.46815  0.58219  Biso   1.000  Cu
  Cu2      1.0000 0.03620  0.96815  0.91781  Biso   1.000  Cu
  Cu3      1.0000 0.03620  0.53185  0.41781  Biso   1.000  Cu
  Cu4      1.0000 0.96380  0.03185  0.08219  Biso   1.000  Cu
  Cu5      1.0000 0.15720  0.42266  0.82180  Biso   1.000  Cu
  Cu6      1.0000 0.84280  0.92266  0.67820  Biso   1.000  Cu
  Cu7      1.0000 0.84280  0.57734  0.17820  Biso   1.000  Cu
  Cu8      1.0000 0.15720  0.07734  0.32180  Biso   1.000  Cu
  Cu9      1.0000 0.10928  0.43800  0.01845  Biso   1.000  Cu
  Cu10     1.0000 0.89072  0.93800  0.48155  Biso   1.000  Cu
  Cu11     1.0000 0.89072  0.56200  0.98155  Biso   1.000  Cu
  Cu12     1.0000 0.10928  0.06200  0.51845  Biso   1.000  Cu
  Cu13     1.0000 0.94572  0.53439  0.79269  Biso   1.000  Cu
  Cu14     1.0000 0.05428  0.03439  0.70731  Biso   1.000  Cu
  Cu15     1.0000 0.05428  0.46561  0.20731  Biso   1.000  Cu
  Cu16     1.0000 0.94572  0.96561  0.29269  Biso   1.000  Cu
  O1       1.0000 0.24320  0.31774  0.86339  Biso   1.000  O
  O2       1.0000 0.75680  0.81774  0.63661  Biso   1.000  O
  O3       1.0000 0.75680  0.68226  0.13661  Biso   1.000  O
  O4       1.0000 0.24320  0.18226  0.36339  Biso   1.000  O
  N1       1.0000 0.31130  0.42094  0.79339  Biso   1.000  N
  N2       1.0000 0.68870  0.92094  0.70661  Biso   1.000  N
  N3       1.0000 0.68870  0.57906  0.20661  Biso   1.000  N
  N4       1.0000 0.31130  0.07906  0.29339  Biso   1.000  N
  N5       1.0000 0.80510  0.40042  0.46470  Biso   1.000  N
  N6       1.0000 0.19490  0.90042  0.03530  Biso   1.000  N
  N7       1.0000 0.19490  0.59958  0.53530  Biso   1.000  N
  N8       1.0000 0.80510  0.09958  0.96470  Biso   1.000  N
  N9       1.0000 0.91290  0.64200  0.73460  Biso   1.000  N
  N10      1.0000 0.08710  0.14200  0.76540  Biso   1.000  N
  N11      1.0000 0.08710  0.35800  0.26540  Biso   1.000  N
  N12      1.0000 0.91290  0.85800  0.23460  Biso   1.000  N
  N13      1.0000 0.14780  0.33070  0.06290  Biso   1.000  N
  N14      1.0000 0.85220  0.83070  0.43710  Biso   1.000  N
  N15      1.0000 0.85220  0.66930  0.93710  Biso   1.000  N
  N16      1.0000 0.14780  0.16930  0.56290  Biso   1.000  N
  N17      1.0000 0.07650  0.45799  0.51010  Biso   1.000  N
  N18      1.0000 0.92350  0.95799  0.98990  Biso   1.000  N
  N19      1.0000 0.92350  0.54201  0.48990  Biso   1.000  N
  N20      1.0000 0.07650  0.04201  0.01010  Biso   1.000  N
  N21      1.0000 0.14710  0.41632  0.51810  Biso   1.000  N
  N22      1.0000 0.85290  0.91632  0.98190  Biso   1.000  N
  N23      1.0000 0.85290  0.58368  0.48190  Biso   1.000  N
  N24      1.0000 0.14710  0.08368  0.01810  Biso   1.000  N
  N25      1.0000 0.21430  0.37672  0.52720  Biso   1.000  N
  N26      1.0000 0.78570  0.87672  0.97280  Biso   1.000  N
  N27      1.0000 0.78570  0.62328  0.47280  Biso   1.000  N
  N28      1.0000 0.21430  0.12328  0.02720  Biso   1.000  N
  N29      1.0000 0.85850  0.49428  0.65543  Biso   1.000  N
  N30      1.0000 0.14150  0.99428  0.84457  Biso   1.000  N
  N31      1.0000 0.14150  0.50572  0.34457  Biso   1.000  N
  N32      1.0000 0.85850  0.00572  0.15543  Biso   1.000  N
  N33      1.0000 0.74870  0.48559  0.61740  Biso   1.000  N
  N34      1.0000 0.25130  0.98559  0.88260  Biso   1.000  N
  N35      1.0000 0.25130  0.51441  0.38260  Biso   1.000  N
  N36      1.0000 0.74870  0.01441  0.11740  Biso   1.000  N
  N37      1.0000 0.64660  0.47660  0.58240  Biso   1.000  N
  N38      1.0000 0.35340  0.97660  0.91760  Biso   1.000  N
  N39      1.0000 0.35340  0.52340  0.41760  Biso   1.000  N
  N40      1.0000 0.64660  0.02340  0.08240  Biso   1.000  N
  N41      1.0000 0.04430  0.39868  0.67937  Biso   1.000  N
  N42      1.0000 0.95570  0.89868  0.82063  Biso   1.000  N
  N43      1.0000 0.95570  0.60132  0.32063  Biso   1.000  N
  N44      1.0000 0.04430  0.10132  0.17937  Biso   1.000  N
  N45      1.0000 0.02490  0.34499  0.65250  Biso   1.000  N
  N46      1.0000 0.97510  0.84499  0.84750  Biso   1.000  N
  N47      1.0000 0.97510  0.65501  0.34750  Biso   1.000  N
  N48      1.0000 0.02490  0.15501  0.15250  Biso   1.000  N
  N49      1.0000 0.00740  0.29390  0.62700  Biso   1.000  N
  N50      1.0000 0.99260  0.79390  0.87300  Biso   1.000  N
  N51      1.0000 0.99260  0.70610  0.37300  Biso   1.000  N
  N52      1.0000 0.00740  0.20610  0.12700  Biso   1.000  N
  N53      1.0000 0.09710  0.52759  0.76490  Biso   1.000  N
  N54      1.0000 0.90290  0.02759  0.73510  Biso   1.000  N
  N55      1.0000 0.90290  0.47241  0.23510  Biso   1.000  N
  N56      1.0000 0.09710  0.97241  0.26490  Biso   1.000  N
  N57      1.0000 0.16400  0.57239  0.78060  Biso   1.000  N
  N58      1.0000 0.83600  0.07239  0.71940  Biso   1.000  N
  N59      1.0000 0.83600  0.42761  0.21940  Biso   1.000  N
  N60      1.0000 0.16400  0.92761  0.28060  Biso   1.000  N
  N61      1.0000 0.22760  0.61420  0.79180  Biso   1.000  N
  N62      1.0000 0.77240  0.11420  0.70820  Biso   1.000  N
  N63      1.0000 0.77240  0.38580  0.20820  Biso   1.000  N
  N64      1.0000 0.22760  0.88580  0.29180  Biso   1.000  N
  N65      1.0000 0.01780  0.41830  0.86970  Biso   1.000  N
  N66      1.0000 0.98220  0.91830  0.63030  Biso   1.000  N
  N67      1.0000 0.98220  0.58170  0.13030  Biso   1.000  N
  N68      1.0000 0.01780  0.08170  0.36970  Biso   1.000  N
  N69      1.0000 0.92550  0.38747  0.82950  Biso   1.000  N
  N70      1.0000 0.07450  0.88747  0.67050  Biso   1.000  N
  N71      1.0000 0.07450  0.61253  0.17050  Biso   1.000  N
  N72      1.0000 0.92550  0.11253  0.32950  Biso   1.000  N
  N73      1.0000 0.83780  0.36044  0.78990  Biso   1.000  N
  N74      1.0000 0.16220  0.86044  0.71010  Biso   1.000  N
  N75      1.0000 0.16220  0.63956  0.21010  Biso   1.000  N
  N76      1.0000 0.83780  0.13956  0.28990  Biso   1.000  N
  N77      1.0000 0.24380  0.44712  0.97011  Biso   1.000  N
  N78      1.0000 0.75620  0.94712  0.52989  Biso   1.000  N
  N79      1.0000 0.75620  0.55288  0.02989  Biso   1.000  N
  N80      1.0000 0.24380  0.05288  0.47011  Biso   1.000  N
  N81      1.0000 0.34890  0.45130  0.01840  Biso   1.000  N
  N82      1.0000 0.65110  0.95130  0.48160  Biso   1.000  N
  N83      1.0000 0.65110  0.54870  0.98160  Biso   1.000  N
  N84      1.0000 0.34890  0.04870  0.51840  Biso   1.000  N
  N85      1.0000 0.45160  0.44940  0.06560  Biso   1.000  N
  N86      1.0000 0.54840  0.94940  0.43440  Biso   1.000  N
  N87      1.0000 0.54840  0.55060  0.93440  Biso   1.000  N
  N88      1.0000 0.45160  0.05060  0.56560  Biso   1.000  N
  N89      1.0000 0.80160  0.53395  0.83490  Biso   1.000  N
  N90      1.0000 0.19840  0.03395  0.66510  Biso   1.000  N
  N91      1.0000 0.19840  0.46605  0.16510  Biso   1.000  N
  N92      1.0000 0.80160  0.96605  0.33490  Biso   1.000  N
  N93      1.0000 0.70890  0.56312  0.78180  Biso   1.000  N
  N94      1.0000 0.29110  0.06312  0.71820  Biso   1.000  N
  N95      1.0000 0.29110  0.43688  0.21820  Biso   1.000  N
  N96      1.0000 0.70890  0.93688  0.28180  Biso   1.000  N
  N97      1.0000 0.62190  0.58908  0.73280  Biso   1.000  N
  N98      1.0000 0.37810  0.08908  0.76720  Biso   1.000  N
  N99      1.0000 0.37810  0.41092  0.26720  Biso   1.000  N
  N100     1.0000 0.62190  0.91092  0.23280  Biso   1.000  N
  N101     1.0000 0.03300  0.55913  0.94173  Biso   1.000  N
  N102     1.0000 0.96700  0.05913  0.55827  Biso   1.000  N
  N103     1.0000 0.96700  0.44087  0.05827  Biso   1.000  N
  N104     1.0000 0.03300  0.94087  0.44173  Biso   1.000  N
  N105     1.0000 0.11820  0.59470  0.97390  Biso   1.000  N
  N106     1.0000 0.88180  0.09470  0.52610  Biso   1.000  N
  N107     1.0000 0.88180  0.40530  0.02610  Biso   1.000  N
  N108     1.0000 0.11820  0.90530  0.47390  Biso   1.000  N
  N109     1.0000 0.19850  0.62710  0.00540  Biso   1.000  N
  N110     1.0000 0.80150  0.12710  0.49460  Biso   1.000  N
  N111     1.0000 0.80150  0.37290  0.99460  Biso   1.000  N
  N112     1.0000 0.19850  0.87290  0.50540  Biso   1.000  N
  C1       1.0000 0.33530  0.46475  0.73750  Biso   1.000  C
  C2       1.0000 0.66470  0.96475  0.76250  Biso   1.000  C
  C3       1.0000 0.66470  0.53525  0.26250  Biso   1.000  C
  C4       1.0000 0.33530  0.03525  0.23750  Biso   1.000  C
  H1       1.0000 0.27970  0.49740  0.71190  Biso   1.000  H
  H2       1.0000 0.72030  0.99740  0.78810  Biso   1.000  H
  H3       1.0000 0.72030  0.50260  0.28810  Biso   1.000  H
  H4       1.0000 0.27970  0.00260  0.21190  Biso   1.000  H
  C5       1.0000 0.43930  0.46388  0.71570  Biso   1.000  C
  C6       1.0000 0.56070  0.96388  0.78430  Biso   1.000  C
  C7       1.0000 0.56070  0.53612  0.28430  Biso   1.000  C
  C8       1.0000 0.43930  0.03612  0.21570  Biso   1.000  C
  H5       1.0000 0.45220  0.49480  0.67530  Biso   1.000  H
  H6       1.0000 0.54780  0.99480  0.82470  Biso   1.000  H
  H7       1.0000 0.54780  0.50520  0.32470  Biso   1.000  H
  H8       1.0000 0.45220  0.00520  0.17530  Biso   1.000  H
  C9       1.0000 0.52280  0.41638  0.75510  Biso   1.000  C
  C10      1.0000 0.47720  0.91638  0.74490  Biso   1.000  C
  C11      1.0000 0.47720  0.58362  0.24490  Biso   1.000  C
  C12      1.0000 0.52280  0.08362  0.25510  Biso   1.000  C
  H9       1.0000 0.59390  0.41490  0.74260  Biso   1.000  H
  H10      1.0000 0.40610  0.91490  0.75740  Biso   1.000  H
  H11      1.0000 0.40610  0.58510  0.25740  Biso   1.000  H
  H12      1.0000 0.59390  0.08510  0.24260  Biso   1.000  H
  C13      1.0000 0.49950  0.37076  0.81370  Biso   1.000  C
  C14      1.0000 0.50050  0.87076  0.68630  Biso   1.000  C
  C15      1.0000 0.50050  0.62924  0.18630  Biso   1.000  C
  C16      1.0000 0.49950  0.12924  0.31370  Biso   1.000  C
  H13      1.0000 0.55480  0.33820  0.84110  Biso   1.000  H
  H14      1.0000 0.44520  0.83820  0.65890  Biso   1.000  H
  H15      1.0000 0.44520  0.66180  0.15890  Biso   1.000  H
  H16      1.0000 0.55480  0.16180  0.34110  Biso   1.000  H
  C17      1.0000 0.39290  0.37422  0.83100  Biso   1.000  C
  C18      1.0000 0.60710  0.87422  0.66900  Biso   1.000  C
  C19      1.0000 0.60710  0.62578  0.16900  Biso   1.000  C
  C20      1.0000 0.39290  0.12578  0.33100  Biso   1.000  C
  C21      1.0000 0.35280  0.32254  0.88210  Biso   1.000  C
  C22      1.0000 0.64720  0.82254  0.61790  Biso   1.000  C
  C23      1.0000 0.64720  0.67746  0.11790  Biso   1.000  C
  C24      1.0000 0.35280  0.17746  0.38210  Biso   1.000  C
  C25      1.0000 0.44260  0.27706  0.94910  Biso   1.000  C
  C26      1.0000 0.55740  0.77706  0.55090  Biso   1.000  C
  C27      1.0000 0.55740  0.72294  0.05090  Biso   1.000  C
  C28      1.0000 0.44260  0.22294  0.44910  Biso   1.000  C
  C29      1.0000 0.55970  0.29447  0.01810  Biso   1.000  C
  C30      1.0000 0.44030  0.79447  0.48190  Biso   1.000  C
  C31      1.0000 0.44030  0.70553  0.98190  Biso   1.000  C
  C32      1.0000 0.55970  0.20553  0.51810  Biso   1.000  C
  H17      1.0000 0.58500  0.33580  0.02150  Biso   1.000  H
  H18      1.0000 0.41500  0.83580  0.47850  Biso   1.000  H
  H19      1.0000 0.41500  0.66420  0.97850  Biso   1.000  H
  H20      1.0000 0.58500  0.16420  0.52150  Biso   1.000  H
  C33      1.0000 0.63790  0.25050  0.08140  Biso   1.000  C
  C34      1.0000 0.36210  0.75050  0.41860  Biso   1.000  C
  C35      1.0000 0.36210  0.74950  0.91860  Biso   1.000  C
  C36      1.0000 0.63790  0.24950  0.58140  Biso   1.000  C
  H21      1.0000 0.71610  0.26230  0.12770  Biso   1.000  H
  H22      1.0000 0.28390  0.76230  0.37230  Biso   1.000  H
  H23      1.0000 0.28390  0.73770  0.87230  Biso   1.000  H
  H24      1.0000 0.71610  0.23770  0.62770  Biso   1.000  H
  C37      1.0000 0.60120  0.18880  0.07680  Biso   1.000  C
  C38      1.0000 0.39880  0.68880  0.42320  Biso   1.000  C
  C39      1.0000 0.39880  0.81120  0.92320  Biso   1.000  C
  C40      1.0000 0.60120  0.31120  0.57680  Biso   1.000  C
  H25      1.0000 0.65500  0.15930  0.11940  Biso   1.000  H
  H26      1.0000 0.34500  0.65930  0.38060  Biso   1.000  H
  H27      1.0000 0.34500  0.84070  0.88060  Biso   1.000  H
  H28      1.0000 0.65500  0.34070  0.61940  Biso   1.000  H
  C41      1.0000 0.48520  0.17127  0.00930  Biso   1.000  C
  C42      1.0000 0.51480  0.67127  0.49070  Biso   1.000  C
  C43      1.0000 0.51480  0.82873  0.99070  Biso   1.000  C
  C44      1.0000 0.48520  0.32873  0.50930  Biso   1.000  C
  H29      1.0000 0.46060  0.12980  0.00600  Biso   1.000  H
  H30      1.0000 0.53940  0.62980  0.49400  Biso   1.000  H
  H31      1.0000 0.53940  0.87020  0.99400  Biso   1.000  H
  H32      1.0000 0.46060  0.37020  0.50600  Biso   1.000  H
  C45      1.0000 0.40570  0.21511  0.94680  Biso   1.000  C
  C46      1.0000 0.59430  0.71511  0.55320  Biso   1.000  C
  C47      1.0000 0.59430  0.78489  0.05320  Biso   1.000  C
  C48      1.0000 0.40570  0.28489  0.44680  Biso   1.000  C
  H33      1.0000 0.32650  0.20340  0.90260  Biso   1.000  H
  H34      1.0000 0.67350  0.70340  0.59740  Biso   1.000  H
  H35      1.0000 0.67350  0.79660  0.09740  Biso   1.000  H
  H36      1.0000 0.32650  0.29660  0.40260  Biso   1.000  H
  C49      1.0000 0.74330  0.36410  0.41530  Biso   1.000  C
  C50      1.0000 0.25670  0.86410  0.08470  Biso   1.000  C
  C51      1.0000 0.25670  0.63590  0.58470  Biso   1.000  C
  C52      1.0000 0.74330  0.13590  0.91530  Biso   1.000  C
  C53      1.0000 0.66230  0.31600  0.35020  Biso   1.000  C
  C54      1.0000 0.33770  0.81600  0.14980  Biso   1.000  C
  C55      1.0000 0.33770  0.68400  0.64980  Biso   1.000  C
  C56      1.0000 0.66230  0.18400  0.85020  Biso   1.000  C
  H37      1.0000 0.61670  0.33270  0.28290  Biso   1.000  H
  H38      1.0000 0.38330  0.83270  0.21710  Biso   1.000  H
  H39      1.0000 0.38330  0.66730  0.71710  Biso   1.000  H
  H40      1.0000 0.61670  0.16730  0.78290  Biso   1.000  H
  H41      1.0000 0.60610  0.30250  0.37920  Biso   1.000  H
  H42      1.0000 0.39390  0.80250  0.12080  Biso   1.000  H
  H43      1.0000 0.39390  0.69750  0.62080  Biso   1.000  H
  H44      1.0000 0.60610  0.19750  0.87920  Biso   1.000  H
  H45      1.0000 0.71090  0.28120  0.34560  Biso   1.000  H
  H46      1.0000 0.28910  0.78120  0.15440  Biso   1.000  H
  H47      1.0000 0.28910  0.71880  0.65440  Biso   1.000  H
  H48      1.0000 0.71090  0.21880  0.84560  Biso   1.000  H
  C57      1.0000 0.94790  0.67810  0.69710  Biso   1.000  C
  C58      1.0000 0.05210  0.17810  0.80290  Biso   1.000  C
  C59      1.0000 0.05210  0.32190  0.30290  Biso   1.000  C
  C60      1.0000 0.94790  0.82190  0.19710  Biso   1.000  C
  C61      1.0000 0.99480  0.72520  0.64550  Biso   1.000  C
  C62      1.0000 0.00520  0.22520  0.85450  Biso   1.000  C
  C63      1.0000 0.00520  0.27480  0.35450  Biso   1.000  C
  C64      1.0000 0.99480  0.77480  0.14550  Biso   1.000  C
  H49      1.0000 0.01750  0.70500  0.59560  Biso   1.000  H
  H50      1.0000 0.98250  0.20500  0.90440  Biso   1.000  H
  H51      1.0000 0.98250  0.29500  0.40440  Biso   1.000  H
  H52      1.0000 0.01750  0.79500  0.09560  Biso   1.000  H
  H53      1.0000 0.93160  0.75550  0.61210  Biso   1.000  H
  H54      1.0000 0.06840  0.25550  0.88790  Biso   1.000  H
  H55      1.0000 0.06840  0.24450  0.38790  Biso   1.000  H
  H56      1.0000 0.93160  0.74450  0.11210  Biso   1.000  H
  H57      1.0000 0.06560  0.74560  0.69550  Biso   1.000  H
  H58      1.0000 0.93440  0.24560  0.80450  Biso   1.000  H
  H59      1.0000 0.93440  0.25440  0.30450  Biso   1.000  H
  H60      1.0000 0.06560  0.75440  0.19550  Biso   1.000  H
  C65      1.0000 0.22820  0.30070  0.09940  Biso   1.000  C
  C66      1.0000 0.77180  0.80070  0.40060  Biso   1.000  C
  C67      1.0000 0.77180  0.69930  0.90060  Biso   1.000  C
  C68      1.0000 0.22820  0.19930  0.59940  Biso   1.000  C
  C69      1.0000 0.30700  0.26380  0.15110  Biso   1.000  C
  C70      1.0000 0.69300  0.76380  0.34890  Biso   1.000  C
  C71      1.0000 0.69300  0.73620  0.84890  Biso   1.000  C
  C72      1.0000 0.30700  0.23620  0.65110  Biso   1.000  C
  H61      1.0000 0.36380  0.25650  0.11970  Biso   1.000  H
  H62      1.0000 0.63620  0.75650  0.38030  Biso   1.000  H
  H63      1.0000 0.63620  0.74350  0.88030  Biso   1.000  H
  H64      1.0000 0.36380  0.24350  0.61970  Biso   1.000  H
  H65      1.0000 0.26860  0.22510  0.15580  Biso   1.000  H
  H66      1.0000 0.73140  0.72510  0.34420  Biso   1.000  H
  H67      1.0000 0.73140  0.77490  0.84420  Biso   1.000  H
  H68      1.0000 0.26860  0.27490  0.65580  Biso   1.000  H
  H69      1.0000 0.35050  0.28060  0.21860  Biso   1.000  H
  H70      1.0000 0.64950  0.78060  0.28140  Biso   1.000  H
  H71      1.0000 0.64950  0.71940  0.78140  Biso   1.000  H
  H72      1.0000 0.35050  0.21940  0.71860  Biso   1.000  H
