data_image0
_cell_length_a       22.9413
_cell_length_b       14.4026
_cell_length_c       10.7951
_cell_angle_alpha    90
_cell_angle_beta     97.2433
_cell_angle_gamma    90

_symmetry_space_group_name_H-M    "P 1"
_symmetry_int_tables_number       1

loop_
  _symmetry_equiv_pos_as_xyz
  'x, y, z'

loop_
  _atom_site_label
  _atom_site_occupancy
  _atom_site_fract_x
  _atom_site_fract_y
  _atom_site_fract_z
  _atom_site_thermal_displace_type
  _atom_site_B_iso_or_equiv
  _atom_site_type_symbol
  Cu1      1.0000 0.34371  0.03354  0.16888  Biso   1.000  Cu
  Cu2      1.0000 0.84371  0.53354  0.16888  Biso   1.000  Cu
  Cu3      1.0000 0.65629  0.03354  0.33112  Biso   1.000  Cu
  Cu4      1.0000 0.15629  0.53354  0.33112  Biso   1.000  Cu
  Cu5      1.0000 0.65629  0.96646  0.83112  Biso   1.000  Cu
  Cu6      1.0000 0.15629  0.46646  0.83112  Biso   1.000  Cu
  Cu7      1.0000 0.34371  0.96646  0.66888  Biso   1.000  Cu
  Cu8      1.0000 0.84371  0.46646  0.66888  Biso   1.000  Cu
  Cu9      1.0000 0.42220  0.04035  0.96144  Biso   1.000  Cu
  Cu10     1.0000 0.92220  0.54035  0.96144  Biso   1.000  Cu
  Cu11     1.0000 0.57780  0.04035  0.53856  Biso   1.000  Cu
  Cu12     1.0000 0.07780  0.54035  0.53856  Biso   1.000  Cu
  Cu13     1.0000 0.57780  0.95965  0.03856  Biso   1.000  Cu
  Cu14     1.0000 0.07780  0.45965  0.03856  Biso   1.000  Cu
  Cu15     1.0000 0.42220  0.95965  0.46144  Biso   1.000  Cu
  Cu16     1.0000 0.92220  0.45965  0.46144  Biso   1.000  Cu
  Cu17     1.0000 0.50000  0.04119  0.75000  Biso   1.000  Cu
  Cu18     1.0000 0.00000  0.54119  0.75000  Biso   1.000  Cu
  Cu19     1.0000 0.50000  0.95881  0.25000  Biso   1.000  Cu
  Cu20     1.0000 0.00000  0.45881  0.25000  Biso   1.000  Cu
  O1       1.0000 0.26111  0.96834  0.06730  Biso   1.000  O
  O2       1.0000 0.76111  0.46834  0.06730  Biso   1.000  O
  O3       1.0000 0.73889  0.96834  0.43270  Biso   1.000  O
  O4       1.0000 0.23889  0.46834  0.43270  Biso   1.000  O
  O5       1.0000 0.73889  0.03166  0.93270  Biso   1.000  O
  O6       1.0000 0.23889  0.53166  0.93270  Biso   1.000  O
  O7       1.0000 0.26111  0.03166  0.56730  Biso   1.000  O
  O8       1.0000 0.76111  0.53166  0.56730  Biso   1.000  O
  N1       1.0000 0.27773  0.10471  0.20330  Biso   1.000  N
  N2       1.0000 0.77773  0.60471  0.20330  Biso   1.000  N
  N3       1.0000 0.72227  0.10471  0.29670  Biso   1.000  N
  N4       1.0000 0.22227  0.60471  0.29670  Biso   1.000  N
  N5       1.0000 0.72227  0.89529  0.79670  Biso   1.000  N
  N6       1.0000 0.22227  0.39529  0.79670  Biso   1.000  N
  N7       1.0000 0.27773  0.89529  0.70330  Biso   1.000  N
  N8       1.0000 0.77773  0.39529  0.70330  Biso   1.000  N
  N9       1.0000 0.38566  0.11480  0.07500  Biso   1.000  N
  N10      1.0000 0.88566  0.61480  0.07500  Biso   1.000  N
  N11      1.0000 0.61434  0.11480  0.42500  Biso   1.000  N
  N12      1.0000 0.11434  0.61480  0.42500  Biso   1.000  N
  N13      1.0000 0.61434  0.88520  0.92500  Biso   1.000  N
  N14      1.0000 0.11434  0.38520  0.92500  Biso   1.000  N
  N15      1.0000 0.38566  0.88520  0.57500  Biso   1.000  N
  N16      1.0000 0.88566  0.38520  0.57500  Biso   1.000  N
  N17      1.0000 0.37296  0.18540  0.06170  Biso   1.000  N
  N18      1.0000 0.87296  0.68540  0.06170  Biso   1.000  N
  N19      1.0000 0.62704  0.18540  0.43830  Biso   1.000  N
  N20      1.0000 0.12704  0.68540  0.43830  Biso   1.000  N
  N21      1.0000 0.62704  0.81460  0.93830  Biso   1.000  N
  N22      1.0000 0.12704  0.31460  0.93830  Biso   1.000  N
  N23      1.0000 0.37296  0.81460  0.56170  Biso   1.000  N
  N24      1.0000 0.87296  0.31460  0.56170  Biso   1.000  N
  N25      1.0000 0.36150  0.25300  0.05340  Biso   1.000  N
  N26      1.0000 0.86150  0.75300  0.05340  Biso   1.000  N
  N27      1.0000 0.63850  0.25300  0.44660  Biso   1.000  N
  N28      1.0000 0.13850  0.75300  0.44660  Biso   1.000  N
  N29      1.0000 0.63850  0.74700  0.94660  Biso   1.000  N
  N30      1.0000 0.13850  0.24700  0.94660  Biso   1.000  N
  N31      1.0000 0.36150  0.74700  0.55340  Biso   1.000  N
  N32      1.0000 0.86150  0.24700  0.55340  Biso   1.000  N
  N33      1.0000 0.46707  0.11782  0.86570  Biso   1.000  N
  N34      1.0000 0.96707  0.61782  0.86570  Biso   1.000  N
  N35      1.0000 0.53293  0.11782  0.63430  Biso   1.000  N
  N36      1.0000 0.03293  0.61782  0.63430  Biso   1.000  N
  N37      1.0000 0.53293  0.88218  0.13430  Biso   1.000  N
  N38      1.0000 0.03293  0.38218  0.13430  Biso   1.000  N
  N39      1.0000 0.46707  0.88218  0.36570  Biso   1.000  N
  N40      1.0000 0.96707  0.38218  0.36570  Biso   1.000  N
  N41      1.0000 0.46064  0.19130  0.85740  Biso   1.000  N
  N42      1.0000 0.96064  0.69130  0.85740  Biso   1.000  N
  N43      1.0000 0.53936  0.19130  0.64260  Biso   1.000  N
  N44      1.0000 0.03936  0.69130  0.64260  Biso   1.000  N
  N45      1.0000 0.53936  0.80870  0.14260  Biso   1.000  N
  N46      1.0000 0.03936  0.30870  0.14260  Biso   1.000  N
  N47      1.0000 0.46064  0.80870  0.35740  Biso   1.000  N
  N48      1.0000 0.96064  0.30870  0.35740  Biso   1.000  N
  N49      1.0000 0.45480  0.26000  0.85270  Biso   1.000  N
  N50      1.0000 0.95480  0.76000  0.85270  Biso   1.000  N
  N51      1.0000 0.54520  0.26000  0.64730  Biso   1.000  N
  N52      1.0000 0.04520  0.76000  0.64730  Biso   1.000  N
  N53      1.0000 0.54520  0.74000  0.14730  Biso   1.000  N
  N54      1.0000 0.04520  0.24000  0.14730  Biso   1.000  N
  N55      1.0000 0.45480  0.74000  0.35270  Biso   1.000  N
  N56      1.0000 0.95480  0.24000  0.35270  Biso   1.000  N
  N57      1.0000 0.53327  0.96360  0.63600  Biso   1.000  N
  N58      1.0000 0.03327  0.46360  0.63600  Biso   1.000  N
  N59      1.0000 0.46673  0.96360  0.86400  Biso   1.000  N
  N60      1.0000 0.96673  0.46360  0.86400  Biso   1.000  N
  N61      1.0000 0.46673  0.03640  0.36400  Biso   1.000  N
  N62      1.0000 0.96673  0.53640  0.36400  Biso   1.000  N
  N63      1.0000 0.53327  0.03640  0.13600  Biso   1.000  N
  N64      1.0000 0.03327  0.53640  0.13600  Biso   1.000  N
  N65      1.0000 0.53908  0.89020  0.64410  Biso   1.000  N
  N66      1.0000 0.03908  0.39020  0.64410  Biso   1.000  N
  N67      1.0000 0.46092  0.89020  0.85590  Biso   1.000  N
  N68      1.0000 0.96092  0.39020  0.85590  Biso   1.000  N
  N69      1.0000 0.46092  0.10980  0.35590  Biso   1.000  N
  N70      1.0000 0.96092  0.60980  0.35590  Biso   1.000  N
  N71      1.0000 0.53908  0.10980  0.14410  Biso   1.000  N
  N72      1.0000 0.03908  0.60980  0.14410  Biso   1.000  N
  N73      1.0000 0.54425  0.82150  0.64790  Biso   1.000  N
  N74      1.0000 0.04425  0.32150  0.64790  Biso   1.000  N
  N75      1.0000 0.45575  0.82150  0.85210  Biso   1.000  N
  N76      1.0000 0.95575  0.32150  0.85210  Biso   1.000  N
  N77      1.0000 0.45575  0.17850  0.35210  Biso   1.000  N
  N78      1.0000 0.95575  0.67850  0.35210  Biso   1.000  N
  N79      1.0000 0.54425  0.17850  0.14790  Biso   1.000  N
  N80      1.0000 0.04425  0.67850  0.14790  Biso   1.000  N
  N81      1.0000 0.34050  0.03470  0.81840  Biso   1.000  N
  N82      1.0000 0.84050  0.53470  0.81840  Biso   1.000  N
  N83      1.0000 0.65950  0.03470  0.68160  Biso   1.000  N
  N84      1.0000 0.15950  0.53470  0.68160  Biso   1.000  N
  N85      1.0000 0.65950  0.96530  0.18160  Biso   1.000  N
  N86      1.0000 0.15950  0.46530  0.18160  Biso   1.000  N
  N87      1.0000 0.34050  0.96530  0.31840  Biso   1.000  N
  N88      1.0000 0.84050  0.46530  0.31840  Biso   1.000  N
  N89      1.0000 0.29588  0.07000  0.83500  Biso   1.000  N
  N90      1.0000 0.79588  0.57000  0.83500  Biso   1.000  N
  N91      1.0000 0.70412  0.07000  0.66500  Biso   1.000  N
  N92      1.0000 0.20412  0.57000  0.66500  Biso   1.000  N
  N93      1.0000 0.70412  0.93000  0.16500  Biso   1.000  N
  N94      1.0000 0.20412  0.43000  0.16500  Biso   1.000  N
  N95      1.0000 0.29588  0.93000  0.33500  Biso   1.000  N
  N96      1.0000 0.79588  0.43000  0.33500  Biso   1.000  N
  N97      1.0000 0.25451  0.10320  0.85300  Biso   1.000  N
  N98      1.0000 0.75451  0.60320  0.85300  Biso   1.000  N
  N99      1.0000 0.74549  0.10320  0.64700  Biso   1.000  N
  N100     1.0000 0.24549  0.60320  0.64700  Biso   1.000  N
  N101     1.0000 0.74549  0.89680  0.14700  Biso   1.000  N
  N102     1.0000 0.24549  0.39680  0.14700  Biso   1.000  N
  N103     1.0000 0.25451  0.89680  0.35300  Biso   1.000  N
  N104     1.0000 0.75451  0.39680  0.35300  Biso   1.000  N
  N105     1.0000 0.39990  0.96143  0.09190  Biso   1.000  N
  N106     1.0000 0.89990  0.46143  0.09190  Biso   1.000  N
  N107     1.0000 0.60010  0.96143  0.40810  Biso   1.000  N
  N108     1.0000 0.10010  0.46143  0.40810  Biso   1.000  N
  N109     1.0000 0.60010  0.03857  0.90810  Biso   1.000  N
  N110     1.0000 0.10010  0.53857  0.90810  Biso   1.000  N
  N111     1.0000 0.39990  0.03857  0.59190  Biso   1.000  N
  N112     1.0000 0.89990  0.53857  0.59190  Biso   1.000  N
  N113     1.0000 0.38486  0.89120  0.07330  Biso   1.000  N
  N114     1.0000 0.88486  0.39120  0.07330  Biso   1.000  N
  N115     1.0000 0.61514  0.89120  0.42670  Biso   1.000  N
  N116     1.0000 0.11514  0.39120  0.42670  Biso   1.000  N
  N117     1.0000 0.61514  0.10880  0.92670  Biso   1.000  N
  N118     1.0000 0.11514  0.60880  0.92670  Biso   1.000  N
  N119     1.0000 0.38486  0.10880  0.57330  Biso   1.000  N
  N120     1.0000 0.88486  0.60880  0.57330  Biso   1.000  N
  N121     1.0000 0.37103  0.82560  0.05840  Biso   1.000  N
  N122     1.0000 0.87103  0.32560  0.05840  Biso   1.000  N
  N123     1.0000 0.62897  0.82560  0.44160  Biso   1.000  N
  N124     1.0000 0.12897  0.32560  0.44160  Biso   1.000  N
  N125     1.0000 0.62897  0.17440  0.94160  Biso   1.000  N
  N126     1.0000 0.12897  0.67440  0.94160  Biso   1.000  N
  N127     1.0000 0.37103  0.17440  0.55840  Biso   1.000  N
  N128     1.0000 0.87103  0.67440  0.55840  Biso   1.000  N
  C1       1.0000 0.28610  0.17040  0.27690  Biso   1.000  C
  C2       1.0000 0.78610  0.67040  0.27690  Biso   1.000  C
  C3       1.0000 0.71390  0.17040  0.22310  Biso   1.000  C
  C4       1.0000 0.21390  0.67040  0.22310  Biso   1.000  C
  C5       1.0000 0.71390  0.82960  0.72310  Biso   1.000  C
  C6       1.0000 0.21390  0.32960  0.72310  Biso   1.000  C
  C7       1.0000 0.28610  0.82960  0.77690  Biso   1.000  C
  C8       1.0000 0.78610  0.32960  0.77690  Biso   1.000  C
  H1       1.0000 0.32410  0.18880  0.30730  Biso   1.000  H
  H2       1.0000 0.82410  0.68880  0.30730  Biso   1.000  H
  H3       1.0000 0.67590  0.18880  0.19270  Biso   1.000  H
  H4       1.0000 0.17590  0.68880  0.19270  Biso   1.000  H
  H5       1.0000 0.67590  0.81120  0.69270  Biso   1.000  H
  H6       1.0000 0.17590  0.31120  0.69270  Biso   1.000  H
  H7       1.0000 0.32410  0.81120  0.80730  Biso   1.000  H
  H8       1.0000 0.82410  0.31120  0.80730  Biso   1.000  H
  C9       1.0000 0.23970  0.21480  0.31240  Biso   1.000  C
  C10      1.0000 0.73970  0.71480  0.31240  Biso   1.000  C
  C11      1.0000 0.76030  0.21480  0.18760  Biso   1.000  C
  C12      1.0000 0.26030  0.71480  0.18760  Biso   1.000  C
  C13      1.0000 0.76030  0.78520  0.68760  Biso   1.000  C
  C14      1.0000 0.26030  0.28520  0.68760  Biso   1.000  C
  C15      1.0000 0.23970  0.78520  0.81240  Biso   1.000  C
  C16      1.0000 0.73970  0.28520  0.81240  Biso   1.000  C
  H9       1.0000 0.24640  0.26470  0.36710  Biso   1.000  H
  H10      1.0000 0.74640  0.76470  0.36710  Biso   1.000  H
  H11      1.0000 0.75360  0.26470  0.13290  Biso   1.000  H
  H12      1.0000 0.25360  0.76470  0.13290  Biso   1.000  H
  H13      1.0000 0.75360  0.73530  0.63290  Biso   1.000  H
  H14      1.0000 0.25360  0.23530  0.63290  Biso   1.000  H
  H15      1.0000 0.24640  0.73530  0.86710  Biso   1.000  H
  H16      1.0000 0.74640  0.23530  0.86710  Biso   1.000  H
  C17      1.0000 0.18420  0.19090  0.27310  Biso   1.000  C
  C18      1.0000 0.68420  0.69090  0.27310  Biso   1.000  C
  C19      1.0000 0.81580  0.19090  0.22690  Biso   1.000  C
  C20      1.0000 0.31580  0.69090  0.22690  Biso   1.000  C
  C21      1.0000 0.81580  0.80910  0.72690  Biso   1.000  C
  C22      1.0000 0.31580  0.30910  0.72690  Biso   1.000  C
  C23      1.0000 0.18420  0.80910  0.77310  Biso   1.000  C
  C24      1.0000 0.68420  0.30910  0.77310  Biso   1.000  C
  H17      1.0000 0.15290  0.22240  0.30110  Biso   1.000  H
  H18      1.0000 0.65290  0.72240  0.30110  Biso   1.000  H
  H19      1.0000 0.84710  0.22240  0.19890  Biso   1.000  H
  H20      1.0000 0.34710  0.72240  0.19890  Biso   1.000  H
  H21      1.0000 0.84710  0.77760  0.69890  Biso   1.000  H
  H22      1.0000 0.34710  0.27760  0.69890  Biso   1.000  H
  H23      1.0000 0.15290  0.77760  0.80110  Biso   1.000  H
  H24      1.0000 0.65290  0.27760  0.80110  Biso   1.000  H
  C25      1.0000 0.17508  0.12290  0.19500  Biso   1.000  C
  C26      1.0000 0.67508  0.62290  0.19500  Biso   1.000  C
  C27      1.0000 0.82492  0.12290  0.30500  Biso   1.000  C
  C28      1.0000 0.32492  0.62290  0.30500  Biso   1.000  C
  C29      1.0000 0.82492  0.87710  0.80500  Biso   1.000  C
  C30      1.0000 0.32492  0.37710  0.80500  Biso   1.000  C
  C31      1.0000 0.17508  0.87710  0.69500  Biso   1.000  C
  C32      1.0000 0.67508  0.37710  0.69500  Biso   1.000  C
  H25      1.0000 0.13740  0.10330  0.16450  Biso   1.000  H
  H26      1.0000 0.63740  0.60330  0.16450  Biso   1.000  H
  H27      1.0000 0.86260  0.10330  0.33550  Biso   1.000  H
  H28      1.0000 0.36260  0.60330  0.33550  Biso   1.000  H
  H29      1.0000 0.86260  0.89670  0.83550  Biso   1.000  H
  H30      1.0000 0.36260  0.39670  0.83550  Biso   1.000  H
  H31      1.0000 0.13740  0.89670  0.66450  Biso   1.000  H
  H32      1.0000 0.63740  0.39670  0.66450  Biso   1.000  H
  C33      1.0000 0.22256  0.08270  0.16080  Biso   1.000  C
  C34      1.0000 0.72256  0.58270  0.16080  Biso   1.000  C
  C35      1.0000 0.77744  0.08270  0.33920  Biso   1.000  C
  C36      1.0000 0.27744  0.58270  0.33920  Biso   1.000  C
  C37      1.0000 0.77744  0.91730  0.83920  Biso   1.000  C
  C38      1.0000 0.27744  0.41730  0.83920  Biso   1.000  C
  C39      1.0000 0.22256  0.91730  0.66080  Biso   1.000  C
  C40      1.0000 0.72256  0.41730  0.66080  Biso   1.000  C
  C41      1.0000 0.21662  0.00760  0.08110  Biso   1.000  C
  C42      1.0000 0.71662  0.50760  0.08110  Biso   1.000  C
  C43      1.0000 0.78338  0.00760  0.41890  Biso   1.000  C
  C44      1.0000 0.28338  0.50760  0.41890  Biso   1.000  C
  C45      1.0000 0.78338  0.99240  0.91890  Biso   1.000  C
  C46      1.0000 0.28338  0.49240  0.91890  Biso   1.000  C
  C47      1.0000 0.21662  0.99240  0.58110  Biso   1.000  C
  C48      1.0000 0.71662  0.49240  0.58110  Biso   1.000  C
  C49      1.0000 0.15805  0.98020  0.02400  Biso   1.000  C
  C50      1.0000 0.65805  0.48020  0.02400  Biso   1.000  C
  C51      1.0000 0.84195  0.98020  0.47600  Biso   1.000  C
  C52      1.0000 0.34195  0.48020  0.47600  Biso   1.000  C
  C53      1.0000 0.84195  0.01980  0.97600  Biso   1.000  C
  C54      1.0000 0.34195  0.51980  0.97600  Biso   1.000  C
  C55      1.0000 0.15805  0.01980  0.52400  Biso   1.000  C
  C56      1.0000 0.65805  0.51980  0.52400  Biso   1.000  C
  C57      1.0000 0.12341  0.02960  0.94080  Biso   1.000  C
  C58      1.0000 0.62341  0.52960  0.94080  Biso   1.000  C
  C59      1.0000 0.87659  0.02960  0.55920  Biso   1.000  C
  C60      1.0000 0.37659  0.52960  0.55920  Biso   1.000  C
  C61      1.0000 0.87659  0.97040  0.05920  Biso   1.000  C
  C62      1.0000 0.37659  0.47040  0.05920  Biso   1.000  C
  C63      1.0000 0.12341  0.97040  0.44080  Biso   1.000  C
  C64      1.0000 0.62341  0.47040  0.44080  Biso   1.000  C
  H33      1.0000 0.13720  0.08690  0.91780  Biso   1.000  H
  H34      1.0000 0.63720  0.58690  0.91780  Biso   1.000  H
  H35      1.0000 0.86280  0.08690  0.58220  Biso   1.000  H
  H36      1.0000 0.36280  0.58690  0.58220  Biso   1.000  H
  H37      1.0000 0.86280  0.91310  0.08220  Biso   1.000  H
  H38      1.0000 0.36280  0.41310  0.08220  Biso   1.000  H
  H39      1.0000 0.13720  0.91310  0.41780  Biso   1.000  H
  H40      1.0000 0.63720  0.41310  0.41780  Biso   1.000  H
  C65      1.0000 0.06890  0.00250  0.88640  Biso   1.000  C
  C66      1.0000 0.56890  0.50250  0.88640  Biso   1.000  C
  C67      1.0000 0.93110  0.00250  0.61360  Biso   1.000  C
  C68      1.0000 0.43110  0.50250  0.61360  Biso   1.000  C
  C69      1.0000 0.93110  0.99750  0.11360  Biso   1.000  C
  C70      1.0000 0.43110  0.49750  0.11360  Biso   1.000  C
  C71      1.0000 0.06890  0.99750  0.38640  Biso   1.000  C
  C72      1.0000 0.56890  0.49750  0.38640  Biso   1.000  C
  H41      1.0000 0.04710  0.04010  0.82780  Biso   1.000  H
  H42      1.0000 0.54710  0.54010  0.82780  Biso   1.000  H
  H43      1.0000 0.95290  0.04010  0.67220  Biso   1.000  H
  H44      1.0000 0.45290  0.54010  0.67220  Biso   1.000  H
  H45      1.0000 0.95290  0.95990  0.17220  Biso   1.000  H
  H46      1.0000 0.45290  0.45990  0.17220  Biso   1.000  H
  H47      1.0000 0.04710  0.95990  0.32780  Biso   1.000  H
  H48      1.0000 0.54710  0.45990  0.32780  Biso   1.000  H
  C73      1.0000 0.04930  0.92660  0.91710  Biso   1.000  C
  C74      1.0000 0.54930  0.42660  0.91710  Biso   1.000  C
  C75      1.0000 0.95070  0.92660  0.58290  Biso   1.000  C
  C76      1.0000 0.45070  0.42660  0.58290  Biso   1.000  C
  C77      1.0000 0.95070  0.07340  0.08290  Biso   1.000  C
  C78      1.0000 0.45070  0.57340  0.08290  Biso   1.000  C
  C79      1.0000 0.04930  0.07340  0.41710  Biso   1.000  C
  C80      1.0000 0.54930  0.57340  0.41710  Biso   1.000  C
  H49      1.0000 0.01240  0.90530  0.88320  Biso   1.000  H
  H50      1.0000 0.51240  0.40530  0.88320  Biso   1.000  H
  H51      1.0000 0.98760  0.90530  0.61680  Biso   1.000  H
  H52      1.0000 0.48760  0.40530  0.61680  Biso   1.000  H
  H53      1.0000 0.98760  0.09470  0.11680  Biso   1.000  H
  H54      1.0000 0.48760  0.59470  0.11680  Biso   1.000  H
  H55      1.0000 0.01240  0.09470  0.38320  Biso   1.000  H
  H56      1.0000 0.51240  0.59470  0.38320  Biso   1.000  H
  C81      1.0000 0.08270  0.87930  0.99780  Biso   1.000  C
  C82      1.0000 0.58270  0.37930  0.99780  Biso   1.000  C
  C83      1.0000 0.91730  0.87930  0.50220  Biso   1.000  C
  C84      1.0000 0.41730  0.37930  0.50220  Biso   1.000  C
  C85      1.0000 0.91730  0.12070  0.00220  Biso   1.000  C
  C86      1.0000 0.41730  0.62070  0.00220  Biso   1.000  C
  C87      1.0000 0.08270  0.12070  0.49780  Biso   1.000  C
  C88      1.0000 0.58270  0.62070  0.49780  Biso   1.000  C
  H57      1.0000 0.06820  0.82280  0.02230  Biso   1.000  H
  H58      1.0000 0.56820  0.32280  0.02230  Biso   1.000  H
  H59      1.0000 0.93180  0.82280  0.47770  Biso   1.000  H
  H60      1.0000 0.43180  0.32280  0.47770  Biso   1.000  H
  H61      1.0000 0.93180  0.17720  0.97770  Biso   1.000  H
  H62      1.0000 0.43180  0.67720  0.97770  Biso   1.000  H
  H63      1.0000 0.06820  0.17720  0.52230  Biso   1.000  H
  H64      1.0000 0.56820  0.67720  0.52230  Biso   1.000  H
  C89      1.0000 0.13770  0.90450  0.05140  Biso   1.000  C
  C90      1.0000 0.63770  0.40450  0.05140  Biso   1.000  C
  C91      1.0000 0.86230  0.90450  0.44860  Biso   1.000  C
  C92      1.0000 0.36230  0.40450  0.44860  Biso   1.000  C
  C93      1.0000 0.86230  0.09550  0.94860  Biso   1.000  C
  C94      1.0000 0.36230  0.59550  0.94860  Biso   1.000  C
  C95      1.0000 0.13770  0.09550  0.55140  Biso   1.000  C
  C96      1.0000 0.63770  0.59550  0.55140  Biso   1.000  C
  H65      1.0000 0.15950  0.86510  0.10770  Biso   1.000  H
  H66      1.0000 0.65950  0.36510  0.10770  Biso   1.000  H
  H67      1.0000 0.84050  0.86510  0.39230  Biso   1.000  H
  H68      1.0000 0.34050  0.36510  0.39230  Biso   1.000  H
  H69      1.0000 0.84050  0.13490  0.89230  Biso   1.000  H
  H70      1.0000 0.34050  0.63490  0.89230  Biso   1.000  H
  H71      1.0000 0.15950  0.13490  0.60770  Biso   1.000  H
  H72      1.0000 0.65950  0.63490  0.60770  Biso   1.000  H
