data_image0
_cell_length_a       4.8218
_cell_length_b       19.8911
_cell_length_c       18.295
_cell_angle_alpha    90
_cell_angle_beta     95.077
_cell_angle_gamma    90

_symmetry_space_group_name_H-M    "P 1"
_symmetry_int_tables_number       1

loop_
  _symmetry_equiv_pos_as_xyz
  'x, y, z'

loop_
  _atom_site_label
  _atom_site_occupancy
  _atom_site_fract_x
  _atom_site_fract_y
  _atom_site_fract_z
  _atom_site_thermal_displace_type
  _atom_site_B_iso_or_equiv
  _atom_site_type_symbol
  Cu1      1.0000 0.02202  0.70356  0.20240  Biso   1.000  Cu
  Cu2      1.0000 0.47798  0.20356  0.29760  Biso   1.000  Cu
  Cu3      1.0000 0.97798  0.29644  0.79760  Biso   1.000  Cu
  Cu4      1.0000 0.52202  0.79644  0.70240  Biso   1.000  Cu
  Cu5      1.0000 0.57966  0.84259  0.25126  Biso   1.000  Cu
  Cu6      1.0000 0.92034  0.34259  0.24874  Biso   1.000  Cu
  Cu7      1.0000 0.42034  0.15741  0.74874  Biso   1.000  Cu
  Cu8      1.0000 0.07966  0.65741  0.75126  Biso   1.000  Cu
  Cu9      1.0000 0.10730  0.97000  0.29650  Biso   1.000  Cu
  Cu10     1.0000 0.39270  0.47000  0.20350  Biso   1.000  Cu
  Cu11     1.0000 0.89270  0.03000  0.70350  Biso   1.000  Cu
  Cu12     1.0000 0.60730  0.53000  0.79650  Biso   1.000  Cu
  P1       1.0000 0.07710  0.82540  0.34847  Biso   1.000  P
  P2       1.0000 0.42290  0.32540  0.15153  Biso   1.000  P
  P3       1.0000 0.92290  0.17460  0.65153  Biso   1.000  P
  P4       1.0000 0.57710  0.67460  0.84847  Biso   1.000  P
  P5       1.0000 0.92760  0.55722  0.26840  Biso   1.000  P
  P6       1.0000 0.57240  0.05722  0.23160  Biso   1.000  P
  P7       1.0000 0.07240  0.44278  0.73160  Biso   1.000  P
  P8       1.0000 0.42760  0.94278  0.76840  Biso   1.000  P
  P9       1.0000 0.57610  0.64722  0.65321  Biso   1.000  P
  P10      1.0000 0.92390  0.14722  0.84679  Biso   1.000  P
  P11      1.0000 0.42390  0.35278  0.34679  Biso   1.000  P
  P12      1.0000 0.07610  0.85278  0.15321  Biso   1.000  P
  O1       1.0000 0.89010  0.78672  0.29080  Biso   1.000  O
  O2       1.0000 0.60990  0.28672  0.20920  Biso   1.000  O
  O3       1.0000 0.10990  0.21328  0.70920  Biso   1.000  O
  O4       1.0000 0.39010  0.71328  0.79080  Biso   1.000  O
  O5       1.0000 0.38390  0.81674  0.33670  Biso   1.000  O
  O6       1.0000 0.11610  0.31674  0.16330  Biso   1.000  O
  O7       1.0000 0.61610  0.18326  0.66330  Biso   1.000  O
  O8       1.0000 0.88390  0.68326  0.83670  Biso   1.000  O
  O9       1.0000 0.98730  0.89870  0.34760  Biso   1.000  O
  O10      1.0000 0.51270  0.39870  0.15240  Biso   1.000  O
  O11      1.0000 0.01270  0.10130  0.65240  Biso   1.000  O
  O12      1.0000 0.48730  0.60130  0.84760  Biso   1.000  O
  O13      1.0000 0.83560  0.62747  0.24300  Biso   1.000  O
  O14      1.0000 0.66440  0.12747  0.25700  Biso   1.000  O
  O15      1.0000 0.16440  0.37253  0.75700  Biso   1.000  O
  O16      1.0000 0.33560  0.87253  0.74300  Biso   1.000  O
  O17      1.0000 0.23380  0.54588  0.25670  Biso   1.000  O
  O18      1.0000 0.26620  0.04588  0.24330  Biso   1.000  O
  O19      1.0000 0.76620  0.45412  0.74330  Biso   1.000  O
  O20      1.0000 0.73380  0.95412  0.75670  Biso   1.000  O
  O21      1.0000 0.75320  0.50290  0.22760  Biso   1.000  O
  O22      1.0000 0.74680  0.00290  0.27240  Biso   1.000  O
  O23      1.0000 0.24680  0.49710  0.77240  Biso   1.000  O
  O24      1.0000 0.25320  0.99710  0.72760  Biso   1.000  O
  O25      1.0000 0.68750  0.71906  0.65634  Biso   1.000  O
  O26      1.0000 0.81250  0.21906  0.84366  Biso   1.000  O
  O27      1.0000 0.31250  0.28094  0.34366  Biso   1.000  O
  O28      1.0000 0.18750  0.78094  0.15634  Biso   1.000  O
  O29      1.0000 0.76070  0.60497  0.71067  Biso   1.000  O
  O30      1.0000 0.73930  0.10497  0.78933  Biso   1.000  O
  O31      1.0000 0.23930  0.39503  0.28933  Biso   1.000  O
  O32      1.0000 0.26070  0.89503  0.21067  Biso   1.000  O
  O33      1.0000 0.26910  0.64022  0.66515  Biso   1.000  O
  O34      1.0000 0.23090  0.14022  0.83485  Biso   1.000  O
  O35      1.0000 0.73090  0.35978  0.33485  Biso   1.000  O
  O36      1.0000 0.76910  0.85978  0.16515  Biso   1.000  O
  O37      1.0000 0.35560  0.69004  0.27114  Biso   1.000  O
  O38      1.0000 0.14440  0.19004  0.22886  Biso   1.000  O
  O39      1.0000 0.64440  0.30996  0.72886  Biso   1.000  O
  O40      1.0000 0.85560  0.80996  0.77114  Biso   1.000  O
  H1       1.0000 0.38050  0.71900  0.30520  Biso   1.000  H
  H2       1.0000 0.11950  0.21900  0.19480  Biso   1.000  H
  H3       1.0000 0.61950  0.28100  0.69480  Biso   1.000  H
  H4       1.0000 0.88050  0.78100  0.80520  Biso   1.000  H
  H5       1.0000 0.51060  0.67070  0.26710  Biso   1.000  H
  H6       1.0000 0.98940  0.17070  0.23290  Biso   1.000  H
  H7       1.0000 0.48940  0.32930  0.73290  Biso   1.000  H
  H8       1.0000 0.01060  0.82930  0.76710  Biso   1.000  H
  O41      1.0000 0.69550  0.71097  0.13042  Biso   1.000  O
  O42      1.0000 0.80450  0.21097  0.36958  Biso   1.000  O
  O43      1.0000 0.30450  0.28903  0.86958  Biso   1.000  O
  O44      1.0000 0.19550  0.78903  0.63042  Biso   1.000  O
  H9       1.0000 0.63470  0.74190  0.10130  Biso   1.000  H
  H10      1.0000 0.86530  0.24190  0.39870  Biso   1.000  H
  H11      1.0000 0.36530  0.25810  0.89870  Biso   1.000  H
  H12      1.0000 0.13470  0.75810  0.60130  Biso   1.000  H
  H13      1.0000 0.59650  0.67620  0.12090  Biso   1.000  H
  H14      1.0000 0.90350  0.17620  0.37910  Biso   1.000  H
  H15      1.0000 0.40350  0.32380  0.87910  Biso   1.000  H
  H16      1.0000 0.09650  0.82380  0.62090  Biso   1.000  H
  O45      1.0000 0.28820  0.62100  0.12460  Biso   1.000  O
  O46      1.0000 0.21180  0.12100  0.37540  Biso   1.000  O
  O47      1.0000 0.71180  0.37900  0.87540  Biso   1.000  O
  O48      1.0000 0.78820  0.87900  0.62460  Biso   1.000  O
  H17      1.0000 0.31160  0.59150  0.15820  Biso   1.000  H
  H18      1.0000 0.18840  0.09150  0.34180  Biso   1.000  H
  H19      1.0000 0.68840  0.40850  0.84180  Biso   1.000  H
  H20      1.0000 0.81160  0.90850  0.65820  Biso   1.000  H
  H21      1.0000 0.18300  0.60410  0.08960  Biso   1.000  H
  H22      1.0000 0.31700  0.10410  0.41040  Biso   1.000  H
  H23      1.0000 0.81700  0.39590  0.91040  Biso   1.000  H
  H24      1.0000 0.68300  0.89590  0.58960  Biso   1.000  H
  O49      1.0000 0.77900  0.95160  0.48310  Biso   1.000  O
  O50      1.0000 0.72100  0.45160  0.01690  Biso   1.000  O
  O51      1.0000 0.22100  0.04840  0.51690  Biso   1.000  O
  O52      1.0000 0.27900  0.54840  0.98310  Biso   1.000  O
  C1       1.0000 0.10340  0.71880  0.44620  Biso   1.000  C
  C2       1.0000 0.39660  0.21880  0.05380  Biso   1.000  C
  C3       1.0000 0.89660  0.28120  0.55380  Biso   1.000  C
  C4       1.0000 0.60340  0.78120  0.94620  Biso   1.000  C
  C5       1.0000 0.95680  0.66980  0.40670  Biso   1.000  C
  C6       1.0000 0.54320  0.16980  0.09330  Biso   1.000  C
  C7       1.0000 0.04320  0.33020  0.59330  Biso   1.000  C
  C8       1.0000 0.45680  0.83020  0.90670  Biso   1.000  C
  H25      1.0000 0.80370  0.68210  0.37500  Biso   1.000  H
  H26      1.0000 0.69630  0.18210  0.12500  Biso   1.000  H
  H27      1.0000 0.19630  0.31790  0.62500  Biso   1.000  H
  H28      1.0000 0.30370  0.81790  0.87500  Biso   1.000  H
  C9       1.0000 0.02990  0.60260  0.41250  Biso   1.000  C
  C10      1.0000 0.47010  0.10260  0.08750  Biso   1.000  C
  C11      1.0000 0.97010  0.39740  0.58750  Biso   1.000  C
  C12      1.0000 0.52990  0.89740  0.91250  Biso   1.000  C
  C13      1.0000 0.24930  0.58550  0.46400  Biso   1.000  C
  C14      1.0000 0.25070  0.08550  0.03600  Biso   1.000  C
  C15      1.0000 0.75070  0.41450  0.53600  Biso   1.000  C
  C16      1.0000 0.74930  0.91450  0.96400  Biso   1.000  C
  H29      1.0000 0.29660  0.54040  0.47030  Biso   1.000  H
  H30      1.0000 0.20340  0.04040  0.02970  Biso   1.000  H
  H31      1.0000 0.70340  0.45960  0.52970  Biso   1.000  H
  H32      1.0000 0.79660  0.95960  0.97030  Biso   1.000  H
  C17      1.0000 0.39830  0.63290  0.50580  Biso   1.000  C
  C18      1.0000 0.10170  0.13290  0.99420  Biso   1.000  C
  C19      1.0000 0.60170  0.36710  0.49420  Biso   1.000  C
  C20      1.0000 0.89830  0.86710  0.00580  Biso   1.000  C
  C21      1.0000 0.33270  0.69990  0.49440  Biso   1.000  C
  C22      1.0000 0.16730  0.19990  0.00560  Biso   1.000  C
  C23      1.0000 0.66730  0.30010  0.50560  Biso   1.000  C
  C24      1.0000 0.83270  0.80010  0.99440  Biso   1.000  C
  H33      1.0000 0.44150  0.73290  0.51900  Biso   1.000  H
  H34      1.0000 0.05850  0.23290  0.98100  Biso   1.000  H
  H35      1.0000 0.55850  0.26710  0.48100  Biso   1.000  H
  H36      1.0000 0.94150  0.76710  0.01900  Biso   1.000  H
  C25      1.0000 0.02510  0.79210  0.43700  Biso   1.000  C
  C26      1.0000 0.47490  0.29210  0.06300  Biso   1.000  C
  C27      1.0000 0.97490  0.20790  0.56300  Biso   1.000  C
  C28      1.0000 0.52510  0.70790  0.93700  Biso   1.000  C
  H37      1.0000 0.13470  0.81810  0.47400  Biso   1.000  H
  H38      1.0000 0.36530  0.31810  0.02600  Biso   1.000  H
  H39      1.0000 0.86530  0.18190  0.52600  Biso   1.000  H
  H40      1.0000 0.63470  0.68190  0.97400  Biso   1.000  H
  H41      1.0000 0.83070  0.79740  0.44570  Biso   1.000  H
  H42      1.0000 0.66930  0.29740  0.05430  Biso   1.000  H
  H43      1.0000 0.16930  0.20260  0.55430  Biso   1.000  H
  H44      1.0000 0.33070  0.70260  0.94570  Biso   1.000  H
  C29      1.0000 0.87620  0.55050  0.36440  Biso   1.000  C
  C30      1.0000 0.62380  0.05050  0.13560  Biso   1.000  C
  C31      1.0000 0.12380  0.44950  0.63560  Biso   1.000  C
  C32      1.0000 0.37620  0.94950  0.86440  Biso   1.000  C
  H45      1.0000 0.67870  0.55440  0.37000  Biso   1.000  H
  H46      1.0000 0.82130  0.05440  0.13000  Biso   1.000  H
  H47      1.0000 0.32130  0.44560  0.63000  Biso   1.000  H
  H48      1.0000 0.17870  0.94560  0.87000  Biso   1.000  H
  H49      1.0000 0.93550  0.50620  0.38140  Biso   1.000  H
  H50      1.0000 0.56450  0.00620  0.11860  Biso   1.000  H
  H51      1.0000 0.06450  0.49380  0.61860  Biso   1.000  H
  H52      1.0000 0.43550  0.99380  0.88140  Biso   1.000  H
  C33      1.0000 0.62450  0.61300  0.56480  Biso   1.000  C
  C34      1.0000 0.87550  0.11300  0.93520  Biso   1.000  C
  C35      1.0000 0.37550  0.38700  0.43520  Biso   1.000  C
  C36      1.0000 0.12450  0.88700  0.06480  Biso   1.000  C
  H53      1.0000 0.80300  0.62790  0.55010  Biso   1.000  H
  H54      1.0000 0.69700  0.12790  0.94990  Biso   1.000  H
  H55      1.0000 0.19700  0.37210  0.44990  Biso   1.000  H
  H56      1.0000 0.30300  0.87210  0.05010  Biso   1.000  H
  H57      1.0000 0.63010  0.56430  0.56840  Biso   1.000  H
  H58      1.0000 0.86990  0.06430  0.93160  Biso   1.000  H
  H59      1.0000 0.36990  0.43570  0.43160  Biso   1.000  H
  H60      1.0000 0.13010  0.93570  0.06840  Biso   1.000  H
  O53      1.0000 0.43960  0.96410  0.37140  Biso   1.000  O
  O54      1.0000 0.06040  0.46410  0.12860  Biso   1.000  O
  O55      1.0000 0.56040  0.03590  0.62860  Biso   1.000  O
  O56      1.0000 0.93960  0.53590  0.87140  Biso   1.000  O
  Cu13     1.0000 0.40480  0.46330  0.23450  Biso   1.000  Cu
  Cu14     1.0000 0.09520  0.96330  0.26550  Biso   1.000  Cu
  Cu15     1.0000 0.59520  0.53670  0.76550  Biso   1.000  Cu
  Cu16     1.0000 0.90480  0.03670  0.73450  Biso   1.000  Cu
  O57      1.0000 0.78500  0.00570  0.54620  Biso   1.000  O
  O58      1.0000 0.71500  0.50570  0.95380  Biso   1.000  O
  O59      1.0000 0.21500  0.99430  0.45380  Biso   1.000  O
  O60      1.0000 0.28500  0.49430  0.04620  Biso   1.000  O
