data_image0
_cell_length_a       8.8381
_cell_length_b       9.0763
_cell_length_c       12.3127
_cell_angle_alpha    95.218
_cell_angle_beta     101.701
_cell_angle_gamma    111.775

_symmetry_space_group_name_H-M    "P 1"
_symmetry_int_tables_number       1

loop_
  _symmetry_equiv_pos_as_xyz
  'x, y, z'

loop_
  _atom_site_label
  _atom_site_occupancy
  _atom_site_fract_x
  _atom_site_fract_y
  _atom_site_fract_z
  _atom_site_thermal_displace_type
  _atom_site_B_iso_or_equiv
  _atom_site_type_symbol
  C1       1.0000 0.66610  0.45130  0.27210  Biso   1.000  C
  C2       1.0000 0.33390  0.54870  0.72790  Biso   1.000  C
  H1       1.0000 0.67200  0.54080  0.32470  Biso   1.000  H
  H2       1.0000 0.32800  0.45920  0.67530  Biso   1.000  H
  H3       1.0000 0.57740  0.35460  0.28120  Biso   1.000  H
  H4       1.0000 0.42260  0.64540  0.71880  Biso   1.000  H
  C3       1.0000 0.83210  0.43230  0.30360  Biso   1.000  C
  C4       1.0000 0.16790  0.56770  0.69640  Biso   1.000  C
  C5       1.0000 0.83540  0.28050  0.28090  Biso   1.000  C
  C6       1.0000 0.16460  0.71950  0.71910  Biso   1.000  C
  C7       1.0000 0.67500  0.13320  0.22710  Biso   1.000  C
  C8       1.0000 0.32500  0.86680  0.77290  Biso   1.000  C
  H5       1.0000 0.70070  0.05520  0.18510  Biso   1.000  H
  H6       1.0000 0.29930  0.94480  0.81490  Biso   1.000  H
  H7       1.0000 0.59770  0.16380  0.17730  Biso   1.000  H
  H8       1.0000 0.40230  0.83620  0.82270  Biso   1.000  H
  H9       1.0000 0.62470  0.08700  0.28490  Biso   1.000  H
  H10      1.0000 0.37530  0.91300  0.71510  Biso   1.000  H
  C9       1.0000 0.98920  0.26360  0.31220  Biso   1.000  C
  C10      1.0000 0.01080  0.73640  0.68780  Biso   1.000  C
  C11      1.0000 0.99560  0.09860  0.29480  Biso   1.000  C
  C12      1.0000 0.00440  0.90140  0.70520  Biso   1.000  C
  H11      1.0000 0.88900  0.01820  0.29930  Biso   1.000  H
  H12      1.0000 0.11100  0.98180  0.70070  Biso   1.000  H
  H13      1.0000 0.08300  0.09620  0.35580  Biso   1.000  H
  H14      1.0000 0.91700  0.90380  0.64420  Biso   1.000  H
  C13      1.0000 0.13820  0.39860  0.36240  Biso   1.000  C
  C14      1.0000 0.86180  0.60140  0.63760  Biso   1.000  C
  C15      1.0000 0.30470  0.38230  0.39070  Biso   1.000  C
  C16      1.0000 0.69530  0.61770  0.60930  Biso   1.000  C
  H15      1.0000 0.29610  0.28680  0.34480  Biso   1.000  H
  H16      1.0000 0.70390  0.71320  0.65520  Biso   1.000  H
  H17      1.0000 0.33350  0.37460  0.46890  Biso   1.000  H
  H18      1.0000 0.66650  0.62540  0.53110  Biso   1.000  H
  H19      1.0000 0.39060  0.47500  0.37660  Biso   1.000  H
  H20      1.0000 0.60940  0.52500  0.62340  Biso   1.000  H
  C17      1.0000 0.13220  0.54940  0.38920  Biso   1.000  C
  C18      1.0000 0.86780  0.45060  0.61080  Biso   1.000  C
  C19      1.0000 0.29320  0.68960  0.45330  Biso   1.000  C
  C20      1.0000 0.70680  0.31040  0.54670  Biso   1.000  C
  H21      1.0000 0.36490  0.64750  0.49920  Biso   1.000  H
  H22      1.0000 0.63510  0.35250  0.50080  Biso   1.000  H
  H23      1.0000 0.26510  0.75760  0.50420  Biso   1.000  H
  H24      1.0000 0.73490  0.24240  0.49580  Biso   1.000  H
  C21      1.0000 0.97980  0.56750  0.35890  Biso   1.000  C
  C22      1.0000 0.02020  0.43250  0.64110  Biso   1.000  C
  C23      1.0000 0.97040  0.72880  0.38780  Biso   1.000  C
  C24      1.0000 0.02960  0.27120  0.61220  Biso   1.000  C
  H25      1.0000 0.08180  0.80950  0.42150  Biso   1.000  H
  H26      1.0000 0.91820  0.19050  0.57850  Biso   1.000  H
  H27      1.0000 0.90170  0.72170  0.43990  Biso   1.000  H
  H28      1.0000 0.09830  0.27830  0.56010  Biso   1.000  H
  H29      1.0000 0.92190  0.75760  0.32030  Biso   1.000  H
  H30      1.0000 0.07810  0.24240  0.67970  Biso   1.000  H
  Cu1      1.0000 0.36936  0.65715  0.10302  Biso   1.000  Cu
  Cu2      1.0000 0.63064  0.34285  0.89698  Biso   1.000  Cu
  Cu3      1.0000 0.75725  0.74193  0.99008  Biso   1.000  Cu
  Cu4      1.0000 0.24275  0.25807  0.00992  Biso   1.000  Cu
  P1       1.0000 0.60867  0.48588  0.13116  Biso   1.000  P
  P2       1.0000 0.39133  0.51412  0.86884  Biso   1.000  P
  P3       1.0000 0.03598  0.04387  0.16233  Biso   1.000  P
  P4       1.0000 0.96402  0.95613  0.83767  Biso   1.000  P
  P5       1.0000 0.41249  0.81403  0.36826  Biso   1.000  P
  P6       1.0000 0.58751  0.18597  0.63174  Biso   1.000  P
  O1       1.0000 0.42030  0.46190  0.11040  Biso   1.000  O
  O2       1.0000 0.57970  0.53810  0.88960  Biso   1.000  O
  O3       1.0000 0.71540  0.65670  0.12310  Biso   1.000  O
  O4       1.0000 0.28460  0.34330  0.87690  Biso   1.000  O
  O5       1.0000 0.62180  0.35590  0.05150  Biso   1.000  O
  O6       1.0000 0.37820  0.64410  0.94850  Biso   1.000  O
  O7       1.0000 0.87280  0.96070  0.07310  Biso   1.000  O
  O8       1.0000 0.12720  0.03930  0.92690  Biso   1.000  O
  O9       1.0000 0.11720  0.91800  0.18160  Biso   1.000  O
  O10      1.0000 0.88280  0.08200  0.81840  Biso   1.000  O
  H31      1.0000 0.19480  0.94020  0.24200  Biso   1.000  H
  H32      1.0000 0.80520  0.05980  0.75800  Biso   1.000  H
  O11      1.0000 0.15870  0.19480  0.13650  Biso   1.000  O
  O12      1.0000 0.84130  0.80520  0.86350  Biso   1.000  O
  O13      1.0000 0.40850  0.71460  0.26330  Biso   1.000  O
  O14      1.0000 0.59150  0.28540  0.73670  Biso   1.000  O
  O15      1.0000 0.60090  0.88810  0.44130  Biso   1.000  O
  O16      1.0000 0.39910  0.11190  0.55870  Biso   1.000  O
  H33      1.0000 0.62090  0.92850  0.50890  Biso   1.000  H
  H34      1.0000 0.37910  0.07150  0.49110  Biso   1.000  H
  O17      1.0000 0.35180  0.94850  0.35210  Biso   1.000  O
  O18      1.0000 0.64820  0.05150  0.64790  Biso   1.000  O
  O19      1.0000 0.31630  0.84540  0.07010  Biso   1.000  O
  O20      1.0000 0.68370  0.15460  0.92990  Biso   1.000  O
  O21      1.0000 0.09440  0.47670  0.09460  Biso   1.000  O
  O22      1.0000 0.90560  0.52330  0.90540  Biso   1.000  O
