data_image0
_cell_length_a       8.2565
_cell_length_b       10.422
_cell_length_c       23.99
_cell_angle_alpha    90
_cell_angle_beta     96.68
_cell_angle_gamma    90

_symmetry_space_group_name_H-M    "P 1"
_symmetry_int_tables_number       1

loop_
  _symmetry_equiv_pos_as_xyz
  'x, y, z'

loop_
  _atom_site_label
  _atom_site_occupancy
  _atom_site_fract_x
  _atom_site_fract_y
  _atom_site_fract_z
  _atom_site_thermal_displace_type
  _atom_site_B_iso_or_equiv
  _atom_site_type_symbol
  Cu1      1.0000 0.35405  0.82533  0.02669  Biso   1.000  Cu
  Cu2      1.0000 0.64595  0.32533  0.47331  Biso   1.000  Cu
  Cu3      1.0000 0.64595  0.17467  0.97331  Biso   1.000  Cu
  Cu4      1.0000 0.35405  0.67467  0.52669  Biso   1.000  Cu
  Cu5      1.0000 0.00000  0.00000  0.00000  Biso   1.000  Cu
  Cu6      1.0000 0.00000  0.50000  0.50000  Biso   1.000  Cu
  O1       1.0000 0.21440  0.78550  0.08668  Biso   1.000  O
  O2       1.0000 0.78560  0.28550  0.41332  Biso   1.000  O
  O3       1.0000 0.78560  0.21450  0.91332  Biso   1.000  O
  O4       1.0000 0.21440  0.71450  0.58668  Biso   1.000  O
  O5       1.0000 0.96990  0.86720  0.05430  Biso   1.000  O
  O6       1.0000 0.03010  0.36720  0.44570  Biso   1.000  O
  O7       1.0000 0.03010  0.13280  0.94570  Biso   1.000  O
  O8       1.0000 0.96990  0.63280  0.55430  Biso   1.000  O
  O9       1.0000 0.46400  0.68100  0.45691  Biso   1.000  O
  O10      1.0000 0.53600  0.18100  0.04309  Biso   1.000  O
  O11      1.0000 0.53600  0.31900  0.54309  Biso   1.000  O
  O12      1.0000 0.46400  0.81900  0.95691  Biso   1.000  O
  O13      1.0000 0.44580  0.47340  0.43143  Biso   1.000  O
  O14      1.0000 0.55420  0.97340  0.06857  Biso   1.000  O
  O15      1.0000 0.55420  0.52660  0.56857  Biso   1.000  O
  O16      1.0000 0.44580  0.02660  0.93143  Biso   1.000  O
  O17      1.0000 0.10790  0.60850  0.32444  Biso   1.000  O
  O18      1.0000 0.89210  0.10850  0.17556  Biso   1.000  O
  O19      1.0000 0.89210  0.39150  0.67556  Biso   1.000  O
  O20      1.0000 0.10790  0.89150  0.82444  Biso   1.000  O
  O21      1.0000 0.25810  0.55190  0.26239  Biso   1.000  O
  O22      1.0000 0.74190  0.05190  0.23761  Biso   1.000  O
  O23      1.0000 0.74190  0.44810  0.73761  Biso   1.000  O
  O24      1.0000 0.25810  0.94810  0.76239  Biso   1.000  O
  O25      1.0000 0.59620  0.36960  0.24632  Biso   1.000  O
  O26      1.0000 0.40380  0.86960  0.25368  Biso   1.000  O
  O27      1.0000 0.40380  0.63040  0.75368  Biso   1.000  O
  O28      1.0000 0.59620  0.13040  0.74632  Biso   1.000  O
  O29      1.0000 0.82520  0.44130  0.22641  Biso   1.000  O
  O30      1.0000 0.17480  0.94130  0.27359  Biso   1.000  O
  O31      1.0000 0.17480  0.55870  0.77359  Biso   1.000  O
  O32      1.0000 0.82520  0.05870  0.72641  Biso   1.000  O
  O33      1.0000 0.22190  0.96490  0.00250  Biso   1.000  O
  O34      1.0000 0.77810  0.46490  0.49750  Biso   1.000  O
  O35      1.0000 0.77810  0.03510  0.99750  Biso   1.000  O
  O36      1.0000 0.22190  0.53510  0.50250  Biso   1.000  O
  N1       1.0000 0.13880  0.60690  0.27685  Biso   1.000  N
  N2       1.0000 0.86120  0.10690  0.22315  Biso   1.000  N
  N3       1.0000 0.86120  0.39310  0.72315  Biso   1.000  N
  N4       1.0000 0.13880  0.89310  0.77685  Biso   1.000  N
  N5       1.0000 0.70860  0.44620  0.25286  Biso   1.000  N
  N6       1.0000 0.29140  0.94620  0.24714  Biso   1.000  N
  N7       1.0000 0.29140  0.55380  0.74714  Biso   1.000  N
  N8       1.0000 0.70860  0.05380  0.75286  Biso   1.000  N
  N9       1.0000 0.48650  0.67650  0.05465  Biso   1.000  N
  N10      1.0000 0.51350  0.17650  0.44535  Biso   1.000  N
  N11      1.0000 0.51350  0.32350  0.94535  Biso   1.000  N
  N12      1.0000 0.48650  0.82350  0.55465  Biso   1.000  N
  N13      1.0000 0.69600  0.54340  0.06331  Biso   1.000  N
  N14      1.0000 0.30400  0.04340  0.43669  Biso   1.000  N
  N15      1.0000 0.30400  0.45660  0.93669  Biso   1.000  N
  N16      1.0000 0.69600  0.95660  0.56331  Biso   1.000  N
  C1       1.0000 0.86710  0.69880  0.24110  Biso   1.000  C
  C2       1.0000 0.13290  0.19880  0.25890  Biso   1.000  C
  C3       1.0000 0.13290  0.30120  0.75890  Biso   1.000  C
  C4       1.0000 0.86710  0.80120  0.74110  Biso   1.000  C
  C5       1.0000 0.02900  0.67270  0.23363  Biso   1.000  C
  C6       1.0000 0.97100  0.17270  0.26637  Biso   1.000  C
  C7       1.0000 0.97100  0.32730  0.76637  Biso   1.000  C
  C8       1.0000 0.02900  0.82730  0.73363  Biso   1.000  C
  C9       1.0000 0.09470  0.70730  0.18530  Biso   1.000  C
  C10      1.0000 0.90530  0.20730  0.31470  Biso   1.000  C
  C11      1.0000 0.90530  0.29270  0.81470  Biso   1.000  C
  C12      1.0000 0.09470  0.79270  0.68530  Biso   1.000  C
  H1       1.0000 0.20230  0.68690  0.18110  Biso   1.000  H
  H2       1.0000 0.79770  0.18690  0.31890  Biso   1.000  H
  H3       1.0000 0.79770  0.31310  0.81890  Biso   1.000  H
  H4       1.0000 0.20230  0.81310  0.68110  Biso   1.000  H
  C13      1.0000 0.99900  0.77280  0.14300  Biso   1.000  C
  C14      1.0000 0.00100  0.27280  0.35700  Biso   1.000  C
  C15      1.0000 0.00100  0.22720  0.85700  Biso   1.000  C
  C16      1.0000 0.99900  0.72720  0.64300  Biso   1.000  C
  C17      1.0000 0.83830  0.80210  0.15020  Biso   1.000  C
  C18      1.0000 0.16170  0.30210  0.34980  Biso   1.000  C
  C19      1.0000 0.16170  0.19790  0.84980  Biso   1.000  C
  C20      1.0000 0.83830  0.69790  0.65020  Biso   1.000  C
  H5       1.0000 0.77350  0.84670  0.12240  Biso   1.000  H
  H6       1.0000 0.22650  0.34670  0.37760  Biso   1.000  H
  H7       1.0000 0.22650  0.15330  0.87760  Biso   1.000  H
  H8       1.0000 0.77350  0.65330  0.62240  Biso   1.000  H
  C21      1.0000 0.77420  0.76510  0.19870  Biso   1.000  C
  C22      1.0000 0.22580  0.26510  0.30130  Biso   1.000  C
  C23      1.0000 0.22580  0.23490  0.80130  Biso   1.000  C
  C24      1.0000 0.77420  0.73490  0.69870  Biso   1.000  C
  H9       1.0000 0.66650  0.78520  0.20280  Biso   1.000  H
  H10      1.0000 0.33350  0.28520  0.29720  Biso   1.000  H
  H11      1.0000 0.33350  0.21480  0.79720  Biso   1.000  H
  H12      1.0000 0.66650  0.71480  0.70280  Biso   1.000  H
  C25      1.0000 0.06850  0.81330  0.09060  Biso   1.000  C
  C26      1.0000 0.93150  0.31330  0.40940  Biso   1.000  C
  C27      1.0000 0.93150  0.18670  0.90940  Biso   1.000  C
  C28      1.0000 0.06850  0.68670  0.59060  Biso   1.000  C
  C29      1.0000 0.78540  0.66220  0.29100  Biso   1.000  C
  C30      1.0000 0.21460  0.16220  0.20900  Biso   1.000  C
  C31      1.0000 0.21460  0.33780  0.70900  Biso   1.000  C
  C32      1.0000 0.78540  0.83780  0.79100  Biso   1.000  C
  C33      1.0000 0.70210  0.54710  0.29524  Biso   1.000  C
  C34      1.0000 0.29790  0.04710  0.20476  Biso   1.000  C
  C35      1.0000 0.29790  0.45290  0.70476  Biso   1.000  C
  C36      1.0000 0.70210  0.95290  0.79524  Biso   1.000  C
  C37      1.0000 0.60940  0.52220  0.33870  Biso   1.000  C
  C38      1.0000 0.39060  0.02220  0.16130  Biso   1.000  C
  C39      1.0000 0.39060  0.47780  0.66130  Biso   1.000  C
  C40      1.0000 0.60940  0.97780  0.83870  Biso   1.000  C
  H13      1.0000 0.55710  0.44350  0.34050  Biso   1.000  H
  H14      1.0000 0.44290  0.94350  0.15950  Biso   1.000  H
  H15      1.0000 0.44290  0.55650  0.65950  Biso   1.000  H
  H16      1.0000 0.55710  0.05650  0.84050  Biso   1.000  H
  C41      1.0000 0.59460  0.61400  0.37938  Biso   1.000  C
  C42      1.0000 0.40540  0.11400  0.12062  Biso   1.000  C
  C43      1.0000 0.40540  0.38600  0.62062  Biso   1.000  C
  C44      1.0000 0.59460  0.88600  0.87938  Biso   1.000  C
  C45      1.0000 0.67430  0.73090  0.37540  Biso   1.000  C
  C46      1.0000 0.32570  0.23090  0.12460  Biso   1.000  C
  C47      1.0000 0.32570  0.26910  0.62460  Biso   1.000  C
  C48      1.0000 0.67430  0.76910  0.87540  Biso   1.000  C
  H17      1.0000 0.66490  0.79420  0.40210  Biso   1.000  H
  H18      1.0000 0.33510  0.29420  0.09790  Biso   1.000  H
  H19      1.0000 0.33510  0.20580  0.59790  Biso   1.000  H
  H20      1.0000 0.66490  0.70580  0.90210  Biso   1.000  H
  C49      1.0000 0.76710  0.75390  0.33200  Biso   1.000  C
  C50      1.0000 0.23290  0.25390  0.16800  Biso   1.000  C
  C51      1.0000 0.23290  0.24610  0.66800  Biso   1.000  C
  C52      1.0000 0.76710  0.74610  0.83200  Biso   1.000  C
  H21      1.0000 0.81870  0.83290  0.33020  Biso   1.000  H
  H22      1.0000 0.18130  0.33290  0.16980  Biso   1.000  H
  H23      1.0000 0.18130  0.16710  0.66980  Biso   1.000  H
  H24      1.0000 0.81870  0.66710  0.83020  Biso   1.000  H
  C53      1.0000 0.49380  0.58580  0.42627  Biso   1.000  C
  C54      1.0000 0.50620  0.08580  0.07373  Biso   1.000  C
  C55      1.0000 0.50620  0.41420  0.57373  Biso   1.000  C
  C56      1.0000 0.49380  0.91420  0.92627  Biso   1.000  C
  C57      1.0000 0.62760  0.64830  0.03700  Biso   1.000  C
  C58      1.0000 0.37240  0.14830  0.46300  Biso   1.000  C
  C59      1.0000 0.37240  0.35170  0.96300  Biso   1.000  C
  C60      1.0000 0.62760  0.85170  0.53700  Biso   1.000  C
  H25      1.0000 0.67420  0.69470  0.00980  Biso   1.000  H
  H26      1.0000 0.32580  0.19470  0.49020  Biso   1.000  H
  H27      1.0000 0.32580  0.30530  0.99020  Biso   1.000  H
  H28      1.0000 0.67420  0.80530  0.50980  Biso   1.000  H
  C61      1.0000 0.46560  0.58700  0.09520  Biso   1.000  C
  C62      1.0000 0.53440  0.08700  0.40480  Biso   1.000  C
  C63      1.0000 0.53440  0.41300  0.90480  Biso   1.000  C
  C64      1.0000 0.46560  0.91300  0.59520  Biso   1.000  C
  H29      1.0000 0.37700  0.58370  0.11580  Biso   1.000  H
  H30      1.0000 0.62300  0.08370  0.38420  Biso   1.000  H
  H31      1.0000 0.62300  0.41630  0.88420  Biso   1.000  H
  H32      1.0000 0.37700  0.91630  0.61580  Biso   1.000  H
  C65      1.0000 0.59320  0.50430  0.10080  Biso   1.000  C
  C66      1.0000 0.40680  0.00430  0.39920  Biso   1.000  C
  C67      1.0000 0.40680  0.49570  0.89920  Biso   1.000  C
  C68      1.0000 0.59320  0.99570  0.60080  Biso   1.000  C
  H33      1.0000 0.60790  0.43480  0.12520  Biso   1.000  H
  H34      1.0000 0.39210  0.93480  0.37480  Biso   1.000  H
  H35      1.0000 0.39210  0.56520  0.87480  Biso   1.000  H
  H36      1.0000 0.60790  0.06520  0.62520  Biso   1.000  H
  C69      1.0000 0.85370  0.48470  0.05580  Biso   1.000  C
  C70      1.0000 0.14630  0.98470  0.44420  Biso   1.000  C
  C71      1.0000 0.14630  0.51530  0.94420  Biso   1.000  C
  C72      1.0000 0.85370  0.01530  0.55580  Biso   1.000  C
  H37      1.0000 0.84130  0.39220  0.05390  Biso   1.000  H
  H38      1.0000 0.15870  0.89220  0.44610  Biso   1.000  H
  H39      1.0000 0.15870  0.60780  0.94610  Biso   1.000  H
  H40      1.0000 0.84130  0.10780  0.55390  Biso   1.000  H
  H41      1.0000 0.93180  0.50480  0.08800  Biso   1.000  H
  H42      1.0000 0.06820  0.00480  0.41200  Biso   1.000  H
  H43      1.0000 0.06820  0.49520  0.91200  Biso   1.000  H
  H44      1.0000 0.93180  0.99520  0.58800  Biso   1.000  H
  C73      1.0000 0.91820  0.53150  0.00330  Biso   1.000  C
  C74      1.0000 0.08180  0.03150  0.49670  Biso   1.000  C
  C75      1.0000 0.08180  0.46850  0.99670  Biso   1.000  C
  C76      1.0000 0.91820  0.96850  0.50330  Biso   1.000  C
  H45      1.0000 0.93140  0.62390  0.00500  Biso   1.000  H
  H46      1.0000 0.06860  0.12390  0.49500  Biso   1.000  H
  H47      1.0000 0.06860  0.37610  0.99500  Biso   1.000  H
  H48      1.0000 0.93140  0.87610  0.50500  Biso   1.000  H
  H49      1.0000 0.84060  0.51130  0.97090  Biso   1.000  H
  H50      1.0000 0.15940  0.01130  0.52910  Biso   1.000  H
  H51      1.0000 0.15940  0.48870  0.02910  Biso   1.000  H
  H52      1.0000 0.84060  0.98870  0.47090  Biso   1.000  H
  H53      1.0000 0.23400  0.00000  0.97400  Biso   1.000  H
  H54      1.0000 0.76600  0.50000  0.52600  Biso   1.000  H
  H55      1.0000 0.76600  0.00000  0.02600  Biso   1.000  H
  H56      1.0000 0.23400  0.50000  0.47400  Biso   1.000  H
