data_image0
_cell_length_a       14.2254
_cell_length_b       10.6516
_cell_length_c       13.6134
_cell_angle_alpha    90
_cell_angle_beta     110.37
_cell_angle_gamma    90

_symmetry_space_group_name_H-M    "P 1"
_symmetry_int_tables_number       1

loop_
  _symmetry_equiv_pos_as_xyz
  'x, y, z'

loop_
  _atom_site_label
  _atom_site_occupancy
  _atom_site_fract_x
  _atom_site_fract_y
  _atom_site_fract_z
  _atom_site_thermal_displace_type
  _atom_site_B_iso_or_equiv
  _atom_site_type_symbol
  Cu1      1.0000 0.50000  0.40960  0.25000  Biso   1.000  Cu
  Cu2      1.0000 0.00000  0.90960  0.25000  Biso   1.000  Cu
  Cu3      1.0000 0.50000  0.59040  0.75000  Biso   1.000  Cu
  Cu4      1.0000 0.00000  0.09040  0.75000  Biso   1.000  Cu
  O1       1.0000 0.45988  0.54195  0.14220  Biso   1.000  O
  O2       1.0000 0.54012  0.54195  0.35780  Biso   1.000  O
  O3       1.0000 0.95988  0.04195  0.14220  Biso   1.000  O
  O4       1.0000 0.04012  0.04195  0.35780  Biso   1.000  O
  O5       1.0000 0.54012  0.45805  0.85780  Biso   1.000  O
  O6       1.0000 0.45988  0.45805  0.64220  Biso   1.000  O
  O7       1.0000 0.04012  0.95805  0.85780  Biso   1.000  O
  O8       1.0000 0.95988  0.95805  0.64220  Biso   1.000  O
  O9       1.0000 0.32061  0.46697  0.15681  Biso   1.000  O
  O10      1.0000 0.67939  0.46697  0.34319  Biso   1.000  O
  O11      1.0000 0.82061  0.96697  0.15681  Biso   1.000  O
  O12      1.0000 0.17939  0.96697  0.34319  Biso   1.000  O
  O13      1.0000 0.67939  0.53303  0.84319  Biso   1.000  O
  O14      1.0000 0.32061  0.53303  0.65681  Biso   1.000  O
  O15      1.0000 0.17939  0.03303  0.84319  Biso   1.000  O
  O16      1.0000 0.82061  0.03303  0.65681  Biso   1.000  O
  N1       1.0000 0.49940  0.27338  0.14767  Biso   1.000  N
  N2       1.0000 0.50060  0.27338  0.35233  Biso   1.000  N
  N3       1.0000 0.99940  0.77338  0.14767  Biso   1.000  N
  N4       1.0000 0.00060  0.77338  0.35233  Biso   1.000  N
  N5       1.0000 0.50060  0.72662  0.85233  Biso   1.000  N
  N6       1.0000 0.49940  0.72662  0.64767  Biso   1.000  N
  N7       1.0000 0.00060  0.22662  0.85233  Biso   1.000  N
  N8       1.0000 0.99940  0.22662  0.64767  Biso   1.000  N
  C1       1.0000 0.36625  0.54651  0.12273  Biso   1.000  C
  C2       1.0000 0.63375  0.54651  0.37727  Biso   1.000  C
  C3       1.0000 0.86625  0.04651  0.12273  Biso   1.000  C
  C4       1.0000 0.13375  0.04651  0.37727  Biso   1.000  C
  C5       1.0000 0.63375  0.45349  0.87727  Biso   1.000  C
  C6       1.0000 0.36625  0.45349  0.62273  Biso   1.000  C
  C7       1.0000 0.13375  0.95349  0.87727  Biso   1.000  C
  C8       1.0000 0.86625  0.95349  0.62273  Biso   1.000  C
  C9       1.0000 0.30826  0.65434  0.05750  Biso   1.000  C
  C10      1.0000 0.69174  0.65434  0.44250  Biso   1.000  C
  C11      1.0000 0.80826  0.15434  0.05750  Biso   1.000  C
  C12      1.0000 0.19174  0.15434  0.44250  Biso   1.000  C
  C13      1.0000 0.69174  0.34566  0.94250  Biso   1.000  C
  C14      1.0000 0.30826  0.34566  0.55750  Biso   1.000  C
  C15      1.0000 0.19174  0.84566  0.94250  Biso   1.000  C
  C16      1.0000 0.80826  0.84566  0.55750  Biso   1.000  C
  C17      1.0000 0.29894  0.76470  0.10897  Biso   1.000  C
  C18      1.0000 0.70106  0.76470  0.39103  Biso   1.000  C
  C19      1.0000 0.79894  0.26470  0.10897  Biso   1.000  C
  C20      1.0000 0.20106  0.26470  0.39103  Biso   1.000  C
  C21      1.0000 0.70106  0.23530  0.89103  Biso   1.000  C
  C22      1.0000 0.29894  0.23530  0.60897  Biso   1.000  C
  C23      1.0000 0.20106  0.73530  0.89103  Biso   1.000  C
  C24      1.0000 0.79894  0.73530  0.60897  Biso   1.000  C
  C25      1.0000 0.26110  0.63827  0.94931  Biso   1.000  C
  C26      1.0000 0.73890  0.63827  0.55069  Biso   1.000  C
  C27      1.0000 0.76110  0.13827  0.94931  Biso   1.000  C
  C28      1.0000 0.23890  0.13827  0.55069  Biso   1.000  C
  C29      1.0000 0.73890  0.36173  0.05069  Biso   1.000  C
  C30      1.0000 0.26110  0.36173  0.44931  Biso   1.000  C
  C31      1.0000 0.23890  0.86173  0.05069  Biso   1.000  C
  C32      1.0000 0.76110  0.86173  0.44931  Biso   1.000  C
  C33      1.0000 0.35253  0.77860  0.22643  Biso   1.000  C
  C34      1.0000 0.64747  0.77860  0.27357  Biso   1.000  C
  C35      1.0000 0.85253  0.27860  0.22643  Biso   1.000  C
  C36      1.0000 0.14747  0.27860  0.27357  Biso   1.000  C
  C37      1.0000 0.64747  0.22140  0.77357  Biso   1.000  C
  C38      1.0000 0.35253  0.22140  0.72643  Biso   1.000  C
  C39      1.0000 0.14747  0.72140  0.77357  Biso   1.000  C
  C40      1.0000 0.85253  0.72140  0.72643  Biso   1.000  C
  H1       1.0000 0.39000  0.70370  0.25370  Biso   1.000  H
  H2       1.0000 0.61000  0.70370  0.24630  Biso   1.000  H
  H3       1.0000 0.89000  0.20370  0.25370  Biso   1.000  H
  H4       1.0000 0.11000  0.20370  0.24630  Biso   1.000  H
  H5       1.0000 0.61000  0.29630  0.74630  Biso   1.000  H
  H6       1.0000 0.39000  0.29630  0.75370  Biso   1.000  H
  H7       1.0000 0.11000  0.79630  0.74630  Biso   1.000  H
  H8       1.0000 0.89000  0.79630  0.75370  Biso   1.000  H
  H9       1.0000 0.30410  0.79190  0.25990  Biso   1.000  H
  H10      1.0000 0.69590  0.79190  0.24010  Biso   1.000  H
  H11      1.0000 0.80410  0.29190  0.25990  Biso   1.000  H
  H12      1.0000 0.19590  0.29190  0.24010  Biso   1.000  H
  H13      1.0000 0.69590  0.20810  0.74010  Biso   1.000  H
  H14      1.0000 0.30410  0.20810  0.75990  Biso   1.000  H
  H15      1.0000 0.19590  0.70810  0.74010  Biso   1.000  H
  H16      1.0000 0.80410  0.70810  0.75990  Biso   1.000  H
  H17      1.0000 0.39740  0.84900  0.23990  Biso   1.000  H
  H18      1.0000 0.60260  0.84900  0.26010  Biso   1.000  H
  H19      1.0000 0.89740  0.34900  0.23990  Biso   1.000  H
  H20      1.0000 0.10260  0.34900  0.26010  Biso   1.000  H
  H21      1.0000 0.60260  0.15100  0.76010  Biso   1.000  H
  H22      1.0000 0.39740  0.15100  0.73990  Biso   1.000  H
  H23      1.0000 0.10260  0.65100  0.76010  Biso   1.000  H
  H24      1.0000 0.89740  0.65100  0.73990  Biso   1.000  H
  C41      1.0000 0.27700  0.51900  0.89697  Biso   1.000  C
  C42      1.0000 0.72300  0.51900  0.60303  Biso   1.000  C
  C43      1.0000 0.77700  0.01900  0.89697  Biso   1.000  C
  C44      1.0000 0.22300  0.01900  0.60303  Biso   1.000  C
  C45      1.0000 0.72300  0.48100  0.10303  Biso   1.000  C
  C46      1.0000 0.27700  0.48100  0.39697  Biso   1.000  C
  C47      1.0000 0.22300  0.98100  0.10303  Biso   1.000  C
  C48      1.0000 0.77700  0.98100  0.39697  Biso   1.000  C
  H25      1.0000 0.32000  0.46340  0.94880  Biso   1.000  H
  H26      1.0000 0.68000  0.46340  0.55120  Biso   1.000  H
  H27      1.0000 0.82000  0.96340  0.94880  Biso   1.000  H
  H28      1.0000 0.18000  0.96340  0.55120  Biso   1.000  H
  H29      1.0000 0.68000  0.53660  0.05120  Biso   1.000  H
  H30      1.0000 0.32000  0.53660  0.44880  Biso   1.000  H
  H31      1.0000 0.18000  0.03660  0.05120  Biso   1.000  H
  H32      1.0000 0.82000  0.03660  0.44880  Biso   1.000  H
  H33      1.0000 0.30760  0.53890  0.84620  Biso   1.000  H
  H34      1.0000 0.69240  0.53890  0.65380  Biso   1.000  H
  H35      1.0000 0.80760  0.03890  0.84620  Biso   1.000  H
  H36      1.0000 0.19240  0.03890  0.65380  Biso   1.000  H
  H37      1.0000 0.69240  0.46110  0.15380  Biso   1.000  H
  H38      1.0000 0.30760  0.46110  0.34620  Biso   1.000  H
  H39      1.0000 0.19240  0.96110  0.15380  Biso   1.000  H
  H40      1.0000 0.80760  0.96110  0.34620  Biso   1.000  H
  H41      1.0000 0.21360  0.47890  0.86260  Biso   1.000  H
  H42      1.0000 0.78640  0.47890  0.63740  Biso   1.000  H
  H43      1.0000 0.71360  0.97890  0.86260  Biso   1.000  H
  H44      1.0000 0.28640  0.97890  0.63740  Biso   1.000  H
  H45      1.0000 0.78640  0.52110  0.13740  Biso   1.000  H
  H46      1.0000 0.21360  0.52110  0.36260  Biso   1.000  H
  H47      1.0000 0.28640  0.02110  0.13740  Biso   1.000  H
  H48      1.0000 0.71360  0.02110  0.36260  Biso   1.000  H
  C49      1.0000 0.41641  0.23500  0.07113  Biso   1.000  C
  C50      1.0000 0.58359  0.23500  0.42887  Biso   1.000  C
  C51      1.0000 0.91641  0.73500  0.07113  Biso   1.000  C
  C52      1.0000 0.08359  0.73500  0.42887  Biso   1.000  C
  C53      1.0000 0.58359  0.76500  0.92887  Biso   1.000  C
  C54      1.0000 0.41641  0.76500  0.57113  Biso   1.000  C
  C55      1.0000 0.08359  0.26500  0.92887  Biso   1.000  C
  C56      1.0000 0.91641  0.26500  0.57113  Biso   1.000  C
  H49      1.0000 0.35790  0.28150  0.05750  Biso   1.000  H
  H50      1.0000 0.64210  0.28150  0.44250  Biso   1.000  H
  H51      1.0000 0.85790  0.78150  0.05750  Biso   1.000  H
  H52      1.0000 0.14210  0.78150  0.44250  Biso   1.000  H
  H53      1.0000 0.64210  0.71850  0.94250  Biso   1.000  H
  H54      1.0000 0.35790  0.71850  0.55750  Biso   1.000  H
  H55      1.0000 0.14210  0.21850  0.94250  Biso   1.000  H
  H56      1.0000 0.85790  0.21850  0.55750  Biso   1.000  H
  C57      1.0000 0.41374  0.12940  0.01155  Biso   1.000  C
  C58      1.0000 0.58626  0.12940  0.48845  Biso   1.000  C
  C59      1.0000 0.91374  0.62940  0.01155  Biso   1.000  C
  C60      1.0000 0.08626  0.62940  0.48845  Biso   1.000  C
  C61      1.0000 0.58626  0.87060  0.98845  Biso   1.000  C
  C62      1.0000 0.41374  0.87060  0.51155  Biso   1.000  C
  C63      1.0000 0.08626  0.37060  0.98845  Biso   1.000  C
  C64      1.0000 0.91374  0.37060  0.51155  Biso   1.000  C
  H57      1.0000 0.35440  0.10590  0.95910  Biso   1.000  H
  H58      1.0000 0.64560  0.10590  0.54090  Biso   1.000  H
  H59      1.0000 0.85440  0.60590  0.95910  Biso   1.000  H
  H60      1.0000 0.14560  0.60590  0.54090  Biso   1.000  H
  H61      1.0000 0.64560  0.89410  0.04090  Biso   1.000  H
  H62      1.0000 0.35440  0.89410  0.45910  Biso   1.000  H
  H63      1.0000 0.14560  0.39410  0.04090  Biso   1.000  H
  H64      1.0000 0.85440  0.39410  0.45910  Biso   1.000  H
  C65      1.0000 0.50027  0.05816  0.03040  Biso   1.000  C
  C66      1.0000 0.49973  0.05816  0.46960  Biso   1.000  C
  C67      1.0000 0.00027  0.55816  0.03040  Biso   1.000  C
  C68      1.0000 0.99973  0.55816  0.46960  Biso   1.000  C
  C69      1.0000 0.49973  0.94184  0.96960  Biso   1.000  C
  C70      1.0000 0.50027  0.94184  0.53040  Biso   1.000  C
  C71      1.0000 0.99973  0.44184  0.96960  Biso   1.000  C
  C72      1.0000 0.00027  0.44184  0.53040  Biso   1.000  C
  C73      1.0000 0.58628  0.09930  0.10875  Biso   1.000  C
  C74      1.0000 0.41372  0.09930  0.39125  Biso   1.000  C
  C75      1.0000 0.08628  0.59930  0.10875  Biso   1.000  C
  C76      1.0000 0.91372  0.59930  0.39125  Biso   1.000  C
  C77      1.0000 0.41372  0.90070  0.89125  Biso   1.000  C
  C78      1.0000 0.58628  0.90070  0.60875  Biso   1.000  C
  C79      1.0000 0.91372  0.40070  0.89125  Biso   1.000  C
  C80      1.0000 0.08628  0.40070  0.60875  Biso   1.000  C
  H65      1.0000 0.64600  0.05510  0.12360  Biso   1.000  H
  H66      1.0000 0.35400  0.05510  0.37640  Biso   1.000  H
  H67      1.0000 0.14600  0.55510  0.12360  Biso   1.000  H
  H68      1.0000 0.85400  0.55510  0.37640  Biso   1.000  H
  H69      1.0000 0.35400  0.94490  0.87640  Biso   1.000  H
  H70      1.0000 0.64600  0.94490  0.62360  Biso   1.000  H
  H71      1.0000 0.85400  0.44490  0.87640  Biso   1.000  H
  H72      1.0000 0.14600  0.44490  0.62360  Biso   1.000  H
  C81      1.0000 0.58286  0.20600  0.16452  Biso   1.000  C
  C82      1.0000 0.41714  0.20600  0.33548  Biso   1.000  C
  C83      1.0000 0.08286  0.70600  0.16452  Biso   1.000  C
  C84      1.0000 0.91714  0.70600  0.33548  Biso   1.000  C
  C85      1.0000 0.41714  0.79400  0.83548  Biso   1.000  C
  C86      1.0000 0.58286  0.79400  0.66452  Biso   1.000  C
  C87      1.0000 0.91714  0.29400  0.83548  Biso   1.000  C
  C88      1.0000 0.08286  0.29400  0.66452  Biso   1.000  C
  H73      1.0000 0.64150  0.23250  0.21650  Biso   1.000  H
  H74      1.0000 0.35850  0.23250  0.28350  Biso   1.000  H
  H75      1.0000 0.14150  0.73250  0.21650  Biso   1.000  H
  H76      1.0000 0.85850  0.73250  0.28350  Biso   1.000  H
  H77      1.0000 0.35850  0.76750  0.78350  Biso   1.000  H
  H78      1.0000 0.64150  0.76750  0.71650  Biso   1.000  H
  H79      1.0000 0.85850  0.26750  0.78350  Biso   1.000  H
  H80      1.0000 0.14150  0.26750  0.71650  Biso   1.000  H
