data_image0
_cell_length_a       19.885
_cell_length_b       4.208
_cell_length_c       13.807
_cell_angle_alpha    90
_cell_angle_beta     100.83
_cell_angle_gamma    90

_symmetry_space_group_name_H-M    "P 1"
_symmetry_int_tables_number       1

loop_
  _symmetry_equiv_pos_as_xyz
  'x, y, z'

loop_
  _atom_site_label
  _atom_site_occupancy
  _atom_site_fract_x
  _atom_site_fract_y
  _atom_site_fract_z
  _atom_site_thermal_displace_type
  _atom_site_B_iso_or_equiv
  _atom_site_type_symbol
  I1       1.0000 0.73248  0.19900  0.63340  Biso   1.000  I
  I2       1.0000 0.26752  0.19900  0.36660  Biso   1.000  I
  I3       1.0000 0.23248  0.69900  0.63340  Biso   1.000  I
  I4       1.0000 0.76752  0.69900  0.36660  Biso   1.000  I
  Cu1      1.0000 0.71023  0.19610  0.44328  Biso   1.000  Cu
  Cu2      1.0000 0.28977  0.19610  0.55672  Biso   1.000  Cu
  Cu3      1.0000 0.21023  0.69610  0.44328  Biso   1.000  Cu
  Cu4      1.0000 0.78977  0.69610  0.55672  Biso   1.000  Cu
  S1       1.0000 0.57710  0.78820  0.50160  Biso   1.000  S
  S2       1.0000 0.42290  0.78820  0.49840  Biso   1.000  S
  S3       1.0000 0.07710  0.28820  0.50160  Biso   1.000  S
  S4       1.0000 0.92290  0.28820  0.49840  Biso   1.000  S
  N1       1.0000 0.50600  0.56370  0.31710  Biso   1.000  N
  N2       1.0000 0.49400  0.56370  0.68290  Biso   1.000  N
  N3       1.0000 0.00600  0.06370  0.31710  Biso   1.000  N
  N4       1.0000 0.99400  0.06370  0.68290  Biso   1.000  N
  C1       1.0000 0.56440  0.48600  0.38540  Biso   1.000  C
  C2       1.0000 0.43560  0.48600  0.61460  Biso   1.000  C
  C3       1.0000 0.06440  0.98600  0.38540  Biso   1.000  C
  C4       1.0000 0.93560  0.98600  0.61460  Biso   1.000  C
  N5       1.0000 0.61320  0.28500  0.35880  Biso   1.000  N
  N6       1.0000 0.38680  0.28500  0.64120  Biso   1.000  N
  N7       1.0000 0.11320  0.78500  0.35880  Biso   1.000  N
  N8       1.0000 0.88680  0.78500  0.64120  Biso   1.000  N
  C5       1.0000 0.60370  0.16100  0.26380  Biso   1.000  C
  C6       1.0000 0.39630  0.16100  0.73620  Biso   1.000  C
  C7       1.0000 0.10370  0.66100  0.26380  Biso   1.000  C
  C8       1.0000 0.89630  0.66100  0.73620  Biso   1.000  C
  H1       1.0000 0.63680  0.02480  0.24580  Biso   1.000  H
  H2       1.0000 0.36320  0.02480  0.75420  Biso   1.000  H
  H3       1.0000 0.13680  0.52480  0.24580  Biso   1.000  H
  H4       1.0000 0.86320  0.52480  0.75420  Biso   1.000  H
  C9       1.0000 0.54540  0.23900  0.19550  Biso   1.000  C
  C10      1.0000 0.45460  0.23900  0.80450  Biso   1.000  C
  C11      1.0000 0.04540  0.73900  0.19550  Biso   1.000  C
  C12      1.0000 0.95460  0.73900  0.80450  Biso   1.000  C
  H5       1.0000 0.53900  0.15520  0.13130  Biso   1.000  H
  H6       1.0000 0.46100  0.15520  0.86870  Biso   1.000  H
  H7       1.0000 0.03900  0.65520  0.13130  Biso   1.000  H
  H8       1.0000 0.96100  0.65520  0.86870  Biso   1.000  H
  C13      1.0000 0.49650  0.44000  0.22220  Biso   1.000  C
  C14      1.0000 0.50350  0.44000  0.77780  Biso   1.000  C
  C15      1.0000 0.99650  0.94000  0.22220  Biso   1.000  C
  C16      1.0000 0.00350  0.94000  0.77780  Biso   1.000  C
  C17      1.0000 0.43560  0.56700  0.15430  Biso   1.000  C
  C18      1.0000 0.56440  0.56700  0.84570  Biso   1.000  C
  C19      1.0000 0.93560  0.06700  0.15430  Biso   1.000  C
  C20      1.0000 0.06440  0.06700  0.84570  Biso   1.000  C
  C21      1.0000 0.43280  0.54600  0.05310  Biso   1.000  C
  C22      1.0000 0.56720  0.54600  0.94690  Biso   1.000  C
  C23      1.0000 0.93280  0.04600  0.05310  Biso   1.000  C
  C24      1.0000 0.06720  0.04600  0.94690  Biso   1.000  C
  C25      1.0000 0.37740  0.67400  0.98830  Biso   1.000  C
  C26      1.0000 0.62260  0.67400  0.01170  Biso   1.000  C
  C27      1.0000 0.87740  0.17400  0.98830  Biso   1.000  C
  C28      1.0000 0.12260  0.17400  0.01170  Biso   1.000  C
  H9       1.0000 0.37550  0.65980  0.91990  Biso   1.000  H
  H10      1.0000 0.62450  0.65980  0.08010  Biso   1.000  H
  H11      1.0000 0.87550  0.15980  0.91990  Biso   1.000  H
  H12      1.0000 0.12450  0.15980  0.08010  Biso   1.000  H
  C29      1.0000 0.32500  0.82400  0.02460  Biso   1.000  C
  C30      1.0000 0.67500  0.82400  0.97540  Biso   1.000  C
  C31      1.0000 0.82500  0.32400  0.02460  Biso   1.000  C
  C32      1.0000 0.17500  0.32400  0.97540  Biso   1.000  C
  H13      1.0000 0.28760  0.91020  0.98080  Biso   1.000  H
  H14      1.0000 0.71240  0.91020  0.01920  Biso   1.000  H
  H15      1.0000 0.78760  0.41020  0.98080  Biso   1.000  H
  H16      1.0000 0.21240  0.41020  0.01920  Biso   1.000  H
  C33      1.0000 0.32780  0.84500  0.12580  Biso   1.000  C
  C34      1.0000 0.67220  0.84500  0.87420  Biso   1.000  C
  C35      1.0000 0.82780  0.34500  0.12580  Biso   1.000  C
  C36      1.0000 0.17220  0.34500  0.87420  Biso   1.000  C
  H17      1.0000 0.29230  0.94570  0.15030  Biso   1.000  H
  H18      1.0000 0.70770  0.94570  0.84970  Biso   1.000  H
  H19      1.0000 0.79230  0.44570  0.15030  Biso   1.000  H
  H20      1.0000 0.20770  0.44570  0.84970  Biso   1.000  H
  C37      1.0000 0.38310  0.71700  0.19060  Biso   1.000  C
  C38      1.0000 0.61690  0.71700  0.80940  Biso   1.000  C
  C39      1.0000 0.88310  0.21700  0.19060  Biso   1.000  C
  C40      1.0000 0.11690  0.21700  0.80940  Biso   1.000  C
  H21      1.0000 0.38510  0.73090  0.25900  Biso   1.000  H
  H22      1.0000 0.61490  0.73090  0.74100  Biso   1.000  H
  H23      1.0000 0.88510  0.23090  0.25900  Biso   1.000  H
  H24      1.0000 0.11490  0.23090  0.74100  Biso   1.000  H
  C41      1.0000 0.50000  0.55100  0.50000  Biso   1.000  C
  C42      1.0000 0.00000  0.05100  0.50000  Biso   1.000  C
  H25      1.0000 0.50690  0.41600  0.55720  Biso   1.000  H
  H26      1.0000 0.49310  0.41600  0.44280  Biso   1.000  H
  H27      1.0000 0.00690  0.91600  0.55720  Biso   1.000  H
  H28      1.0000 0.99310  0.91600  0.44280  Biso   1.000  H
