data_image0
_cell_length_a       7.7834
_cell_length_b       9.768
_cell_length_c       11.779
_cell_angle_alpha    110.16
_cell_angle_beta     91.73
_cell_angle_gamma    109.35

_symmetry_space_group_name_H-M    "P 1"
_symmetry_int_tables_number       1

loop_
  _symmetry_equiv_pos_as_xyz
  'x, y, z'

loop_
  _atom_site_label
  _atom_site_occupancy
  _atom_site_fract_x
  _atom_site_fract_y
  _atom_site_fract_z
  _atom_site_thermal_displace_type
  _atom_site_B_iso_or_equiv
  _atom_site_type_symbol
  Cu1      1.0000 0.35579  0.53088  0.46503  Biso   1.000  Cu
  Cu2      1.0000 0.64421  0.46912  0.53497  Biso   1.000  Cu
  I1       1.0000 0.30355  0.31510  0.56040  Biso   1.000  I
  I2       1.0000 0.69645  0.68490  0.43960  Biso   1.000  I
  N1       1.0000 0.09650  0.28520  0.08490  Biso   1.000  N
  N2       1.0000 0.90350  0.71480  0.91510  Biso   1.000  N
  N3       1.0000 0.17570  0.43640  0.30070  Biso   1.000  N
  N4       1.0000 0.82430  0.56360  0.69930  Biso   1.000  N
  N5       1.0000 0.27120  0.70550  0.56760  Biso   1.000  N
  N6       1.0000 0.72880  0.29450  0.43240  Biso   1.000  N
  S1       1.0000 0.36883  0.26310  0.21152  Biso   1.000  S
  S2       1.0000 0.63117  0.73690  0.78848  Biso   1.000  S
  C1       1.0000 0.19490  0.33460  0.19430  Biso   1.000  C
  C2       1.0000 0.80510  0.66540  0.80570  Biso   1.000  C
  C3       1.0000 0.03640  0.48520  0.29120  Biso   1.000  C
  C4       1.0000 0.96360  0.51480  0.70880  Biso   1.000  C
  H1       1.0000 0.01420  0.55390  0.36250  Biso   1.000  H
  H2       1.0000 0.98580  0.44610  0.63750  Biso   1.000  H
  C5       1.0000 0.92430  0.44010  0.18270  Biso   1.000  C
  C6       1.0000 0.07570  0.55990  0.81730  Biso   1.000  C
  H3       1.0000 0.82600  0.47510  0.17960  Biso   1.000  H
  H4       1.0000 0.17400  0.52490  0.82040  Biso   1.000  H
  C7       1.0000 0.96080  0.34090  0.07720  Biso   1.000  C
  C8       1.0000 0.03920  0.65910  0.92280  Biso   1.000  C
  C9       1.0000 0.85600  0.29010  0.95290  Biso   1.000  C
  C10      1.0000 0.14400  0.70990  0.04710  Biso   1.000  C
  C11      1.0000 0.71660  0.34350  0.93460  Biso   1.000  C
  C12      1.0000 0.28340  0.65650  0.06540  Biso   1.000  C
  H5       1.0000 0.68850  0.41440  0.00150  Biso   1.000  H
  H6       1.0000 0.31150  0.58560  0.99850  Biso   1.000  H
  C13      1.0000 0.61890  0.29250  0.81830  Biso   1.000  C
  C14      1.0000 0.38110  0.70750  0.18170  Biso   1.000  C
  H7       1.0000 0.52550  0.32970  0.80660  Biso   1.000  H
  H8       1.0000 0.47450  0.67030  0.19340  Biso   1.000  H
  C15      1.0000 0.65820  0.18760  0.71960  Biso   1.000  C
  C16      1.0000 0.34180  0.81240  0.28040  Biso   1.000  C
  H9       1.0000 0.59100  0.15260  0.64090  Biso   1.000  H
  H10      1.0000 0.40900  0.84740  0.35910  Biso   1.000  H
  C17      1.0000 0.79620  0.13430  0.73690  Biso   1.000  C
  C18      1.0000 0.20380  0.86570  0.26310  Biso   1.000  C
  H11      1.0000 0.82280  0.06250  0.66970  Biso   1.000  H
  H12      1.0000 0.17720  0.93750  0.33030  Biso   1.000  H
  C19      1.0000 0.89600  0.18580  0.85240  Biso   1.000  C
  C20      1.0000 0.10400  0.81420  0.14760  Biso   1.000  C
  H13      1.0000 0.99130  0.15010  0.86310  Biso   1.000  H
  H14      1.0000 0.00870  0.84990  0.13690  Biso   1.000  H
  C21      1.0000 0.34980  0.12610  0.05780  Biso   1.000  C
  C22      1.0000 0.65020  0.87390  0.94220  Biso   1.000  C
  H15      1.0000 0.22650  0.04410  0.03110  Biso   1.000  H
  H16      1.0000 0.77350  0.95590  0.96890  Biso   1.000  H
  H17      1.0000 0.37160  0.18000  0.00030  Biso   1.000  H
  H18      1.0000 0.62840  0.82000  0.99970  Biso   1.000  H
  C23      1.0000 0.49670  0.05510  0.06320  Biso   1.000  C
  C24      1.0000 0.50330  0.94490  0.93680  Biso   1.000  C
  H19      1.0000 0.61770  0.13940  0.09670  Biso   1.000  H
  H20      1.0000 0.38230  0.86060  0.90330  Biso   1.000  H
  H21      1.0000 0.46950  0.99760  0.11810  Biso   1.000  H
  H22      1.0000 0.53050  0.00240  0.88190  Biso   1.000  H
  C25      1.0000 0.22060  0.80270  0.61750  Biso   1.000  C
  C26      1.0000 0.77940  0.19730  0.38250  Biso   1.000  C
  C27      1.0000 0.15550  0.92690  0.68260  Biso   1.000  C
  C28      1.0000 0.84450  0.07310  0.31740  Biso   1.000  C
  H23      1.0000 0.02170  0.88750  0.66600  Biso   1.000  H
  H24      1.0000 0.97830  0.11250  0.33400  Biso   1.000  H
  H25      1.0000 0.20460  0.01330  0.65530  Biso   1.000  H
  H26      1.0000 0.79540  0.98670  0.34470  Biso   1.000  H
  H27      1.0000 0.19680  0.96300  0.76990  Biso   1.000  H
  H28      1.0000 0.80320  0.03700  0.23010  Biso   1.000  H
