data_image0
_cell_length_a       12.8771
_cell_length_b       13.4775
_cell_length_c       13.5993
_cell_angle_alpha    107.916
_cell_angle_beta     103.921
_cell_angle_gamma    112.783

_symmetry_space_group_name_H-M    "P 1"
_symmetry_int_tables_number       1

loop_
  _symmetry_equiv_pos_as_xyz
  'x, y, z'

loop_
  _atom_site_label
  _atom_site_occupancy
  _atom_site_fract_x
  _atom_site_fract_y
  _atom_site_fract_z
  _atom_site_thermal_displace_type
  _atom_site_B_iso_or_equiv
  _atom_site_type_symbol
  C1       1.0000 0.37970  0.21510  0.83280  Biso   1.000  C
  C2       1.0000 0.62030  0.78490  0.16720  Biso   1.000  C
  C3       1.0000 0.46280  0.18400  0.89590  Biso   1.000  C
  C4       1.0000 0.53720  0.81600  0.10410  Biso   1.000  C
  C5       1.0000 0.46690  0.19080  0.00020  Biso   1.000  C
  C6       1.0000 0.53310  0.80920  0.99980  Biso   1.000  C
  H1       1.0000 0.41680  0.21360  0.02900  Biso   1.000  H
  H2       1.0000 0.58320  0.78640  0.97100  Biso   1.000  H
  C7       1.0000 0.54500  0.16400  0.06240  Biso   1.000  C
  C8       1.0000 0.45500  0.83600  0.93760  Biso   1.000  C
  H3       1.0000 0.54820  0.16930  0.13290  Biso   1.000  H
  H4       1.0000 0.45180  0.83070  0.86710  Biso   1.000  H
  C9       1.0000 0.61840  0.12940  0.01820  Biso   1.000  C
  C10      1.0000 0.38160  0.87060  0.98180  Biso   1.000  C
  C11      1.0000 0.61340  0.11930  0.91340  Biso   1.000  C
  C12      1.0000 0.38660  0.88070  0.08660  Biso   1.000  C
  H5       1.0000 0.66160  0.09390  0.88370  Biso   1.000  H
  H6       1.0000 0.33840  0.90610  0.11630  Biso   1.000  H
  C13      1.0000 0.53550  0.14780  0.85210  Biso   1.000  C
  C14      1.0000 0.46450  0.85220  0.14790  Biso   1.000  C
  H7       1.0000 0.53230  0.14230  0.78150  Biso   1.000  H
  H8       1.0000 0.46770  0.85770  0.21850  Biso   1.000  H
  C15      1.0000 0.70820  0.09850  0.18160  Biso   1.000  C
  C16      1.0000 0.29180  0.90150  0.81840  Biso   1.000  C
  H9       1.0000 0.66140  0.11320  0.22050  Biso   1.000  H
  H10      1.0000 0.33860  0.88680  0.77950  Biso   1.000  H
  C17      1.0000 0.83400  0.05660  0.13260  Biso   1.000  C
  C18      1.0000 0.16600  0.94340  0.86740  Biso   1.000  C
  H11      1.0000 0.89480  0.03550  0.13360  Biso   1.000  H
  H12      1.0000 0.10520  0.96450  0.86640  Biso   1.000  H
  C19      1.0000 0.05200  0.32240  0.42150  Biso   1.000  C
  C20      1.0000 0.94800  0.67760  0.57850  Biso   1.000  C
  C21      1.0000 0.98520  0.35950  0.34930  Biso   1.000  C
  C22      1.0000 0.01480  0.64050  0.65070  Biso   1.000  C
  C23      1.0000 0.02490  0.38880  0.27150  Biso   1.000  C
  C24      1.0000 0.97510  0.61120  0.72850  Biso   1.000  C
  H13      1.0000 0.09460  0.38660  0.26550  Biso   1.000  H
  H14      1.0000 0.90540  0.61340  0.73450  Biso   1.000  H
  C25      1.0000 0.96120  0.42150  0.20200  Biso   1.000  C
  C26      1.0000 0.03880  0.57850  0.79800  Biso   1.000  C
  H15      1.0000 0.98810  0.44150  0.14970  Biso   1.000  H
  H16      1.0000 0.01190  0.55850  0.85030  Biso   1.000  H
  C27      1.0000 0.85800  0.42420  0.21070  Biso   1.000  C
  C28      1.0000 0.14200  0.57580  0.78930  Biso   1.000  C
  C29      1.0000 0.82080  0.40090  0.29190  Biso   1.000  C
  C30      1.0000 0.17920  0.59910  0.70810  Biso   1.000  C
  H17      1.0000 0.75370  0.40720  0.30040  Biso   1.000  H
  H18      1.0000 0.24630  0.59280  0.69960  Biso   1.000  H
  C31      1.0000 0.88510  0.36800  0.36100  Biso   1.000  C
  C32      1.0000 0.11490  0.63200  0.63900  Biso   1.000  C
  H19      1.0000 0.86030  0.35160  0.41570  Biso   1.000  H
  H20      1.0000 0.13970  0.64840  0.58430  Biso   1.000  H
  C33      1.0000 0.72350  0.47450  0.99070  Biso   1.000  C
  C34      1.0000 0.27650  0.52550  0.00930  Biso   1.000  C
  H21      1.0000 0.71610  0.48460  0.92530  Biso   1.000  H
  H22      1.0000 0.28390  0.51540  0.07470  Biso   1.000  H
  C35      1.0000 0.68640  0.45760  0.12920  Biso   1.000  C
  C36      1.0000 0.31360  0.54240  0.87080  Biso   1.000  C
  H23      1.0000 0.65140  0.45260  0.18110  Biso   1.000  H
  H24      1.0000 0.34860  0.54740  0.81890  Biso   1.000  H
  Cu1      1.0000 0.93332  0.87325  0.40447  Biso   1.000  Cu
  Cu2      1.0000 0.06668  0.12675  0.59553  Biso   1.000  Cu
  Cu3      1.0000 0.84097  0.05344  0.35501  Biso   1.000  Cu
  Cu4      1.0000 0.15903  0.94656  0.64499  Biso   1.000  Cu
  N1       1.0000 0.39100  0.32500  0.86470  Biso   1.000  N
  N2       1.0000 0.60900  0.67500  0.13530  Biso   1.000  N
  N3       1.0000 0.29970  0.31380  0.78220  Biso   1.000  N
  N4       1.0000 0.70030  0.68620  0.21780  Biso   1.000  N
  N5       1.0000 0.23670  0.20290  0.70560  Biso   1.000  N
  N6       1.0000 0.76330  0.79710  0.29440  Biso   1.000  N
  N7       1.0000 0.28320  0.13650  0.73420  Biso   1.000  N
  N8       1.0000 0.71680  0.86350  0.26580  Biso   1.000  N
  N9       1.0000 0.69940  0.10310  0.08420  Biso   1.000  N
  N10      1.0000 0.30060  0.89690  0.91580  Biso   1.000  N
  N11      1.0000 0.78080  0.07600  0.05080  Biso   1.000  N
  N12      1.0000 0.21920  0.92400  0.94920  Biso   1.000  N
  N13      1.0000 0.79210  0.07030  0.21500  Biso   1.000  N
  N14      1.0000 0.20790  0.92970  0.78500  Biso   1.000  N
  N15      1.0000 0.00150  0.22520  0.43850  Biso   1.000  N
  N16      1.0000 0.99850  0.77480  0.56150  Biso   1.000  N
  N17      1.0000 0.09770  0.23230  0.51400  Biso   1.000  N
  N18      1.0000 0.90230  0.76770  0.48600  Biso   1.000  N
  N19      1.0000 0.20020  0.32820  0.53970  Biso   1.000  N
  N20      1.0000 0.79980  0.67180  0.46030  Biso   1.000  N
  N21      1.0000 0.17460  0.38670  0.48290  Biso   1.000  N
  N22      1.0000 0.82540  0.61330  0.51710  Biso   1.000  N
  N23      1.0000 0.78700  0.44970  0.13330  Biso   1.000  N
  N24      1.0000 0.21300  0.55030  0.86670  Biso   1.000  N
  N25      1.0000 0.81190  0.45960  0.04310  Biso   1.000  N
  N26      1.0000 0.18810  0.54040  0.95690  Biso   1.000  N
  N27      1.0000 0.64380  0.47380  0.04040  Biso   1.000  N
  N28      1.0000 0.35620  0.52620  0.95960  Biso   1.000  N
  O1       1.0000 0.98600  0.94530  0.28610  Biso   1.000  O
  O2       1.0000 0.01400  0.05470  0.71390  Biso   1.000  O
  H25      1.0000 0.99870  0.02310  0.28840  Biso   1.000  H
  H26      1.0000 0.00130  0.97690  0.71160  Biso   1.000  H
  H27      1.0000 0.00100  0.90530  0.22140  Biso   1.000  H
  H28      1.0000 0.99900  0.09470  0.77860  Biso   1.000  H
  O3       1.0000 0.97470  0.74010  0.29110  Biso   1.000  O
  O4       1.0000 0.02530  0.25990  0.70890  Biso   1.000  O
  H29      1.0000 0.04040  0.73490  0.33170  Biso   1.000  H
  H30      1.0000 0.95960  0.26510  0.66830  Biso   1.000  H
  H31      1.0000 0.99600  0.75950  0.23580  Biso   1.000  H
  H32      1.0000 0.00400  0.24050  0.76420  Biso   1.000  H
  O5       1.0000 0.90050  0.02690  0.48260  Biso   1.000  O
  O6       1.0000 0.09950  0.97310  0.51740  Biso   1.000  O
  O7       1.0000 0.71110  0.09510  0.41580  Biso   1.000  O
  O8       1.0000 0.28890  0.90490  0.58420  Biso   1.000  O
  Cr1      1.0000 0.50000  0.50000  0.50000  Biso   1.000  Cr
  Cu5      1.0000 0.50000  0.50000  0.00000  Biso   1.000  Cu
  Mo1      1.0000 0.39191  0.39003  0.21862  Biso   1.000  Mo
  Mo2      1.0000 0.60809  0.60997  0.78138  Biso   1.000  Mo
  Mo3      1.0000 0.48932  0.24829  0.34512  Biso   1.000  Mo
  Mo4      1.0000 0.51068  0.75171  0.65488  Biso   1.000  Mo
  Mo5      1.0000 0.40508  0.64510  0.37341  Biso   1.000  Mo
  Mo6      1.0000 0.59492  0.35490  0.62659  Biso   1.000  Mo
  O9       1.0000 0.44980  0.44970  0.13630  Biso   1.000  O
  O10      1.0000 0.55020  0.55030  0.86370  Biso   1.000  O
  O11      1.0000 0.26560  0.25370  0.12390  Biso   1.000  O
  O12      1.0000 0.73440  0.74630  0.87610  Biso   1.000  O
  O13      1.0000 0.31090  0.47710  0.26250  Biso   1.000  O
  O14      1.0000 0.68910  0.52290  0.73750  Biso   1.000  O
  O15      1.0000 0.51320  0.34320  0.26250  Biso   1.000  O
  O16      1.0000 0.48680  0.65680  0.73750  Biso   1.000  O
  O17      1.0000 0.53040  0.55960  0.38840  Biso   1.000  O
  O18      1.0000 0.46960  0.44040  0.61160  Biso   1.000  O
  O19      1.0000 0.37770  0.34620  0.36590  Biso   1.000  O
  O20      1.0000 0.62230  0.65380  0.63410  Biso   1.000  O
  O21      1.0000 0.36100  0.11760  0.24500  Biso   1.000  O
  O22      1.0000 0.63900  0.88240  0.75500  Biso   1.000  O
  O23      1.0000 0.61040  0.22330  0.34770  Biso   1.000  O
  O24      1.0000 0.38960  0.77670  0.65230  Biso   1.000  O
  O25      1.0000 0.46870  0.23200  0.47630  Biso   1.000  O
  O26      1.0000 0.53130  0.76800  0.52370  Biso   1.000  O
  O27      1.0000 0.61220  0.43370  0.49970  Biso   1.000  O
  O28      1.0000 0.38780  0.56630  0.50030  Biso   1.000  O
  O29      1.0000 0.46830  0.71040  0.29900  Biso   1.000  O
  O30      1.0000 0.53170  0.28960  0.70100  Biso   1.000  O
  O31      1.0000 0.28580  0.67130  0.37290  Biso   1.000  O
  O32      1.0000 0.71420  0.32870  0.62710  Biso   1.000  O
