data_image0
_cell_length_a       7.634
_cell_length_b       10.658
_cell_length_c       12.973
_cell_angle_alpha    90
_cell_angle_beta     90.21
_cell_angle_gamma    90

_symmetry_space_group_name_H-M    "P 1"
_symmetry_int_tables_number       1

loop_
  _symmetry_equiv_pos_as_xyz
  'x, y, z'

loop_
  _atom_site_label
  _atom_site_occupancy
  _atom_site_fract_x
  _atom_site_fract_y
  _atom_site_fract_z
  _atom_site_thermal_displace_type
  _atom_site_B_iso_or_equiv
  _atom_site_type_symbol
  Cu1      1.0000 0.50151  0.72568  0.81601  Biso   1.000  Cu
  Cu2      1.0000 0.99849  0.22568  0.68399  Biso   1.000  Cu
  Cu3      1.0000 0.49849  0.27432  0.18399  Biso   1.000  Cu
  Cu4      1.0000 0.00151  0.77432  0.31601  Biso   1.000  Cu
  Fe1      1.0000 0.00000  0.50000  0.00000  Biso   1.000  Fe
  Fe2      1.0000 0.50000  0.00000  0.50000  Biso   1.000  Fe
  N1       1.0000 0.71470  0.65910  0.90000  Biso   1.000  N
  N2       1.0000 0.78530  0.15910  0.60000  Biso   1.000  N
  N3       1.0000 0.28530  0.34090  0.10000  Biso   1.000  N
  N4       1.0000 0.21470  0.84090  0.40000  Biso   1.000  N
  N5       1.0000 0.28300  0.67130  0.90090  Biso   1.000  N
  N6       1.0000 0.21700  0.17130  0.59910  Biso   1.000  N
  N7       1.0000 0.71700  0.32870  0.09910  Biso   1.000  N
  N8       1.0000 0.78300  0.82870  0.40090  Biso   1.000  N
  N9       1.0000 0.50420  0.57300  0.73820  Biso   1.000  N
  N10      1.0000 0.99580  0.07300  0.76180  Biso   1.000  N
  N11      1.0000 0.49580  0.42700  0.26180  Biso   1.000  N
  N12      1.0000 0.00420  0.92700  0.23820  Biso   1.000  N
  H1       1.0000 0.61690  0.54850  0.74190  Biso   1.000  H
  H2       1.0000 0.88310  0.04850  0.75810  Biso   1.000  H
  H3       1.0000 0.38310  0.45150  0.25810  Biso   1.000  H
  H4       1.0000 0.11690  0.95150  0.24190  Biso   1.000  H
  H5       1.0000 0.44600  0.51950  0.77950  Biso   1.000  H
  H6       1.0000 0.05400  0.01950  0.72050  Biso   1.000  H
  H7       1.0000 0.55400  0.48050  0.22050  Biso   1.000  H
  H8       1.0000 0.94600  0.98050  0.27950  Biso   1.000  H
  N13      1.0000 0.99850  0.67140  0.19200  Biso   1.000  N
  N14      1.0000 0.50150  0.17140  0.30800  Biso   1.000  N
  N15      1.0000 0.00150  0.32860  0.80800  Biso   1.000  N
  N16      1.0000 0.49850  0.82860  0.69200  Biso   1.000  N
  N17      1.0000 0.03720  0.37150  0.59840  Biso   1.000  N
  N18      1.0000 0.46280  0.87150  0.90160  Biso   1.000  N
  N19      1.0000 0.96280  0.62850  0.40160  Biso   1.000  N
  N20      1.0000 0.53720  0.12850  0.09840  Biso   1.000  N
  H9       1.0000 0.96350  0.37010  0.54410  Biso   1.000  H
  H10      1.0000 0.53650  0.87010  0.95590  Biso   1.000  H
  H11      1.0000 0.03650  0.62990  0.45590  Biso   1.000  H
  H12      1.0000 0.46350  0.12990  0.04410  Biso   1.000  H
  H13      1.0000 0.98410  0.44210  0.63270  Biso   1.000  H
  H14      1.0000 0.51590  0.94210  0.86730  Biso   1.000  H
  H15      1.0000 0.01590  0.55790  0.36730  Biso   1.000  H
  H16      1.0000 0.48410  0.05790  0.13270  Biso   1.000  H
  C1       1.0000 0.82460  0.60120  0.93610  Biso   1.000  C
  C2       1.0000 0.67540  0.10120  0.56390  Biso   1.000  C
  C3       1.0000 0.17540  0.39880  0.06390  Biso   1.000  C
  C4       1.0000 0.32460  0.89880  0.43610  Biso   1.000  C
  C5       1.0000 0.17530  0.60320  0.93410  Biso   1.000  C
  C6       1.0000 0.32470  0.10320  0.56590  Biso   1.000  C
  C7       1.0000 0.82470  0.39680  0.06590  Biso   1.000  C
  C8       1.0000 0.67530  0.89680  0.43410  Biso   1.000  C
  C9       1.0000 0.45080  0.53340  0.63840  Biso   1.000  C
  C10      1.0000 0.04920  0.03340  0.86160  Biso   1.000  C
  C11      1.0000 0.54920  0.46660  0.36160  Biso   1.000  C
  C12      1.0000 0.95080  0.96660  0.13840  Biso   1.000  C
  H17      1.0000 0.55060  0.49890  0.60210  Biso   1.000  H
  H18      1.0000 0.94940  0.99890  0.89790  Biso   1.000  H
  H19      1.0000 0.44940  0.50110  0.39790  Biso   1.000  H
  H20      1.0000 0.05060  0.00110  0.10210  Biso   1.000  H
  H21      1.0000 0.40850  0.60530  0.59970  Biso   1.000  H
  H22      1.0000 0.09150  0.10530  0.90030  Biso   1.000  H
  H23      1.0000 0.59150  0.39470  0.40030  Biso   1.000  H
  H24      1.0000 0.90850  0.89470  0.09970  Biso   1.000  H
  C13      1.0000 0.31480  0.44040  0.64380  Biso   1.000  C
  C14      1.0000 0.18520  0.94040  0.85620  Biso   1.000  C
  C15      1.0000 0.68520  0.55960  0.35620  Biso   1.000  C
  C16      1.0000 0.81480  0.05960  0.14380  Biso   1.000  C
  H25      1.0000 0.23110  0.47930  0.68910  Biso   1.000  H
  H26      1.0000 0.26890  0.97930  0.81090  Biso   1.000  H
  H27      1.0000 0.76890  0.52070  0.31090  Biso   1.000  H
  H28      1.0000 0.73110  0.02070  0.18910  Biso   1.000  H
  H29      1.0000 0.37010  0.37370  0.68520  Biso   1.000  H
  H30      1.0000 0.12990  0.87370  0.81480  Biso   1.000  H
  H31      1.0000 0.62990  0.62630  0.31480  Biso   1.000  H
  H32      1.0000 0.87010  0.12630  0.18520  Biso   1.000  H
  C17      1.0000 0.21850  0.38080  0.56180  Biso   1.000  C
  C18      1.0000 0.28150  0.88080  0.93820  Biso   1.000  C
  C19      1.0000 0.78150  0.61920  0.43820  Biso   1.000  C
  C20      1.0000 0.71850  0.11920  0.06180  Biso   1.000  C
  H33      1.0000 0.26590  0.29820  0.54760  Biso   1.000  H
  H34      1.0000 0.23410  0.79820  0.95240  Biso   1.000  H
  H35      1.0000 0.73410  0.70180  0.45240  Biso   1.000  H
  H36      1.0000 0.76590  0.20180  0.04760  Biso   1.000  H
  H37      1.0000 0.22410  0.43070  0.49930  Biso   1.000  H
  H38      1.0000 0.27590  0.93070  0.00070  Biso   1.000  H
  H39      1.0000 0.77590  0.56930  0.50070  Biso   1.000  H
  H40      1.0000 0.72410  0.06930  0.99930  Biso   1.000  H
  C21      1.0000 0.98160  0.61100  0.12180  Biso   1.000  C
  C22      1.0000 0.51840  0.11100  0.37820  Biso   1.000  C
  C23      1.0000 0.01840  0.38900  0.87820  Biso   1.000  C
  C24      1.0000 0.48160  0.88900  0.62180  Biso   1.000  C
  O1       1.0000 0.50710  0.33590  0.88650  Biso   1.000  O
  O2       1.0000 0.99290  0.83590  0.61350  Biso   1.000  O
  O3       1.0000 0.49290  0.66410  0.11350  Biso   1.000  O
  O4       1.0000 0.00710  0.16410  0.38650  Biso   1.000  O
  H41      1.0000 0.42170  0.30190  0.85500  Biso   1.000  H
  H42      1.0000 0.07830  0.80190  0.64500  Biso   1.000  H
  H43      1.0000 0.57830  0.69810  0.14500  Biso   1.000  H
  H44      1.0000 0.92170  0.19810  0.35500  Biso   1.000  H
  H45      1.0000 0.60290  0.30950  0.86150  Biso   1.000  H
  H46      1.0000 0.89710  0.80950  0.63850  Biso   1.000  H
  H47      1.0000 0.39710  0.69050  0.13850  Biso   1.000  H
  H48      1.0000 0.10290  0.19050  0.36150  Biso   1.000  H
