data_image0
_cell_length_a       23.508
_cell_length_b       5.978
_cell_length_c       25.257
_cell_angle_alpha    90
_cell_angle_beta     99.95
_cell_angle_gamma    90

_symmetry_space_group_name_H-M    "P 1"
_symmetry_int_tables_number       1

loop_
  _symmetry_equiv_pos_as_xyz
  'x, y, z'

loop_
  _atom_site_label
  _atom_site_occupancy
  _atom_site_fract_x
  _atom_site_fract_y
  _atom_site_fract_z
  _atom_site_thermal_displace_type
  _atom_site_B_iso_or_equiv
  _atom_site_type_symbol
  O1       1.0000 0.51390  0.35400  0.87118  Biso   1.000  O
  O2       1.0000 0.98610  0.35400  0.12882  Biso   1.000  O
  O3       1.0000 0.01390  0.85400  0.37118  Biso   1.000  O
  O4       1.0000 0.48610  0.85400  0.62882  Biso   1.000  O
  O5       1.0000 0.48610  0.64600  0.12882  Biso   1.000  O
  O6       1.0000 0.01390  0.64600  0.87118  Biso   1.000  O
  O7       1.0000 0.98610  0.14600  0.62882  Biso   1.000  O
  O8       1.0000 0.51390  0.14600  0.37118  Biso   1.000  O
  O9       1.0000 0.12918  0.83100  0.53796  Biso   1.000  O
  O10      1.0000 0.37082  0.83100  0.46204  Biso   1.000  O
  O11      1.0000 0.62918  0.33100  0.03796  Biso   1.000  O
  O12      1.0000 0.87082  0.33100  0.96204  Biso   1.000  O
  O13      1.0000 0.87082  0.16900  0.46204  Biso   1.000  O
  O14      1.0000 0.62918  0.16900  0.53796  Biso   1.000  O
  O15      1.0000 0.37082  0.66900  0.96204  Biso   1.000  O
  O16      1.0000 0.12918  0.66900  0.03796  Biso   1.000  O
  N1       1.0000 0.38663  0.26980  0.60224  Biso   1.000  N
  N2       1.0000 0.11337  0.26980  0.39776  Biso   1.000  N
  N3       1.0000 0.88663  0.76980  0.10224  Biso   1.000  N
  N4       1.0000 0.61337  0.76980  0.89776  Biso   1.000  N
  N5       1.0000 0.61337  0.73020  0.39776  Biso   1.000  N
  N6       1.0000 0.88663  0.73020  0.60224  Biso   1.000  N
  N7       1.0000 0.11337  0.23020  0.89776  Biso   1.000  N
  N8       1.0000 0.38663  0.23020  0.10224  Biso   1.000  N
  N9       1.0000 0.44586  0.36640  0.54944  Biso   1.000  N
  N10      1.0000 0.05414  0.36640  0.45056  Biso   1.000  N
  N11      1.0000 0.94586  0.86640  0.04944  Biso   1.000  N
  N12      1.0000 0.55414  0.86640  0.95056  Biso   1.000  N
  N13      1.0000 0.55414  0.63360  0.45056  Biso   1.000  N
  N14      1.0000 0.94586  0.63360  0.54944  Biso   1.000  N
  N15      1.0000 0.05414  0.13360  0.95056  Biso   1.000  N
  N16      1.0000 0.44586  0.13360  0.04944  Biso   1.000  N
  C1       1.0000 0.12837  0.63760  0.56016  Biso   1.000  C
  C2       1.0000 0.37163  0.63760  0.43984  Biso   1.000  C
  C3       1.0000 0.62837  0.13760  0.06016  Biso   1.000  C
  C4       1.0000 0.87163  0.13760  0.93984  Biso   1.000  C
  C5       1.0000 0.87163  0.36240  0.43984  Biso   1.000  C
  C6       1.0000 0.62837  0.36240  0.56016  Biso   1.000  C
  C7       1.0000 0.37163  0.86240  0.93984  Biso   1.000  C
  C8       1.0000 0.12837  0.86240  0.06016  Biso   1.000  C
  C9       1.0000 0.37953  0.31570  0.69433  Biso   1.000  C
  C10      1.0000 0.12047  0.31570  0.30567  Biso   1.000  C
  C11      1.0000 0.87953  0.81570  0.19433  Biso   1.000  C
  C12      1.0000 0.62047  0.81570  0.80567  Biso   1.000  C
  C13      1.0000 0.62047  0.68430  0.30567  Biso   1.000  C
  C14      1.0000 0.87953  0.68430  0.69433  Biso   1.000  C
  C15      1.0000 0.12047  0.18430  0.80567  Biso   1.000  C
  C16      1.0000 0.37953  0.18430  0.19433  Biso   1.000  C
  C17      1.0000 0.18747  0.54360  0.58186  Biso   1.000  C
  C18      1.0000 0.31253  0.54360  0.41814  Biso   1.000  C
  C19      1.0000 0.68747  0.04360  0.08186  Biso   1.000  C
  C20      1.0000 0.81253  0.04360  0.91814  Biso   1.000  C
  C21      1.0000 0.81253  0.45640  0.41814  Biso   1.000  C
  C22      1.0000 0.68747  0.45640  0.58186  Biso   1.000  C
  C23      1.0000 0.31253  0.95640  0.91814  Biso   1.000  C
  C24      1.0000 0.18747  0.95640  0.08186  Biso   1.000  C
  C25      1.0000 0.19240  0.34730  0.61097  Biso   1.000  C
  C26      1.0000 0.30760  0.34730  0.38903  Biso   1.000  C
  C27      1.0000 0.69240  0.84730  0.11097  Biso   1.000  C
  C28      1.0000 0.80760  0.84730  0.88903  Biso   1.000  C
  C29      1.0000 0.80760  0.65270  0.38903  Biso   1.000  C
  C30      1.0000 0.69240  0.65270  0.61097  Biso   1.000  C
  C31      1.0000 0.30760  0.15270  0.88903  Biso   1.000  C
  C32      1.0000 0.19240  0.15270  0.11097  Biso   1.000  C
  H1       1.0000 0.15940  0.27360  0.61730  Biso   1.000  H
  H2       1.0000 0.34060  0.27360  0.38270  Biso   1.000  H
  H3       1.0000 0.65940  0.77360  0.11730  Biso   1.000  H
  H4       1.0000 0.84060  0.77360  0.88270  Biso   1.000  H
  H5       1.0000 0.84060  0.72640  0.38270  Biso   1.000  H
  H6       1.0000 0.65940  0.72640  0.61730  Biso   1.000  H
  H7       1.0000 0.34060  0.22640  0.88270  Biso   1.000  H
  H8       1.0000 0.15940  0.22640  0.11730  Biso   1.000  H
  N17      1.0000 0.35061  0.26930  0.64091  Biso   1.000  N
  N18      1.0000 0.14939  0.26930  0.35909  Biso   1.000  N
  N19      1.0000 0.85061  0.76930  0.14091  Biso   1.000  N
  N20      1.0000 0.64939  0.76930  0.85909  Biso   1.000  N
  N21      1.0000 0.64939  0.73070  0.35909  Biso   1.000  N
  N22      1.0000 0.85061  0.73070  0.64091  Biso   1.000  N
  N23      1.0000 0.14939  0.23070  0.85909  Biso   1.000  N
  N24      1.0000 0.35061  0.23070  0.14091  Biso   1.000  N
  C33      1.0000 0.46274  0.41590  0.85687  Biso   1.000  C
  C34      1.0000 0.03726  0.41590  0.14313  Biso   1.000  C
  C35      1.0000 0.96274  0.91590  0.35687  Biso   1.000  C
  C36      1.0000 0.53726  0.91590  0.64313  Biso   1.000  C
  C37      1.0000 0.53726  0.58410  0.14313  Biso   1.000  C
  C38      1.0000 0.96274  0.58410  0.85687  Biso   1.000  C
  C39      1.0000 0.03726  0.08410  0.64313  Biso   1.000  C
  C40      1.0000 0.46274  0.08410  0.35687  Biso   1.000  C
  C41      1.0000 0.43441  0.38470  0.79971  Biso   1.000  C
  C42      1.0000 0.06559  0.38470  0.20029  Biso   1.000  C
  C43      1.0000 0.93441  0.88470  0.29971  Biso   1.000  C
  C44      1.0000 0.56559  0.88470  0.70029  Biso   1.000  C
  C45      1.0000 0.56559  0.61530  0.20029  Biso   1.000  C
  C46      1.0000 0.93441  0.61530  0.79971  Biso   1.000  C
  C47      1.0000 0.06559  0.11530  0.70029  Biso   1.000  C
  C48      1.0000 0.43441  0.11530  0.29971  Biso   1.000  C
  C49      1.0000 0.29521  0.37000  0.62102  Biso   1.000  C
  C50      1.0000 0.20479  0.37000  0.37898  Biso   1.000  C
  C51      1.0000 0.79521  0.87000  0.12102  Biso   1.000  C
  C52      1.0000 0.70479  0.87000  0.87898  Biso   1.000  C
  C53      1.0000 0.70479  0.63000  0.37898  Biso   1.000  C
  C54      1.0000 0.79521  0.63000  0.62102  Biso   1.000  C
  C55      1.0000 0.20479  0.13000  0.87898  Biso   1.000  C
  C56      1.0000 0.29521  0.13000  0.12102  Biso   1.000  C
  C57      1.0000 0.38033  0.12540  0.56062  Biso   1.000  C
  C58      1.0000 0.11967  0.12540  0.43938  Biso   1.000  C
  C59      1.0000 0.88033  0.62540  0.06062  Biso   1.000  C
  C60      1.0000 0.61967  0.62540  0.93938  Biso   1.000  C
  C61      1.0000 0.61967  0.87460  0.43938  Biso   1.000  C
  C62      1.0000 0.88033  0.87460  0.56062  Biso   1.000  C
  C63      1.0000 0.11967  0.37460  0.93938  Biso   1.000  C
  C64      1.0000 0.38033  0.37460  0.06062  Biso   1.000  C
  H9       1.0000 0.35500  0.00470  0.55590  Biso   1.000  H
  H10      1.0000 0.14500  0.00470  0.44410  Biso   1.000  H
  H11      1.0000 0.85500  0.50470  0.05590  Biso   1.000  H
  H12      1.0000 0.64500  0.50470  0.94410  Biso   1.000  H
  H13      1.0000 0.64500  0.99530  0.44410  Biso   1.000  H
  H14      1.0000 0.85500  0.99530  0.55590  Biso   1.000  H
  H15      1.0000 0.14500  0.49530  0.94410  Biso   1.000  H
  H16      1.0000 0.35500  0.49530  0.05590  Biso   1.000  H
  C65      1.0000 0.45852  0.24390  0.76585  Biso   1.000  C
  C66      1.0000 0.04148  0.24390  0.23415  Biso   1.000  C
  C67      1.0000 0.95852  0.74390  0.26585  Biso   1.000  C
  C68      1.0000 0.54148  0.74390  0.73415  Biso   1.000  C
  C69      1.0000 0.54148  0.75610  0.23415  Biso   1.000  C
  C70      1.0000 0.95852  0.75610  0.76585  Biso   1.000  C
  C71      1.0000 0.04148  0.25610  0.73415  Biso   1.000  C
  C72      1.0000 0.45852  0.25610  0.26585  Biso   1.000  C
  H17      1.0000 0.49360  0.17400  0.77850  Biso   1.000  H
  H18      1.0000 0.00640  0.17400  0.22150  Biso   1.000  H
  H19      1.0000 0.99360  0.67400  0.27850  Biso   1.000  H
  H20      1.0000 0.50640  0.67400  0.72150  Biso   1.000  H
  H21      1.0000 0.50640  0.82600  0.22150  Biso   1.000  H
  H22      1.0000 0.99360  0.82600  0.77850  Biso   1.000  H
  H23      1.0000 0.00640  0.32600  0.72150  Biso   1.000  H
  H24      1.0000 0.49360  0.32600  0.27850  Biso   1.000  H
  C73      1.0000 0.42793  0.41910  0.59384  Biso   1.000  C
  C74      1.0000 0.07207  0.41910  0.40616  Biso   1.000  C
  C75      1.0000 0.92793  0.91910  0.09384  Biso   1.000  C
  C76      1.0000 0.57207  0.91910  0.90616  Biso   1.000  C
  C77      1.0000 0.57207  0.58090  0.40616  Biso   1.000  C
  C78      1.0000 0.92793  0.58090  0.59384  Biso   1.000  C
  C79      1.0000 0.07207  0.08090  0.90616  Biso   1.000  C
  C80      1.0000 0.42793  0.08090  0.09384  Biso   1.000  C
  H25      1.0000 0.44110  0.53890  0.61610  Biso   1.000  H
  H26      1.0000 0.05890  0.53890  0.38390  Biso   1.000  H
  H27      1.0000 0.94110  0.03890  0.11610  Biso   1.000  H
  H28      1.0000 0.55890  0.03890  0.88390  Biso   1.000  H
  H29      1.0000 0.55890  0.46110  0.38390  Biso   1.000  H
  H30      1.0000 0.94110  0.46110  0.61610  Biso   1.000  H
  H31      1.0000 0.05890  0.96110  0.88390  Biso   1.000  H
  H32      1.0000 0.44110  0.96110  0.11610  Biso   1.000  H
  O17      1.0000 0.43103  0.50430  0.88714  Biso   1.000  O
  O18      1.0000 0.06897  0.50430  0.11286  Biso   1.000  O
  O19      1.0000 0.93103  0.00430  0.38714  Biso   1.000  O
  O20      1.0000 0.56897  0.00430  0.61286  Biso   1.000  O
  O21      1.0000 0.56897  0.49570  0.11286  Biso   1.000  O
  O22      1.0000 0.93103  0.49570  0.88714  Biso   1.000  O
  O23      1.0000 0.06897  0.99570  0.61286  Biso   1.000  O
  O24      1.0000 0.43103  0.99570  0.38714  Biso   1.000  O
  C81      1.0000 0.43113  0.20610  0.71363  Biso   1.000  C
  C82      1.0000 0.06887  0.20610  0.28637  Biso   1.000  C
  C83      1.0000 0.93113  0.70610  0.21363  Biso   1.000  C
  C84      1.0000 0.56887  0.70610  0.78637  Biso   1.000  C
  C85      1.0000 0.56887  0.79390  0.28637  Biso   1.000  C
  C86      1.0000 0.93113  0.79390  0.71363  Biso   1.000  C
  C87      1.0000 0.06887  0.29390  0.78637  Biso   1.000  C
  C88      1.0000 0.43113  0.29390  0.21363  Biso   1.000  C
  H33      1.0000 0.44710  0.10820  0.69160  Biso   1.000  H
  H34      1.0000 0.05290  0.10820  0.30840  Biso   1.000  H
  H35      1.0000 0.94710  0.60820  0.19160  Biso   1.000  H
  H36      1.0000 0.55290  0.60820  0.80840  Biso   1.000  H
  H37      1.0000 0.55290  0.89180  0.30840  Biso   1.000  H
  H38      1.0000 0.94710  0.89180  0.69160  Biso   1.000  H
  H39      1.0000 0.05290  0.39180  0.80840  Biso   1.000  H
  H40      1.0000 0.44710  0.39180  0.19160  Biso   1.000  H
  C89      1.0000 0.23636  0.65140  0.57239  Biso   1.000  C
  C90      1.0000 0.26364  0.65140  0.42761  Biso   1.000  C
  C91      1.0000 0.73636  0.15140  0.07239  Biso   1.000  C
  C92      1.0000 0.76364  0.15140  0.92761  Biso   1.000  C
  C93      1.0000 0.76364  0.34860  0.42761  Biso   1.000  C
  C94      1.0000 0.73636  0.34860  0.57239  Biso   1.000  C
  C95      1.0000 0.26364  0.84860  0.92761  Biso   1.000  C
  C96      1.0000 0.23636  0.84860  0.07239  Biso   1.000  C
  H41      1.0000 0.23310  0.78370  0.55270  Biso   1.000  H
  H42      1.0000 0.26690  0.78370  0.44730  Biso   1.000  H
  H43      1.0000 0.73310  0.28370  0.05270  Biso   1.000  H
  H44      1.0000 0.76690  0.28370  0.94730  Biso   1.000  H
  H45      1.0000 0.76690  0.21630  0.44730  Biso   1.000  H
  H46      1.0000 0.73310  0.21630  0.55270  Biso   1.000  H
  H47      1.0000 0.26690  0.71630  0.94730  Biso   1.000  H
  H48      1.0000 0.23310  0.71630  0.05270  Biso   1.000  H
  C97      1.0000 0.29042  0.56450  0.59190  Biso   1.000  C
  C98      1.0000 0.20958  0.56450  0.40810  Biso   1.000  C
  C99      1.0000 0.79042  0.06450  0.09190  Biso   1.000  C
  C100     1.0000 0.70958  0.06450  0.90810  Biso   1.000  C
  C101     1.0000 0.70958  0.43550  0.40810  Biso   1.000  C
  C102     1.0000 0.79042  0.43550  0.59190  Biso   1.000  C
  C103     1.0000 0.20958  0.93550  0.90810  Biso   1.000  C
  C104     1.0000 0.29042  0.93550  0.09190  Biso   1.000  C
  H49      1.0000 0.32340  0.63780  0.58530  Biso   1.000  H
  H50      1.0000 0.17660  0.63780  0.41470  Biso   1.000  H
  H51      1.0000 0.82340  0.13780  0.08530  Biso   1.000  H
  H52      1.0000 0.67660  0.13780  0.91470  Biso   1.000  H
  H53      1.0000 0.67660  0.36220  0.41470  Biso   1.000  H
  H54      1.0000 0.82340  0.36220  0.58530  Biso   1.000  H
  H55      1.0000 0.17660  0.86220  0.91470  Biso   1.000  H
  H56      1.0000 0.32340  0.86220  0.08530  Biso   1.000  H
  C105     1.0000 0.24655  0.25950  0.63078  Biso   1.000  C
  C106     1.0000 0.25345  0.25950  0.36922  Biso   1.000  C
  C107     1.0000 0.74655  0.75950  0.13078  Biso   1.000  C
  C108     1.0000 0.75345  0.75950  0.86922  Biso   1.000  C
  C109     1.0000 0.75345  0.74050  0.36922  Biso   1.000  C
  C110     1.0000 0.74655  0.74050  0.63078  Biso   1.000  C
  C111     1.0000 0.25345  0.24050  0.86922  Biso   1.000  C
  C112     1.0000 0.24655  0.24050  0.13078  Biso   1.000  C
  H57      1.0000 0.25000  0.12730  0.65050  Biso   1.000  H
  H58      1.0000 0.25000  0.12730  0.34950  Biso   1.000  H
  H59      1.0000 0.75000  0.62730  0.15050  Biso   1.000  H
  H60      1.0000 0.75000  0.62730  0.84950  Biso   1.000  H
  H61      1.0000 0.75000  0.87270  0.34950  Biso   1.000  H
  H62      1.0000 0.75000  0.87270  0.65050  Biso   1.000  H
  H63      1.0000 0.25000  0.37270  0.84950  Biso   1.000  H
  H64      1.0000 0.25000  0.37270  0.15050  Biso   1.000  H
  C113     1.0000 0.35539  0.45940  0.72720  Biso   1.000  C
  C114     1.0000 0.14461  0.45940  0.27280  Biso   1.000  C
  C115     1.0000 0.85539  0.95940  0.22720  Biso   1.000  C
  C116     1.0000 0.64461  0.95940  0.77280  Biso   1.000  C
  C117     1.0000 0.64461  0.54060  0.27280  Biso   1.000  C
  C118     1.0000 0.85539  0.54060  0.72720  Biso   1.000  C
  C119     1.0000 0.14461  0.04060  0.77280  Biso   1.000  C
  C120     1.0000 0.35539  0.04060  0.22720  Biso   1.000  C
  H65      1.0000 0.32110  0.53390  0.71410  Biso   1.000  H
  H66      1.0000 0.17890  0.53390  0.28590  Biso   1.000  H
  H67      1.0000 0.82110  0.03390  0.21410  Biso   1.000  H
  H68      1.0000 0.67890  0.03390  0.78590  Biso   1.000  H
  H69      1.0000 0.67890  0.46610  0.28590  Biso   1.000  H
  H70      1.0000 0.82110  0.46610  0.71410  Biso   1.000  H
  H71      1.0000 0.17890  0.96610  0.78590  Biso   1.000  H
  H72      1.0000 0.32110  0.96610  0.21410  Biso   1.000  H
  C121     1.0000 0.38275  0.49160  0.77994  Biso   1.000  C
  C122     1.0000 0.11725  0.49160  0.22006  Biso   1.000  C
  C123     1.0000 0.88275  0.99160  0.27994  Biso   1.000  C
  C124     1.0000 0.61725  0.99160  0.72006  Biso   1.000  C
  C125     1.0000 0.61725  0.50840  0.22006  Biso   1.000  C
  C126     1.0000 0.88275  0.50840  0.77994  Biso   1.000  C
  C127     1.0000 0.11725  0.00840  0.72006  Biso   1.000  C
  C128     1.0000 0.38275  0.00840  0.27994  Biso   1.000  C
  H73      1.0000 0.36620  0.58600  0.80230  Biso   1.000  H
  H74      1.0000 0.13380  0.58600  0.19770  Biso   1.000  H
  H75      1.0000 0.86620  0.08600  0.30230  Biso   1.000  H
  H76      1.0000 0.63380  0.08600  0.69770  Biso   1.000  H
  H77      1.0000 0.63380  0.41400  0.19770  Biso   1.000  H
  H78      1.0000 0.86620  0.41400  0.80230  Biso   1.000  H
  H79      1.0000 0.13380  0.91400  0.69770  Biso   1.000  H
  H80      1.0000 0.36620  0.91400  0.30230  Biso   1.000  H
  Cu1      1.0000 0.06122  0.01327  0.53486  Biso   1.000  Cu
  Cu2      1.0000 0.43878  0.01327  0.46514  Biso   1.000  Cu
  Cu3      1.0000 0.56122  0.51327  0.03486  Biso   1.000  Cu
  Cu4      1.0000 0.93878  0.51327  0.96514  Biso   1.000  Cu
  Cu5      1.0000 0.93878  0.98673  0.46514  Biso   1.000  Cu
  Cu6      1.0000 0.56122  0.98673  0.53486  Biso   1.000  Cu
  Cu7      1.0000 0.43878  0.48673  0.96514  Biso   1.000  Cu
  Cu8      1.0000 0.06122  0.48673  0.03486  Biso   1.000  Cu
  Cu9      1.0000 0.50000  0.50000  0.50000  Biso   1.000  Cu
  Cu10     1.0000 0.00000  0.50000  0.50000  Biso   1.000  Cu
  Cu11     1.0000 0.00000  0.00000  0.00000  Biso   1.000  Cu
  Cu12     1.0000 0.50000  0.00000  0.00000  Biso   1.000  Cu
  O25      1.0000 0.99384  0.20210  0.52496  Biso   1.000  O
  O26      1.0000 0.50616  0.20210  0.47504  Biso   1.000  O
  O27      1.0000 0.49384  0.70210  0.02496  Biso   1.000  O
  O28      1.0000 0.00616  0.70210  0.97504  Biso   1.000  O
  O29      1.0000 0.00616  0.79790  0.47504  Biso   1.000  O
  O30      1.0000 0.49384  0.79790  0.52496  Biso   1.000  O
  O31      1.0000 0.50616  0.29790  0.97504  Biso   1.000  O
  O32      1.0000 0.99384  0.29790  0.02496  Biso   1.000  O
  N25      1.0000 0.41521  0.18110  0.52827  Biso   1.000  N
  N26      1.0000 0.08479  0.18110  0.47173  Biso   1.000  N
  N27      1.0000 0.91521  0.68110  0.02827  Biso   1.000  N
  N28      1.0000 0.58479  0.68110  0.97173  Biso   1.000  N
  N29      1.0000 0.58479  0.81890  0.47173  Biso   1.000  N
  N30      1.0000 0.91521  0.81890  0.52827  Biso   1.000  N
  N31      1.0000 0.08479  0.31890  0.97173  Biso   1.000  N
  N32      1.0000 0.41521  0.31890  0.02827  Biso   1.000  N
  O33      1.0000 0.08534  0.53040  0.56524  Biso   1.000  O
  O34      1.0000 0.41466  0.53040  0.43476  Biso   1.000  O
  O35      1.0000 0.58534  0.03040  0.06524  Biso   1.000  O
  O36      1.0000 0.91466  0.03040  0.93476  Biso   1.000  O
  O37      1.0000 0.91466  0.46960  0.43476  Biso   1.000  O
  O38      1.0000 0.58534  0.46960  0.56524  Biso   1.000  O
  O39      1.0000 0.41466  0.96960  0.93476  Biso   1.000  O
  O40      1.0000 0.08534  0.96960  0.06524  Biso   1.000  O
  H81      1.0000 0.98470  0.19100  0.55440  Biso   1.000  H
  H82      1.0000 0.51530  0.19100  0.44560  Biso   1.000  H
  H83      1.0000 0.48470  0.69100  0.05440  Biso   1.000  H
  H84      1.0000 0.01530  0.69100  0.94560  Biso   1.000  H
  H85      1.0000 0.01530  0.80900  0.44560  Biso   1.000  H
  H86      1.0000 0.48470  0.80900  0.55440  Biso   1.000  H
  H87      1.0000 0.51530  0.30900  0.94560  Biso   1.000  H
  H88      1.0000 0.98470  0.30900  0.05440  Biso   1.000  H
