data_image0
_cell_length_a       24.97
_cell_length_b       4.009
_cell_length_c       9.116
_cell_angle_alpha    90
_cell_angle_beta     90
_cell_angle_gamma    90

_symmetry_space_group_name_H-M    "P 1"
_symmetry_int_tables_number       1

loop_
  _symmetry_equiv_pos_as_xyz
  'x, y, z'

loop_
  _atom_site_label
  _atom_site_occupancy
  _atom_site_fract_x
  _atom_site_fract_y
  _atom_site_fract_z
  _atom_site_thermal_displace_type
  _atom_site_B_iso_or_equiv
  _atom_site_type_symbol
  Cu1      1.0000 0.10304  0.93657  0.50000  Biso   1.000  Cu
  Cu2      1.0000 0.39696  0.93657  0.00000  Biso   1.000  Cu
  Cu3      1.0000 0.60304  0.06343  0.50000  Biso   1.000  Cu
  Cu4      1.0000 0.89696  0.06343  0.00000  Biso   1.000  Cu
  Cl1      1.0000 0.15330  0.34190  0.38730  Biso   1.000  Cl
  Cl2      1.0000 0.34670  0.34190  0.88730  Biso   1.000  Cl
  Cl3      1.0000 0.65330  0.65810  0.38730  Biso   1.000  Cl
  Cl4      1.0000 0.84670  0.65810  0.88730  Biso   1.000  Cl
  N1       1.0000 0.14580  0.91430  0.67820  Biso   1.000  N
  N2       1.0000 0.35420  0.91430  0.17820  Biso   1.000  N
  N3       1.0000 0.64580  0.08570  0.67820  Biso   1.000  N
  N4       1.0000 0.85420  0.08570  0.17820  Biso   1.000  N
  N5       1.0000 0.17370  0.77420  0.90350  Biso   1.000  N
  N6       1.0000 0.32630  0.77420  0.40350  Biso   1.000  N
  N7       1.0000 0.67370  0.22580  0.90350  Biso   1.000  N
  N8       1.0000 0.82630  0.22580  0.40350  Biso   1.000  N
  N9       1.0000 0.05460  0.91820  0.33310  Biso   1.000  N
  N10      1.0000 0.44540  0.91820  0.83310  Biso   1.000  N
  N11      1.0000 0.55460  0.08180  0.33310  Biso   1.000  N
  N12      1.0000 0.94540  0.08180  0.83310  Biso   1.000  N
  O1       1.0000 0.04570  0.69460  0.60160  Biso   1.000  O
  O2       1.0000 0.45430  0.69460  0.10160  Biso   1.000  O
  O3       1.0000 0.54570  0.30540  0.60160  Biso   1.000  O
  O4       1.0000 0.95430  0.30540  0.10160  Biso   1.000  O
  O5       1.0000 0.95790  0.56710  0.58520  Biso   1.000  O
  O6       1.0000 0.54210  0.56710  0.08520  Biso   1.000  O
  O7       1.0000 0.45790  0.43290  0.58520  Biso   1.000  O
  O8       1.0000 0.04210  0.43290  0.08520  Biso   1.000  O
  C1       1.0000 0.13480  0.76100  0.80630  Biso   1.000  C
  C2       1.0000 0.36520  0.76100  0.30630  Biso   1.000  C
  C3       1.0000 0.63480  0.23900  0.80630  Biso   1.000  C
  C4       1.0000 0.86520  0.23900  0.30630  Biso   1.000  C
  C5       1.0000 0.19750  0.04090  0.70280  Biso   1.000  C
  C6       1.0000 0.30250  0.04090  0.20280  Biso   1.000  C
  C7       1.0000 0.69750  0.95910  0.70280  Biso   1.000  C
  C8       1.0000 0.80250  0.95910  0.20280  Biso   1.000  C
  C9       1.0000 0.21450  0.95620  0.83520  Biso   1.000  C
  C10      1.0000 0.28550  0.95620  0.33520  Biso   1.000  C
  C11      1.0000 0.71450  0.04380  0.83520  Biso   1.000  C
  C12      1.0000 0.78550  0.04380  0.33520  Biso   1.000  C
  C13      1.0000 0.17310  0.65220  0.04790  Biso   1.000  C
  C14      1.0000 0.32690  0.65220  0.54790  Biso   1.000  C
  C15      1.0000 0.67310  0.34780  0.04790  Biso   1.000  C
  C16      1.0000 0.82690  0.34780  0.54790  Biso   1.000  C
  C17      1.0000 0.99970  0.83050  0.38830  Biso   1.000  C
  C18      1.0000 0.50030  0.83050  0.88830  Biso   1.000  C
  C19      1.0000 0.49970  0.16950  0.38830  Biso   1.000  C
  C20      1.0000 0.00030  0.16950  0.88830  Biso   1.000  C
  C21      1.0000 0.99910  0.69520  0.52870  Biso   1.000  C
  C22      1.0000 0.50090  0.69520  0.02870  Biso   1.000  C
  C23      1.0000 0.49910  0.30480  0.52870  Biso   1.000  C
  C24      1.0000 0.00090  0.30480  0.02870  Biso   1.000  C
  H1       1.0000 0.09860  0.65070  0.82780  Biso   1.000  H
  H2       1.0000 0.40140  0.65070  0.32780  Biso   1.000  H
  H3       1.0000 0.59860  0.34930  0.82780  Biso   1.000  H
  H4       1.0000 0.90140  0.34930  0.32780  Biso   1.000  H
  H5       1.0000 0.21900  0.17920  0.63100  Biso   1.000  H
  H6       1.0000 0.28100  0.17920  0.13100  Biso   1.000  H
  H7       1.0000 0.71900  0.82080  0.63100  Biso   1.000  H
  H8       1.0000 0.78100  0.82080  0.13100  Biso   1.000  H
  H9       1.0000 0.25080  0.01040  0.88040  Biso   1.000  H
  H10      1.0000 0.24920  0.01040  0.38040  Biso   1.000  H
  H11      1.0000 0.75080  0.98960  0.88040  Biso   1.000  H
  H12      1.0000 0.74920  0.98960  0.38040  Biso   1.000  H
  H13      1.0000 0.13600  0.57100  0.07370  Biso   1.000  H
  H14      1.0000 0.36400  0.57100  0.57370  Biso   1.000  H
  H15      1.0000 0.63600  0.42900  0.07370  Biso   1.000  H
  H16      1.0000 0.86400  0.42900  0.57370  Biso   1.000  H
  H17      1.0000 0.19850  0.45750  0.05750  Biso   1.000  H
  H18      1.0000 0.30150  0.45750  0.55750  Biso   1.000  H
  H19      1.0000 0.69850  0.54250  0.05750  Biso   1.000  H
  H20      1.0000 0.80150  0.54250  0.55750  Biso   1.000  H
  H21      1.0000 0.18370  0.82930  0.12000  Biso   1.000  H
  H22      1.0000 0.31630  0.82930  0.62000  Biso   1.000  H
  H23      1.0000 0.68370  0.17070  0.12000  Biso   1.000  H
  H24      1.0000 0.81630  0.17070  0.62000  Biso   1.000  H
  H25      1.0000 0.05380  0.14450  0.28160  Biso   1.000  H
  H26      1.0000 0.44620  0.14450  0.78160  Biso   1.000  H
  H27      1.0000 0.55380  0.85550  0.28160  Biso   1.000  H
  H28      1.0000 0.94620  0.85550  0.78160  Biso   1.000  H
  H29      1.0000 0.06680  0.74830  0.26020  Biso   1.000  H
  H30      1.0000 0.43320  0.74830  0.76020  Biso   1.000  H
  H31      1.0000 0.56680  0.25170  0.26020  Biso   1.000  H
  H32      1.0000 0.93320  0.25170  0.76020  Biso   1.000  H
  H33      1.0000 0.97740  0.04450  0.39160  Biso   1.000  H
  H34      1.0000 0.52260  0.04450  0.89160  Biso   1.000  H
  H35      1.0000 0.47740  0.95550  0.39160  Biso   1.000  H
  H36      1.0000 0.02260  0.95550  0.89160  Biso   1.000  H
  H37      1.0000 0.98250  0.67250  0.32000  Biso   1.000  H
  H38      1.0000 0.51750  0.67250  0.82000  Biso   1.000  H
  H39      1.0000 0.48250  0.32750  0.32000  Biso   1.000  H
  H40      1.0000 0.01750  0.32750  0.82000  Biso   1.000  H
