data_image0
_cell_length_a       7.3047
_cell_length_b       10.152
_cell_length_c       11.641
_cell_angle_alpha    91.98
_cell_angle_beta     105
_cell_angle_gamma    105.94

_symmetry_space_group_name_H-M    "P 1"
_symmetry_int_tables_number       1

loop_
  _symmetry_equiv_pos_as_xyz
  'x, y, z'

loop_
  _atom_site_label
  _atom_site_occupancy
  _atom_site_fract_x
  _atom_site_fract_y
  _atom_site_fract_z
  _atom_site_thermal_displace_type
  _atom_site_B_iso_or_equiv
  _atom_site_type_symbol
  Cu1      1.0000 0.97555  0.77960  0.24322  Biso   1.000  Cu
  S1       1.0000 0.98527  0.97884  0.53116  Biso   1.000  S
  S2       1.0000 0.27125  0.13395  0.19011  Biso   1.000  S
  C1       1.0000 0.91330  0.92970  0.66070  Biso   1.000  C
  N1       1.0000 0.89900  0.72530  0.38950  Biso   1.000  N
  O1       1.0000 0.94170  0.98090  0.28010  Biso   1.000  O
  N2       1.0000 0.08910  0.84730  0.11390  Biso   1.000  N
  N3       1.0000 0.28160  0.97590  0.01990  Biso   1.000  N
  O2       1.0000 0.26580  0.88870  0.36460  Biso   1.000  O
  C2       1.0000 0.91320  0.80570  0.48190  Biso   1.000  C
  N4       1.0000 0.84850  0.72960  0.56510  Biso   1.000  N
  N5       1.0000 0.40330  0.10110  0.00410  Biso   1.000  N
  N6       1.0000 0.84370  0.79850  0.66720  Biso   1.000  N
  C3       1.0000 0.40790  0.19080  0.08780  Biso   1.000  C
  C4       1.0000 0.52930  0.33640  0.10200  Biso   1.000  C
  N7       1.0000 0.77090  0.99430  0.23050  Biso   1.000  N
  N8       1.0000 0.10100  0.76570  0.01850  Biso   1.000  N
  O3       1.0000 0.26640  0.68610  0.30140  Biso   1.000  O
  N9       1.0000 0.96910  0.23260  0.94000  Biso   1.000  N
  O4       1.0000 0.64520  0.89820  0.15950  Biso   1.000  O
  C5       1.0000 0.21820  0.84330  0.96240  Biso   1.000  C
  N10      1.0000 0.82050  0.59060  0.41020  Biso   1.000  N
  C6       1.0000 0.93370  0.03380  0.75550  Biso   1.000  C
  N11      1.0000 0.35500  0.79810  0.36640  Biso   1.000  N
  C7       1.0000 0.26550  0.79520  0.85800  Biso   1.000  C
  C8       1.0000 0.87350  0.09950  0.93860  Biso   1.000  C
  H1       1.0000 0.81620  0.07430  0.00030  Biso   1.000  H
  O5       1.0000 0.73940  0.10340  0.25310  Biso   1.000  O
  C9       1.0000 0.78970  0.59360  0.51630  Biso   1.000  C
  C10      1.0000 0.35070  0.88600  0.78640  Biso   1.000  C
  H2       1.0000 0.38610  0.98060  0.80760  Biso   1.000  H
  C11      1.0000 0.20060  0.97350  0.11170  Biso   1.000  C
  C12      1.0000 0.32920  0.69400  0.65040  Biso   1.000  C
  H3       1.0000 0.35180  0.66000  0.58170  Biso   1.000  H
  C13      1.0000 0.85470  0.99750  0.85140  Biso   1.000  C
  H4       1.0000 0.79050  0.90590  0.85620  Biso   1.000  H
  C14      1.0000 0.38290  0.83490  0.68290  Biso   1.000  C
  H5       1.0000 0.44080  0.89570  0.63550  Biso   1.000  H
  C15      1.0000 0.72040  0.36690  0.09210  Biso   1.000  C
  H6       1.0000 0.76950  0.29760  0.06970  Biso   1.000  H
  C16      1.0000 0.59320  0.36300  0.72960  Biso   1.000  C
  H7       1.0000 0.57310  0.36870  0.80510  Biso   1.000  H
  C17      1.0000 0.65330  0.34250  0.50260  Biso   1.000  C
  H8       1.0000 0.67460  0.33670  0.42740  Biso   1.000  H
  C18      1.0000 0.04580  0.26710  0.85010  Biso   1.000  C
  H9       1.0000 0.11350  0.35920  0.84990  Biso   1.000  H
  C19      1.0000 0.03020  0.17190  0.75490  Biso   1.000  C
  H10      1.0000 0.08380  0.20110  0.69260  Biso   1.000  H
  C20      1.0000 0.20850  0.65320  0.82280  Biso   1.000  C
  H11      1.0000 0.14780  0.59170  0.86870  Biso   1.000  H
  C21      1.0000 0.67720  0.48180  0.68520  Biso   1.000  C
  H12      1.0000 0.71500  0.56710  0.73040  Biso   1.000  H
  C22      1.0000 0.24150  0.60410  0.72120  Biso   1.000  C
  H13      1.0000 0.20480  0.50950  0.69940  Biso   1.000  H
  C23      1.0000 0.57030  0.22350  0.54890  Biso   1.000  C
  H14      1.0000 0.53660  0.13760  0.50540  Biso   1.000  H
  C24      1.0000 0.45750  0.44300  0.13140  Biso   1.000  C
  H15      1.0000 0.32750  0.42560  0.13530  Biso   1.000  H
  C25      1.0000 0.70520  0.47190  0.56960  Biso   1.000  C
  O6       1.0000 0.52540  0.82060  0.43200  Biso   1.000  O
  C26      1.0000 0.53770  0.23450  0.66330  Biso   1.000  C
  H16      1.0000 0.47900  0.15570  0.69420  Biso   1.000  H
  C27      1.0000 0.83780  0.50350  0.11640  Biso   1.000  C
  H17      1.0000 0.96640  0.52480  0.10940  Biso   1.000  H
  C28      1.0000 0.58530  0.57530  0.15460  Biso   1.000  C
  H18      1.0000 0.53880  0.64690  0.17470  Biso   1.000  H
  N12      1.0000 0.77210  0.60520  0.14950  Biso   1.000  N
  C29      1.0000 0.14950  0.37410  0.40980  Biso   1.000  C
  H19      1.0000 0.15620  0.46110  0.44160  Biso   1.000  H
  Cl1      1.0000 0.24900  0.40380  0.32290  Biso   1.000  Cl
  Cl2      1.0000 0.03400  0.27800  0.48300  Biso   1.000  Cl
