data_image0
_cell_length_a       6.938
_cell_length_b       8.703
_cell_length_c       9.022
_cell_angle_alpha    108.25
_cell_angle_beta     99.957
_cell_angle_gamma    97.188

_symmetry_space_group_name_H-M    "P 1"
_symmetry_int_tables_number       1

loop_
  _symmetry_equiv_pos_as_xyz
  'x, y, z'

loop_
  _atom_site_label
  _atom_site_occupancy
  _atom_site_fract_x
  _atom_site_fract_y
  _atom_site_fract_z
  _atom_site_thermal_displace_type
  _atom_site_B_iso_or_equiv
  _atom_site_type_symbol
  Cu1      1.0000 0.50000  0.00000  0.00000  Biso   1.000  Cu
  Cu2      1.0000 0.00000  0.00000  0.50000  Biso   1.000  Cu
  K1       1.0000 0.36788  0.66481  0.63692  Biso   1.000  K
  K2       1.0000 0.63212  0.33519  0.36308  Biso   1.000  K
  K3       1.0000 0.25833  0.62598  0.03803  Biso   1.000  K
  K4       1.0000 0.74167  0.37402  0.96197  Biso   1.000  K
  O1       1.0000 0.23190  0.89288  0.87477  Biso   1.000  O
  O2       1.0000 0.76810  0.10712  0.12523  Biso   1.000  O
  O3       1.0000 0.91010  0.20950  0.56630  Biso   1.000  O
  O4       1.0000 0.08990  0.79050  0.43370  Biso   1.000  O
  O5       1.0000 0.11660  0.28730  0.97150  Biso   1.000  O
  O6       1.0000 0.88340  0.71270  0.02850  Biso   1.000  O
  O7       1.0000 0.40100  0.20445  0.03604  Biso   1.000  O
  O8       1.0000 0.59900  0.79555  0.96396  Biso   1.000  O
  O9       1.0000 0.40900  0.38900  0.75050  Biso   1.000  O
  O10      1.0000 0.59100  0.61100  0.24950  Biso   1.000  O
  O11      1.0000 0.95780  0.96460  0.77140  Biso   1.000  O
  O12      1.0000 0.04220  0.03540  0.22860  Biso   1.000  O
  O13      1.0000 0.03730  0.46950  0.72090  Biso   1.000  O
  O14      1.0000 0.96270  0.53050  0.27910  Biso   1.000  O
  O15      1.0000 0.26460  0.12973  0.60220  Biso   1.000  O
  O16      1.0000 0.73540  0.87027  0.39780  Biso   1.000  O
  C1       1.0000 0.12430  0.99730  0.86140  Biso   1.000  C
  C2       1.0000 0.87570  0.00270  0.13860  Biso   1.000  C
  C3       1.0000 0.21700  0.18060  0.96550  Biso   1.000  C
  C4       1.0000 0.78300  0.81940  0.03450  Biso   1.000  C
  C5       1.0000 0.26320  0.28290  0.67250  Biso   1.000  C
  C6       1.0000 0.73680  0.71710  0.32750  Biso   1.000  C
  C7       1.0000 0.05330  0.32740  0.65340  Biso   1.000  C
  C8       1.0000 0.94670  0.67260  0.34660  Biso   1.000  C
  O17      1.0000 0.42730  0.98340  0.25230  Biso   1.000  O
  O18      1.0000 0.57270  0.01660  0.74770  Biso   1.000  O
  O19      1.0000 0.75580  0.63300  0.62090  Biso   1.000  O
  O20      1.0000 0.24420  0.36700  0.37910  Biso   1.000  O
  H1       1.0000 0.31200  0.98000  0.26700  Biso   1.000  H
  H2       1.0000 0.68800  0.02000  0.73300  Biso   1.000  H
  H3       1.0000 0.82200  0.57700  0.66200  Biso   1.000  H
  H4       1.0000 0.17800  0.42300  0.33800  Biso   1.000  H
  H5       1.0000 0.81100  0.73220  0.66300  Biso   1.000  H
  H6       1.0000 0.18900  0.26780  0.33700  Biso   1.000  H
  H7       1.0000 0.49900  0.95100  0.31600  Biso   1.000  H
  H8       1.0000 0.50100  0.04900  0.68400  Biso   1.000  H
