data_image0
_cell_length_a       12.569
_cell_length_b       25.558
_cell_length_c       14.961
_cell_angle_alpha    90
_cell_angle_beta     106.512
_cell_angle_gamma    90

_symmetry_space_group_name_H-M    "P 1"
_symmetry_int_tables_number       1

loop_
  _symmetry_equiv_pos_as_xyz
  'x, y, z'

loop_
  _atom_site_label
  _atom_site_occupancy
  _atom_site_fract_x
  _atom_site_fract_y
  _atom_site_fract_z
  _atom_site_thermal_displace_type
  _atom_site_B_iso_or_equiv
  _atom_site_type_symbol
  C1       1.0000 0.39570  0.10210  0.99990  Biso   1.000  C
  C2       1.0000 0.10430  0.60210  0.50010  Biso   1.000  C
  C3       1.0000 0.60430  0.89790  0.00010  Biso   1.000  C
  C4       1.0000 0.89570  0.39790  0.49990  Biso   1.000  C
  H1       1.0000 0.40700  0.12050  0.94970  Biso   1.000  H
  H2       1.0000 0.09300  0.62050  0.55030  Biso   1.000  H
  H3       1.0000 0.59300  0.87950  0.05030  Biso   1.000  H
  H4       1.0000 0.90700  0.37950  0.44970  Biso   1.000  H
  C5       1.0000 0.46080  0.06280  0.04550  Biso   1.000  C
  C6       1.0000 0.03920  0.56280  0.45450  Biso   1.000  C
  C7       1.0000 0.53920  0.93720  0.95450  Biso   1.000  C
  C8       1.0000 0.96080  0.43720  0.54550  Biso   1.000  C
  H5       1.0000 0.52370  0.04910  0.03310  Biso   1.000  H
  H6       1.0000 0.97630  0.54910  0.46690  Biso   1.000  H
  H7       1.0000 0.47630  0.95090  0.96690  Biso   1.000  H
  H8       1.0000 0.02370  0.45090  0.53310  Biso   1.000  H
  C9       1.0000 0.41460  0.04720  0.11340  Biso   1.000  C
  C10      1.0000 0.08540  0.54720  0.38660  Biso   1.000  C
  C11      1.0000 0.58540  0.95280  0.88660  Biso   1.000  C
  C12      1.0000 0.91460  0.45280  0.61340  Biso   1.000  C
  H9       1.0000 0.44220  0.02070  0.15650  Biso   1.000  H
  H10      1.0000 0.05780  0.52070  0.34350  Biso   1.000  H
  H11      1.0000 0.55780  0.97930  0.84350  Biso   1.000  H
  H12      1.0000 0.94220  0.47930  0.65650  Biso   1.000  H
  C13      1.0000 0.04730  0.01510  0.26190  Biso   1.000  C
  C14      1.0000 0.45270  0.51510  0.23810  Biso   1.000  C
  C15      1.0000 0.95270  0.98490  0.73810  Biso   1.000  C
  C16      1.0000 0.54730  0.48490  0.76190  Biso   1.000  C
  H13      1.0000 0.08650  0.98410  0.27940  Biso   1.000  H
  H14      1.0000 0.41350  0.48410  0.22060  Biso   1.000  H
  H15      1.0000 0.91350  0.01590  0.72060  Biso   1.000  H
  H16      1.0000 0.58650  0.51590  0.77940  Biso   1.000  H
  C17      1.0000 0.94720  0.02720  0.27720  Biso   1.000  C
  C18      1.0000 0.55280  0.52720  0.22280  Biso   1.000  C
  C19      1.0000 0.05280  0.97280  0.72280  Biso   1.000  C
  C20      1.0000 0.44720  0.47280  0.77720  Biso   1.000  C
  H17      1.0000 0.90630  0.00670  0.30690  Biso   1.000  H
  H18      1.0000 0.59370  0.50670  0.19310  Biso   1.000  H
  H19      1.0000 0.09370  0.99330  0.69310  Biso   1.000  H
  H20      1.0000 0.40630  0.49330  0.80690  Biso   1.000  H
  C21      1.0000 0.92080  0.07610  0.23930  Biso   1.000  C
  C22      1.0000 0.57920  0.57610  0.26070  Biso   1.000  C
  C23      1.0000 0.07920  0.92390  0.76070  Biso   1.000  C
  C24      1.0000 0.42080  0.42390  0.73930  Biso   1.000  C
  H21      1.0000 0.85700  0.09480  0.23830  Biso   1.000  H
  H22      1.0000 0.64300  0.59480  0.26170  Biso   1.000  H
  H23      1.0000 0.14300  0.90520  0.76170  Biso   1.000  H
  H24      1.0000 0.35700  0.40520  0.73830  Biso   1.000  H
  C25      1.0000 0.97410  0.26410  0.06560  Biso   1.000  C
  C26      1.0000 0.52590  0.76410  0.43440  Biso   1.000  C
  C27      1.0000 0.02590  0.73590  0.93440  Biso   1.000  C
  C28      1.0000 0.47410  0.23590  0.56560  Biso   1.000  C
  H25      1.0000 0.92440  0.27320  0.09860  Biso   1.000  H
  H26      1.0000 0.57560  0.77320  0.40140  Biso   1.000  H
  H27      1.0000 0.07560  0.72680  0.90140  Biso   1.000  H
  H28      1.0000 0.42440  0.22680  0.59860  Biso   1.000  H
  C29      1.0000 0.99960  0.29410  0.99970  Biso   1.000  C
  C30      1.0000 0.50040  0.79410  0.50030  Biso   1.000  C
  C31      1.0000 0.00040  0.70590  0.00030  Biso   1.000  C
  C32      1.0000 0.49960  0.20590  0.49970  Biso   1.000  C
  H29      1.0000 0.97030  0.32660  0.97770  Biso   1.000  H
  H30      1.0000 0.52970  0.82660  0.52230  Biso   1.000  H
  H31      1.0000 0.02970  0.67340  0.02230  Biso   1.000  H
  H32      1.0000 0.47030  0.17340  0.47770  Biso   1.000  H
  C33      1.0000 0.07750  0.26630  0.97270  Biso   1.000  C
  C34      1.0000 0.42250  0.76630  0.52730  Biso   1.000  C
  C35      1.0000 0.92250  0.73370  0.02730  Biso   1.000  C
  C36      1.0000 0.57750  0.23370  0.47270  Biso   1.000  C
  H33      1.0000 0.11270  0.27750  0.92920  Biso   1.000  H
  H34      1.0000 0.38730  0.77750  0.57080  Biso   1.000  H
  H35      1.0000 0.88730  0.72250  0.07080  Biso   1.000  H
  H36      1.0000 0.61270  0.22250  0.42920  Biso   1.000  H
  C37      1.0000 0.37840  0.07110  0.33970  Biso   1.000  C
  C38      1.0000 0.12160  0.57110  0.16030  Biso   1.000  C
  C39      1.0000 0.62160  0.92890  0.66030  Biso   1.000  C
  C40      1.0000 0.87840  0.42890  0.83970  Biso   1.000  C
  H37      1.0000 0.37460  0.10580  0.32070  Biso   1.000  H
  H38      1.0000 0.12540  0.60580  0.17930  Biso   1.000  H
  H39      1.0000 0.62540  0.89420  0.67930  Biso   1.000  H
  H40      1.0000 0.87460  0.39420  0.82070  Biso   1.000  H
  C41      1.0000 0.45110  0.05860  0.42470  Biso   1.000  C
  C42      1.0000 0.04890  0.55860  0.07530  Biso   1.000  C
  C43      1.0000 0.54890  0.94140  0.57530  Biso   1.000  C
  C44      1.0000 0.95110  0.44140  0.92470  Biso   1.000  C
  H41      1.0000 0.49300  0.08460  0.46210  Biso   1.000  H
  H42      1.0000 0.00700  0.58460  0.03790  Biso   1.000  H
  H43      1.0000 0.50700  0.91540  0.53790  Biso   1.000  H
  H44      1.0000 0.99300  0.41540  0.96210  Biso   1.000  H
  C45      1.0000 0.46110  0.00710  0.45390  Biso   1.000  C
  C46      1.0000 0.03890  0.50710  0.04610  Biso   1.000  C
  C47      1.0000 0.53890  0.99290  0.54610  Biso   1.000  C
  C48      1.0000 0.96110  0.49290  0.95390  Biso   1.000  C
  C49      1.0000 0.39700  0.97170  0.39450  Biso   1.000  C
  C50      1.0000 0.10300  0.47170  0.10550  Biso   1.000  C
  C51      1.0000 0.60300  0.02830  0.60550  Biso   1.000  C
  C52      1.0000 0.89700  0.52830  0.89450  Biso   1.000  C
  H45      1.0000 0.40130  0.93640  0.41050  Biso   1.000  H
  H46      1.0000 0.09870  0.43640  0.08950  Biso   1.000  H
  H47      1.0000 0.59870  0.06360  0.58950  Biso   1.000  H
  H48      1.0000 0.90130  0.56360  0.91050  Biso   1.000  H
  C53      1.0000 0.32590  0.98770  0.31070  Biso   1.000  C
  C54      1.0000 0.17410  0.48770  0.18930  Biso   1.000  C
  C55      1.0000 0.67410  0.01230  0.68930  Biso   1.000  C
  C56      1.0000 0.82590  0.51230  0.81070  Biso   1.000  C
  H49      1.0000 0.28400  0.96250  0.27110  Biso   1.000  H
  H50      1.0000 0.21600  0.46250  0.22890  Biso   1.000  H
  H51      1.0000 0.71600  0.03750  0.72890  Biso   1.000  H
  H52      1.0000 0.78400  0.53750  0.77110  Biso   1.000  H
  C57      1.0000 0.18380  0.97560  0.00140  Biso   1.000  C
  C58      1.0000 0.31620  0.47560  0.49860  Biso   1.000  C
  C59      1.0000 0.81620  0.02440  0.99860  Biso   1.000  C
  C60      1.0000 0.68380  0.52440  0.50140  Biso   1.000  C
  H53      1.0000 0.11490  0.98220  0.95490  Biso   1.000  H
  H54      1.0000 0.38510  0.48220  0.54510  Biso   1.000  H
  H55      1.0000 0.88510  0.01780  0.04510  Biso   1.000  H
  H56      1.0000 0.61490  0.51780  0.45490  Biso   1.000  H
  H57      1.0000 0.20530  0.93980  0.99730  Biso   1.000  H
  H58      1.0000 0.29470  0.43980  0.50270  Biso   1.000  H
  H59      1.0000 0.79470  0.06020  0.00270  Biso   1.000  H
  H60      1.0000 0.70530  0.56020  0.49730  Biso   1.000  H
  H61      1.0000 0.24010  0.99830  0.99150  Biso   1.000  H
  H62      1.0000 0.25990  0.49830  0.50850  Biso   1.000  H
  H63      1.0000 0.75990  0.00170  0.00850  Biso   1.000  H
  H64      1.0000 0.74010  0.50170  0.49150  Biso   1.000  H
  C61      1.0000 0.53790  0.16380  0.23260  Biso   1.000  C
  C62      1.0000 0.96210  0.66380  0.26740  Biso   1.000  C
  C63      1.0000 0.46210  0.83620  0.76740  Biso   1.000  C
  C64      1.0000 0.03790  0.33620  0.73260  Biso   1.000  C
  H65      1.0000 0.46550  0.15370  0.20280  Biso   1.000  H
  H66      1.0000 0.03450  0.65370  0.29720  Biso   1.000  H
  H67      1.0000 0.53450  0.84630  0.79720  Biso   1.000  H
  H68      1.0000 0.96550  0.34630  0.70280  Biso   1.000  H
  C65      1.0000 0.61810  0.13210  0.28680  Biso   1.000  C
  C66      1.0000 0.88190  0.63210  0.21320  Biso   1.000  C
  C67      1.0000 0.38190  0.86790  0.71320  Biso   1.000  C
  C68      1.0000 0.11810  0.36790  0.78680  Biso   1.000  C
  H69      1.0000 0.61170  0.09700  0.30120  Biso   1.000  H
  H70      1.0000 0.88830  0.59700  0.19880  Biso   1.000  H
  H71      1.0000 0.38830  0.90300  0.69880  Biso   1.000  H
  H72      1.0000 0.11170  0.40300  0.80120  Biso   1.000  H
  C69      1.0000 0.70750  0.16260  0.31430  Biso   1.000  C
  C70      1.0000 0.79250  0.66260  0.18570  Biso   1.000  C
  C71      1.0000 0.29250  0.83740  0.68570  Biso   1.000  C
  C72      1.0000 0.20750  0.33740  0.81430  Biso   1.000  C
  H73      1.0000 0.77590  0.15170  0.35260  Biso   1.000  H
  H74      1.0000 0.72410  0.65170  0.14740  Biso   1.000  H
  H75      1.0000 0.22410  0.84830  0.64740  Biso   1.000  H
  H76      1.0000 0.27590  0.34830  0.85260  Biso   1.000  H
  C73      1.0000 0.98210  0.33810  0.30220  Biso   1.000  C
  C74      1.0000 0.51790  0.83810  0.19780  Biso   1.000  C
  C75      1.0000 0.01790  0.66190  0.69780  Biso   1.000  C
  C76      1.0000 0.48210  0.16190  0.80220  Biso   1.000  C
  H77      1.0000 0.03340  0.31660  0.34280  Biso   1.000  H
  H78      1.0000 0.46660  0.81660  0.15720  Biso   1.000  H
  H79      1.0000 0.96660  0.68340  0.65720  Biso   1.000  H
  H80      1.0000 0.53340  0.18340  0.84280  Biso   1.000  H
  C77      1.0000 0.00410  0.38450  0.26790  Biso   1.000  C
  C78      1.0000 0.49590  0.88450  0.23210  Biso   1.000  C
  C79      1.0000 0.99590  0.61550  0.73210  Biso   1.000  C
  C80      1.0000 0.50410  0.11550  0.76790  Biso   1.000  C
  H81      1.0000 0.07270  0.40110  0.28220  Biso   1.000  H
  H82      1.0000 0.42730  0.90110  0.21780  Biso   1.000  H
  H83      1.0000 0.92730  0.59890  0.71780  Biso   1.000  H
  H84      1.0000 0.57270  0.09890  0.78220  Biso   1.000  H
  C81      1.0000 0.90900  0.40220  0.20960  Biso   1.000  C
  C82      1.0000 0.59100  0.90220  0.29040  Biso   1.000  C
  C83      1.0000 0.09100  0.59780  0.79040  Biso   1.000  C
  C84      1.0000 0.40900  0.09780  0.70960  Biso   1.000  C
  H85      1.0000 0.90090  0.43290  0.17490  Biso   1.000  H
  H86      1.0000 0.59910  0.93290  0.32510  Biso   1.000  H
  H87      1.0000 0.09910  0.56710  0.82510  Biso   1.000  H
  H88      1.0000 0.40090  0.06710  0.67490  Biso   1.000  H
  C85      1.0000 0.44800  0.41700  0.05570  Biso   1.000  C
  C86      1.0000 0.05200  0.91700  0.44430  Biso   1.000  C
  C87      1.0000 0.55200  0.58300  0.94430  Biso   1.000  C
  C88      1.0000 0.94800  0.08300  0.55570  Biso   1.000  C
  H89      1.0000 0.47390  0.44780  0.03630  Biso   1.000  H
  H90      1.0000 0.02610  0.94780  0.46370  Biso   1.000  H
  H91      1.0000 0.52610  0.55220  0.96370  Biso   1.000  H
  H92      1.0000 0.97390  0.05220  0.53630  Biso   1.000  H
  C89      1.0000 0.33770  0.40450  0.04200  Biso   1.000  C
  C90      1.0000 0.16230  0.90450  0.45800  Biso   1.000  C
  C91      1.0000 0.66230  0.59550  0.95800  Biso   1.000  C
  C92      1.0000 0.83770  0.09550  0.54200  Biso   1.000  C
  H93      1.0000 0.27580  0.42470  0.01360  Biso   1.000  H
  H94      1.0000 0.22420  0.92470  0.48640  Biso   1.000  H
  H95      1.0000 0.72420  0.57530  0.98640  Biso   1.000  H
  H96      1.0000 0.77580  0.07530  0.51360  Biso   1.000  H
  C93      1.0000 0.34010  0.35650  0.07910  Biso   1.000  C
  C94      1.0000 0.15990  0.85650  0.42090  Biso   1.000  C
  C95      1.0000 0.65990  0.64350  0.92090  Biso   1.000  C
  C96      1.0000 0.84010  0.14350  0.57910  Biso   1.000  C
  H97      1.0000 0.27760  0.33700  0.07930  Biso   1.000  H
  H98      1.0000 0.22240  0.83700  0.42070  Biso   1.000  H
  H99      1.0000 0.72240  0.66300  0.92070  Biso   1.000  H
  H100     1.0000 0.77760  0.16300  0.57930  Biso   1.000  H
  C97      1.0000 0.02050  0.10750  0.85550  Biso   1.000  C
  C98      1.0000 0.47950  0.60750  0.64450  Biso   1.000  C
  C99      1.0000 0.97950  0.89250  0.14450  Biso   1.000  C
  C100     1.0000 0.52050  0.39250  0.35550  Biso   1.000  C
  H101     1.0000 0.98010  0.10180  0.79380  Biso   1.000  H
  H102     1.0000 0.51990  0.60180  0.70620  Biso   1.000  H
  H103     1.0000 0.01990  0.89820  0.20620  Biso   1.000  H
  H104     1.0000 0.48010  0.39820  0.29380  Biso   1.000  H
  C101     1.0000 0.95890  0.20080  0.29570  Biso   1.000  C
  C102     1.0000 0.54110  0.70080  0.20430  Biso   1.000  C
  C103     1.0000 0.04110  0.79920  0.70430  Biso   1.000  C
  C104     1.0000 0.45890  0.29920  0.79570  Biso   1.000  C
  H105     1.0000 0.02070  0.18170  0.32870  Biso   1.000  H
  H106     1.0000 0.47930  0.68170  0.17130  Biso   1.000  H
  H107     1.0000 0.97930  0.81830  0.67130  Biso   1.000  H
  H108     1.0000 0.52070  0.31830  0.82870  Biso   1.000  H
  C105     1.0000 0.69230  0.40450  0.97610  Biso   1.000  C
  C106     1.0000 0.80770  0.90450  0.52390  Biso   1.000  C
  C107     1.0000 0.30770  0.59550  0.02390  Biso   1.000  C
  C108     1.0000 0.19230  0.09550  0.47610  Biso   1.000  C
  H109     1.0000 0.69590  0.42980  0.93230  Biso   1.000  H
  H110     1.0000 0.80410  0.92980  0.56770  Biso   1.000  H
  H111     1.0000 0.30410  0.57020  0.06770  Biso   1.000  H
  H112     1.0000 0.19590  0.07020  0.43230  Biso   1.000  H
  C109     1.0000 0.36230  0.23560  0.01030  Biso   1.000  C
  C110     1.0000 0.13770  0.73560  0.48970  Biso   1.000  C
  C111     1.0000 0.63770  0.76440  0.98970  Biso   1.000  C
  C112     1.0000 0.86230  0.26440  0.51030  Biso   1.000  C
  H113     1.0000 0.40660  0.25680  0.98520  Biso   1.000  H
  H114     1.0000 0.09340  0.75680  0.51480  Biso   1.000  H
  H115     1.0000 0.59340  0.74320  0.01480  Biso   1.000  H
  H116     1.0000 0.90660  0.24320  0.48520  Biso   1.000  H
  N1       1.0000 0.31250  0.11079  0.03770  Biso   1.000  N
  N2       1.0000 0.18750  0.61079  0.46230  Biso   1.000  N
  N3       1.0000 0.68750  0.88921  0.96230  Biso   1.000  N
  N4       1.0000 0.81250  0.38921  0.53770  Biso   1.000  N
  N5       1.0000 0.32330  0.07568  0.10890  Biso   1.000  N
  N6       1.0000 0.17670  0.57568  0.39110  Biso   1.000  N
  N7       1.0000 0.67670  0.92432  0.89110  Biso   1.000  N
  N8       1.0000 0.82330  0.42432  0.60890  Biso   1.000  N
  N9       1.0000 0.07880  0.05478  0.21790  Biso   1.000  N
  N10      1.0000 0.42120  0.55478  0.28210  Biso   1.000  N
  N11      1.0000 0.92120  0.94522  0.78210  Biso   1.000  N
  N12      1.0000 0.57880  0.44522  0.71790  Biso   1.000  N
  N13      1.0000 0.00110  0.09225  0.20440  Biso   1.000  N
  N14      1.0000 0.49890  0.59225  0.29560  Biso   1.000  N
  N15      1.0000 0.99890  0.90775  0.79560  Biso   1.000  N
  N16      1.0000 0.50110  0.40775  0.70440  Biso   1.000  N
  N17      1.0000 0.03150  0.21960  0.07540  Biso   1.000  N
  N18      1.0000 0.46850  0.71960  0.42460  Biso   1.000  N
  N19      1.0000 0.96850  0.78040  0.92460  Biso   1.000  N
  N20      1.0000 0.53150  0.28040  0.57540  Biso   1.000  N
  N21      1.0000 0.09620  0.22114  0.01710  Biso   1.000  N
  N22      1.0000 0.40380  0.72114  0.48290  Biso   1.000  N
  N23      1.0000 0.90380  0.77886  0.98290  Biso   1.000  N
  N24      1.0000 0.59620  0.27886  0.51710  Biso   1.000  N
  N25      1.0000 0.31440  0.03731  0.28400  Biso   1.000  N
  N26      1.0000 0.18560  0.53731  0.21600  Biso   1.000  N
  N27      1.0000 0.68560  0.96269  0.71600  Biso   1.000  N
  N28      1.0000 0.81440  0.46269  0.78400  Biso   1.000  N
  N29      1.0000 0.57900  0.21153  0.22870  Biso   1.000  N
  N30      1.0000 0.92100  0.71153  0.27130  Biso   1.000  N
  N31      1.0000 0.42100  0.78847  0.77130  Biso   1.000  N
  N32      1.0000 0.07900  0.28847  0.72870  Biso   1.000  N
  N33      1.0000 0.68610  0.21027  0.28010  Biso   1.000  N
  N34      1.0000 0.81390  0.71027  0.21990  Biso   1.000  N
  N35      1.0000 0.31390  0.78973  0.71990  Biso   1.000  N
  N36      1.0000 0.18610  0.28973  0.78010  Biso   1.000  N
  N37      1.0000 0.87260  0.32840  0.26710  Biso   1.000  N
  N38      1.0000 0.62740  0.82840  0.23290  Biso   1.000  N
  N39      1.0000 0.12740  0.67160  0.73290  Biso   1.000  N
  N40      1.0000 0.37260  0.17160  0.76710  Biso   1.000  N
  N41      1.0000 0.82840  0.36860  0.20960  Biso   1.000  N
  N42      1.0000 0.67160  0.86860  0.29040  Biso   1.000  N
  N43      1.0000 0.17160  0.63140  0.79040  Biso   1.000  N
  N44      1.0000 0.32840  0.13140  0.70960  Biso   1.000  N
  N45      1.0000 0.51200  0.37821  0.10100  Biso   1.000  N
  N46      1.0000 0.98800  0.87821  0.39900  Biso   1.000  N
  N47      1.0000 0.48800  0.62179  0.89900  Biso   1.000  N
  N48      1.0000 0.01200  0.12179  0.60100  Biso   1.000  N
  N49      1.0000 0.44490  0.34040  0.11570  Biso   1.000  N
  N50      1.0000 0.05510  0.84040  0.38430  Biso   1.000  N
  N51      1.0000 0.55510  0.65960  0.88430  Biso   1.000  N
  N52      1.0000 0.94490  0.15960  0.61570  Biso   1.000  N
  O1       1.0000 0.11480  0.11886  0.08110  Biso   1.000  O
  O2       1.0000 0.38520  0.61886  0.41890  Biso   1.000  O
  O3       1.0000 0.88520  0.88114  0.91890  Biso   1.000  O
  O4       1.0000 0.61480  0.38114  0.58110  Biso   1.000  O
  O5       1.0000 0.10110  0.13696  0.86830  Biso   1.000  O
  O6       1.0000 0.39890  0.63696  0.63170  Biso   1.000  O
  O7       1.0000 0.89890  0.86304  0.13170  Biso   1.000  O
  O8       1.0000 0.60110  0.36304  0.36830  Biso   1.000  O
  O9       1.0000 0.98740  0.08500  0.91450  Biso   1.000  O
  O10      1.0000 0.51260  0.58500  0.58550  Biso   1.000  O
  O11      1.0000 0.01260  0.91500  0.08550  Biso   1.000  O
  O12      1.0000 0.48740  0.41500  0.41450  Biso   1.000  O
  O13      1.0000 0.93010  0.19615  0.21010  Biso   1.000  O
  O14      1.0000 0.56990  0.69615  0.28990  Biso   1.000  O
  O15      1.0000 0.06990  0.80385  0.78990  Biso   1.000  O
  O16      1.0000 0.43010  0.30385  0.71010  Biso   1.000  O
  O17      1.0000 0.91330  0.22845  0.34170  Biso   1.000  O
  O18      1.0000 0.58670  0.72845  0.15830  Biso   1.000  O
  O19      1.0000 0.08670  0.77155  0.65830  Biso   1.000  O
  O20      1.0000 0.41330  0.27155  0.84170  Biso   1.000  O
  O21      1.0000 0.69150  0.42064  0.05430  Biso   1.000  O
  O22      1.0000 0.80850  0.92064  0.44570  Biso   1.000  O
  O23      1.0000 0.30850  0.57936  0.94570  Biso   1.000  O
  O24      1.0000 0.19150  0.07936  0.55430  Biso   1.000  O
  O25      1.0000 0.68870  0.35840  0.95030  Biso   1.000  O
  O26      1.0000 0.81130  0.85840  0.54970  Biso   1.000  O
  O27      1.0000 0.31130  0.64160  0.04970  Biso   1.000  O
  O28      1.0000 0.18870  0.14160  0.45030  Biso   1.000  O
  O29      1.0000 0.38180  0.23489  0.09640  Biso   1.000  O
  O30      1.0000 0.11820  0.73489  0.40360  Biso   1.000  O
  O31      1.0000 0.61820  0.76511  0.90360  Biso   1.000  O
  O32      1.0000 0.88180  0.26511  0.59640  Biso   1.000  O
  O33      1.0000 0.28730  0.20967  0.95430  Biso   1.000  O
  O34      1.0000 0.21270  0.70967  0.54570  Biso   1.000  O
  O35      1.0000 0.71270  0.79033  0.04570  Biso   1.000  O
  O36      1.0000 0.78730  0.29033  0.45430  Biso   1.000  O
  O37      1.0000 0.64840  0.31436  0.23090  Biso   1.000  O
  O38      1.0000 0.85160  0.81436  0.26910  Biso   1.000  O
  O39      1.0000 0.35160  0.68564  0.76910  Biso   1.000  O
  O40      1.0000 0.14840  0.18564  0.73090  Biso   1.000  O
  O41      1.0000 0.17070  0.98499  0.09120  Biso   1.000  O
  O42      1.0000 0.32930  0.48499  0.40880  Biso   1.000  O
  O43      1.0000 0.82930  0.01501  0.90880  Biso   1.000  O
  O44      1.0000 0.67070  0.51501  0.59120  Biso   1.000  O
  H117     1.0000 0.14770  0.95750  0.12190  Biso   1.000  H
  H118     1.0000 0.35230  0.45750  0.37810  Biso   1.000  H
  H119     1.0000 0.85230  0.04250  0.87810  Biso   1.000  H
  H120     1.0000 0.64770  0.54250  0.62190  Biso   1.000  H
  O45      1.0000 0.20270  0.16989  0.27210  Biso   1.000  O
  O46      1.0000 0.29730  0.66989  0.22790  Biso   1.000  O
  O47      1.0000 0.79730  0.83011  0.72790  Biso   1.000  O
  O48      1.0000 0.70270  0.33011  0.77210  Biso   1.000  O
  O49      1.0000 0.63030  0.27180  0.04740  Biso   1.000  O
  O50      1.0000 0.86970  0.77180  0.45260  Biso   1.000  O
  O51      1.0000 0.36970  0.72820  0.95260  Biso   1.000  O
  O52      1.0000 0.13030  0.22820  0.54740  Biso   1.000  O
  Cu1      1.0000 0.19722  0.16378  0.01361  Biso   1.000  Cu
  Cu2      1.0000 0.30278  0.66378  0.48639  Biso   1.000  Cu
  Cu3      1.0000 0.80278  0.83622  0.98639  Biso   1.000  Cu
  Cu4      1.0000 0.69722  0.33622  0.51361  Biso   1.000  Cu
  Cu5      1.0000 0.20343  0.06484  0.16466  Biso   1.000  Cu
  Cu6      1.0000 0.29657  0.56484  0.33534  Biso   1.000  Cu
  Cu7      1.0000 0.79657  0.93516  0.83534  Biso   1.000  Cu
  Cu8      1.0000 0.70343  0.43516  0.66466  Biso   1.000  Cu
  Cu9      1.0000 0.02533  0.15756  0.14734  Biso   1.000  Cu
  Cu10     1.0000 0.47467  0.65756  0.35266  Biso   1.000  Cu
  Cu11     1.0000 0.97467  0.84244  0.85266  Biso   1.000  Cu
  Cu12     1.0000 0.52533  0.34244  0.64734  Biso   1.000  Cu
  Cu13     1.0000 0.51370  0.27467  0.16651  Biso   1.000  Cu
  Cu14     1.0000 0.98630  0.77467  0.33349  Biso   1.000  Cu
  Cu15     1.0000 0.48630  0.72533  0.83349  Biso   1.000  Cu
  Cu16     1.0000 0.01370  0.22533  0.66651  Biso   1.000  Cu
  Cu17     1.0000 0.78074  0.27109  0.28478  Biso   1.000  Cu
  Cu18     1.0000 0.71926  0.77109  0.21522  Biso   1.000  Cu
  Cu19     1.0000 0.21926  0.72891  0.71522  Biso   1.000  Cu
  Cu20     1.0000 0.28074  0.22891  0.78478  Biso   1.000  Cu
  Cu21     1.0000 0.67122  0.36960  0.14582  Biso   1.000  Cu
  Cu22     1.0000 0.82878  0.86960  0.35418  Biso   1.000  Cu
  Cu23     1.0000 0.32878  0.63040  0.85418  Biso   1.000  Cu
  Cu24     1.0000 0.17122  0.13040  0.64582  Biso   1.000  Cu
  O53      1.0000 0.24440  0.21200  0.27480  Biso   1.000  O
  O54      1.0000 0.25560  0.71200  0.22520  Biso   1.000  O
  O55      1.0000 0.75560  0.78800  0.72520  Biso   1.000  O
  O56      1.0000 0.74440  0.28800  0.77480  Biso   1.000  O
  O57      1.0000 0.66970  0.23400  0.03600  Biso   1.000  O
  O58      1.0000 0.83030  0.73400  0.46400  Biso   1.000  O
  O59      1.0000 0.33030  0.76600  0.96400  Biso   1.000  O
  O60      1.0000 0.16970  0.26600  0.53600  Biso   1.000  O
  H121     1.0000 0.07200  0.09780  0.03900  Biso   1.000  H
  H122     1.0000 0.42800  0.59780  0.46100  Biso   1.000  H
  H123     1.0000 0.92800  0.90220  0.96100  Biso   1.000  H
  H124     1.0000 0.57200  0.40220  0.53900  Biso   1.000  H
  H125     1.0000 0.63900  0.32700  0.28200  Biso   1.000  H
  H126     1.0000 0.86100  0.82700  0.21800  Biso   1.000  H
  H127     1.0000 0.36100  0.67300  0.71800  Biso   1.000  H
  H128     1.0000 0.13900  0.17300  0.78200  Biso   1.000  H
  H129     1.0000 0.19090  0.16280  0.33320  Biso   1.000  H
  H130     1.0000 0.30910  0.66280  0.16680  Biso   1.000  H
  H131     1.0000 0.80910  0.83720  0.66680  Biso   1.000  H
  H132     1.0000 0.69090  0.33720  0.83320  Biso   1.000  H
  H133     1.0000 0.22370  0.20700  0.27590  Biso   1.000  H
  H134     1.0000 0.27630  0.70700  0.22410  Biso   1.000  H
  H135     1.0000 0.77630  0.79300  0.72410  Biso   1.000  H
  H136     1.0000 0.72370  0.29300  0.77590  Biso   1.000  H
  H137     1.0000 0.63000  0.30650  0.01910  Biso   1.000  H
  H138     1.0000 0.87000  0.80650  0.48090  Biso   1.000  H
  H139     1.0000 0.37000  0.69350  0.98090  Biso   1.000  H
  H140     1.0000 0.13000  0.19350  0.51910  Biso   1.000  H
  H141     1.0000 0.58960  0.25210  0.99180  Biso   1.000  H
  H142     1.0000 0.91040  0.75210  0.50820  Biso   1.000  H
  H143     1.0000 0.41040  0.74790  0.00820  Biso   1.000  H
  H144     1.0000 0.08960  0.24790  0.49180  Biso   1.000  H
  H145     1.0000 0.29600  0.22460  0.32040  Biso   1.000  H
  H146     1.0000 0.20400  0.72460  0.17960  Biso   1.000  H
  H147     1.0000 0.70400  0.77540  0.67960  Biso   1.000  H
  H148     1.0000 0.79600  0.27540  0.82040  Biso   1.000  H
  H149     1.0000 0.20860  0.23880  0.24590  Biso   1.000  H
  H150     1.0000 0.29140  0.73880  0.25410  Biso   1.000  H
  H151     1.0000 0.79140  0.76120  0.75410  Biso   1.000  H
  H152     1.0000 0.70860  0.26120  0.74590  Biso   1.000  H
  H153     1.0000 0.68010  0.22410  0.98450  Biso   1.000  H
  H154     1.0000 0.81990  0.72410  0.51550  Biso   1.000  H
  H155     1.0000 0.31990  0.77590  0.01550  Biso   1.000  H
  H156     1.0000 0.18010  0.27590  0.48450  Biso   1.000  H
  H157     1.0000 0.69910  0.20970  0.07610  Biso   1.000  H
  H158     1.0000 0.80090  0.70970  0.42390  Biso   1.000  H
  H159     1.0000 0.30090  0.79030  0.92390  Biso   1.000  H
  H160     1.0000 0.19910  0.29030  0.57610  Biso   1.000  H
