data_image0
_cell_length_a       12.4917
_cell_length_b       25.8228
_cell_length_c       14.946
_cell_angle_alpha    90
_cell_angle_beta     106.085
_cell_angle_gamma    90

_symmetry_space_group_name_H-M    "P 1"
_symmetry_int_tables_number       1

loop_
  _symmetry_equiv_pos_as_xyz
  'x, y, z'

loop_
  _atom_site_label
  _atom_site_occupancy
  _atom_site_fract_x
  _atom_site_fract_y
  _atom_site_fract_z
  _atom_site_thermal_displace_type
  _atom_site_B_iso_or_equiv
  _atom_site_type_symbol
  Cu1      1.0000 0.68972  0.16403  0.51630  Biso   1.000  Cu
  Cu2      1.0000 0.81028  0.66403  0.98370  Biso   1.000  Cu
  Cu3      1.0000 0.31028  0.83597  0.48370  Biso   1.000  Cu
  Cu4      1.0000 0.18972  0.33597  0.01630  Biso   1.000  Cu
  Cu5      1.0000 0.70181  0.06547  0.66748  Biso   1.000  Cu
  Cu6      1.0000 0.79819  0.56547  0.83252  Biso   1.000  Cu
  Cu7      1.0000 0.29819  0.93453  0.33252  Biso   1.000  Cu
  Cu8      1.0000 0.20181  0.43453  0.16748  Biso   1.000  Cu
  Cu9      1.0000 0.51351  0.15412  0.64768  Biso   1.000  Cu
  Cu10     1.0000 0.98649  0.65412  0.85232  Biso   1.000  Cu
  Cu11     1.0000 0.48649  0.84588  0.35232  Biso   1.000  Cu
  Cu12     1.0000 0.01351  0.34588  0.14768  Biso   1.000  Cu
  Cu13     1.0000 0.26779  0.26994  0.78533  Biso   1.000  Cu
  Cu14     1.0000 0.23221  0.76994  0.71467  Biso   1.000  Cu
  Cu15     1.0000 0.73221  0.73006  0.21467  Biso   1.000  Cu
  Cu16     1.0000 0.76779  0.23006  0.28533  Biso   1.000  Cu
  Cu17     1.0000 0.15891  0.36648  0.64413  Biso   1.000  Cu
  Cu18     1.0000 0.34109  0.86648  0.85587  Biso   1.000  Cu
  Cu19     1.0000 0.84109  0.63352  0.35587  Biso   1.000  Cu
  Cu20     1.0000 0.65891  0.13352  0.14413  Biso   1.000  Cu
  Cu21     1.0000 0.99657  0.27506  0.67245  Biso   1.000  Cu
  Cu22     1.0000 0.50343  0.77506  0.82755  Biso   1.000  Cu
  Cu23     1.0000 0.00343  0.72494  0.32755  Biso   1.000  Cu
  Cu24     1.0000 0.49657  0.22494  0.17245  Biso   1.000  Cu
  O1       1.0000 0.60840  0.11765  0.58200  Biso   1.000  O
  O2       1.0000 0.89160  0.61765  0.91800  Biso   1.000  O
  O3       1.0000 0.39160  0.88235  0.41800  Biso   1.000  O
  O4       1.0000 0.10840  0.38235  0.08200  Biso   1.000  O
  O5       1.0000 0.13540  0.31348  0.73338  Biso   1.000  O
  O6       1.0000 0.36460  0.81348  0.76662  Biso   1.000  O
  O7       1.0000 0.86460  0.68652  0.26662  Biso   1.000  O
  O8       1.0000 0.63540  0.18652  0.23338  Biso   1.000  O
  N1       1.0000 0.58310  0.21897  0.51820  Biso   1.000  N
  N2       1.0000 0.91690  0.71897  0.98180  Biso   1.000  N
  N3       1.0000 0.41690  0.78103  0.48180  Biso   1.000  N
  N4       1.0000 0.08310  0.28103  0.01820  Biso   1.000  N
  N5       1.0000 0.51330  0.21540  0.57290  Biso   1.000  N
  N6       1.0000 0.98670  0.71540  0.92710  Biso   1.000  N
  N7       1.0000 0.48670  0.78460  0.42710  Biso   1.000  N
  N8       1.0000 0.01330  0.28460  0.07290  Biso   1.000  N
  N9       1.0000 0.49650  0.08954  0.70930  Biso   1.000  N
  N10      1.0000 0.00350  0.58954  0.79070  Biso   1.000  N
  N11      1.0000 0.50350  0.91046  0.29070  Biso   1.000  N
  N12      1.0000 0.99650  0.41046  0.20930  Biso   1.000  N
  N13      1.0000 0.57840  0.05387  0.72280  Biso   1.000  N
  N14      1.0000 0.92160  0.55387  0.77720  Biso   1.000  N
  N15      1.0000 0.42160  0.94613  0.27720  Biso   1.000  N
  N16      1.0000 0.07840  0.44613  0.22280  Biso   1.000  N
  N17      1.0000 0.81980  0.07654  0.60680  Biso   1.000  N
  N18      1.0000 0.68020  0.57654  0.89320  Biso   1.000  N
  N19      1.0000 0.18020  0.92346  0.39320  Biso   1.000  N
  N20      1.0000 0.31980  0.42346  0.10680  Biso   1.000  N
  N21      1.0000 0.80800  0.11269  0.53900  Biso   1.000  N
  N22      1.0000 0.69200  0.61269  0.96100  Biso   1.000  N
  N23      1.0000 0.19200  0.88731  0.46100  Biso   1.000  N
  N24      1.0000 0.30800  0.38731  0.03900  Biso   1.000  N
  N25      1.0000 0.99910  0.37632  0.60010  Biso   1.000  N
  N26      1.0000 0.50090  0.87632  0.89990  Biso   1.000  N
  N27      1.0000 0.00090  0.62368  0.39990  Biso   1.000  N
  N28      1.0000 0.49910  0.12368  0.10010  Biso   1.000  N
  N29      1.0000 0.93000  0.34033  0.62010  Biso   1.000  N
  N30      1.0000 0.57000  0.84033  0.87990  Biso   1.000  N
  N31      1.0000 0.07000  0.65967  0.37990  Biso   1.000  N
  N32      1.0000 0.43000  0.15967  0.12010  Biso   1.000  N
  N33      1.0000 0.17200  0.21004  0.78110  Biso   1.000  N
  N34      1.0000 0.32800  0.71004  0.71890  Biso   1.000  N
  N35      1.0000 0.82800  0.78996  0.21890  Biso   1.000  N
  N36      1.0000 0.67200  0.28996  0.28110  Biso   1.000  N
  N37      1.0000 0.06350  0.21194  0.73170  Biso   1.000  N
  N38      1.0000 0.43650  0.71194  0.76830  Biso   1.000  N
  N39      1.0000 0.93650  0.78806  0.26830  Biso   1.000  N
  N40      1.0000 0.56350  0.28806  0.23170  Biso   1.000  N
  N41      1.0000 0.31580  0.36564  0.70720  Biso   1.000  N
  N42      1.0000 0.18420  0.86564  0.79280  Biso   1.000  N
  N43      1.0000 0.68420  0.63436  0.29280  Biso   1.000  N
  N44      1.0000 0.81580  0.13436  0.20720  Biso   1.000  N
  N45      1.0000 0.36110  0.32628  0.76610  Biso   1.000  N
  N46      1.0000 0.13890  0.82628  0.73390  Biso   1.000  N
  N47      1.0000 0.63890  0.67372  0.23390  Biso   1.000  N
  N48      1.0000 0.86110  0.17372  0.26610  Biso   1.000  N
  C1       1.0000 0.41940  0.07240  0.74940  Biso   1.000  C
  C2       1.0000 0.08060  0.57240  0.75060  Biso   1.000  C
  C3       1.0000 0.58060  0.92760  0.25060  Biso   1.000  C
  C4       1.0000 0.91940  0.42760  0.24940  Biso   1.000  C
  H1       1.0000 0.35480  0.09010  0.75050  Biso   1.000  H
  H2       1.0000 0.14520  0.59010  0.74950  Biso   1.000  H
  H3       1.0000 0.64520  0.90990  0.24950  Biso   1.000  H
  H4       1.0000 0.85480  0.40990  0.25050  Biso   1.000  H
  C5       1.0000 0.45100  0.02470  0.78870  Biso   1.000  C
  C6       1.0000 0.04900  0.52470  0.71130  Biso   1.000  C
  C7       1.0000 0.54900  0.97530  0.21130  Biso   1.000  C
  C8       1.0000 0.95100  0.47530  0.28870  Biso   1.000  C
  H5       1.0000 0.41280  0.00370  0.82000  Biso   1.000  H
  H6       1.0000 0.08720  0.50370  0.68000  Biso   1.000  H
  H7       1.0000 0.58720  0.99630  0.18000  Biso   1.000  H
  H8       1.0000 0.91280  0.49630  0.32000  Biso   1.000  H
  C9       1.0000 0.55150  0.01501  0.77150  Biso   1.000  C
  C10      1.0000 0.94850  0.51501  0.72850  Biso   1.000  C
  C11      1.0000 0.44850  0.98499  0.22850  Biso   1.000  C
  C12      1.0000 0.05150  0.48499  0.27150  Biso   1.000  C
  H9       1.0000 0.59460  0.98560  0.79100  Biso   1.000  H
  H10      1.0000 0.90540  0.48560  0.70900  Biso   1.000  H
  H11      1.0000 0.40540  0.01440  0.20900  Biso   1.000  H
  H12      1.0000 0.09460  0.51440  0.29100  Biso   1.000  H
  C13      1.0000 0.89100  0.10580  0.49940  Biso   1.000  C
  C14      1.0000 0.60900  0.60580  0.00060  Biso   1.000  C
  C15      1.0000 0.10900  0.89420  0.50060  Biso   1.000  C
  C16      1.0000 0.39100  0.39420  0.99940  Biso   1.000  C
  H13      1.0000 0.90200  0.12550  0.45060  Biso   1.000  H
  H14      1.0000 0.59800  0.62550  0.04940  Biso   1.000  H
  H15      1.0000 0.09800  0.87450  0.54940  Biso   1.000  H
  H16      1.0000 0.40200  0.37450  0.95060  Biso   1.000  H
  C17      1.0000 0.95750  0.06530  0.54110  Biso   1.000  C
  C18      1.0000 0.54250  0.56530  0.95890  Biso   1.000  C
  C19      1.0000 0.04250  0.93470  0.45890  Biso   1.000  C
  C20      1.0000 0.45750  0.43470  0.04110  Biso   1.000  C
  H17      1.0000 0.02060  0.05250  0.52720  Biso   1.000  H
  H18      1.0000 0.47940  0.55250  0.97280  Biso   1.000  H
  H19      1.0000 0.97940  0.94750  0.47280  Biso   1.000  H
  H20      1.0000 0.52060  0.44750  0.02720  Biso   1.000  H
  C21      1.0000 0.90920  0.04777  0.60850  Biso   1.000  C
  C22      1.0000 0.59080  0.54777  0.89150  Biso   1.000  C
  C23      1.0000 0.09080  0.95223  0.39150  Biso   1.000  C
  C24      1.0000 0.40920  0.45223  0.10850  Biso   1.000  C
  H21      1.0000 0.93510  0.02020  0.64870  Biso   1.000  H
  H22      1.0000 0.56490  0.52020  0.85130  Biso   1.000  H
  H23      1.0000 0.06490  0.97980  0.35130  Biso   1.000  H
  H24      1.0000 0.43510  0.47980  0.14870  Biso   1.000  H
  C25      1.0000 0.45220  0.25850  0.56160  Biso   1.000  C
  C26      1.0000 0.04780  0.75850  0.93840  Biso   1.000  C
  C27      1.0000 0.54780  0.74150  0.43840  Biso   1.000  C
  C28      1.0000 0.95220  0.24150  0.06160  Biso   1.000  C
  H25      1.0000 0.39810  0.26570  0.59180  Biso   1.000  H
  H26      1.0000 0.10190  0.76570  0.90820  Biso   1.000  H
  H27      1.0000 0.60190  0.73430  0.40820  Biso   1.000  H
  H28      1.0000 0.89810  0.23430  0.09180  Biso   1.000  H
  C29      1.0000 0.48100  0.29040  0.49890  Biso   1.000  C
  C30      1.0000 0.01900  0.79040  0.00110  Biso   1.000  C
  C31      1.0000 0.51900  0.70960  0.50110  Biso   1.000  C
  C32      1.0000 0.98100  0.20960  0.99890  Biso   1.000  C
  H29      1.0000 0.45160  0.32280  0.47830  Biso   1.000  H
  H30      1.0000 0.04840  0.82280  0.02170  Biso   1.000  H
  H31      1.0000 0.54840  0.67720  0.52170  Biso   1.000  H
  H32      1.0000 0.95160  0.17720  0.97830  Biso   1.000  H
  C33      1.0000 0.56280  0.26396  0.47360  Biso   1.000  C
  C34      1.0000 0.93720  0.76396  0.02640  Biso   1.000  C
  C35      1.0000 0.43720  0.73604  0.52640  Biso   1.000  C
  C36      1.0000 0.06280  0.23604  0.97360  Biso   1.000  C
  H33      1.0000 0.59920  0.27580  0.43110  Biso   1.000  H
  H34      1.0000 0.90080  0.77580  0.06890  Biso   1.000  H
  H35      1.0000 0.40080  0.72420  0.56890  Biso   1.000  H
  H36      1.0000 0.09920  0.22420  0.93110  Biso   1.000  H
  C37      1.0000 0.02130  0.16520  0.73480  Biso   1.000  C
  C38      1.0000 0.47870  0.66520  0.76520  Biso   1.000  C
  C39      1.0000 0.97870  0.83480  0.26520  Biso   1.000  C
  C40      1.0000 0.52130  0.33480  0.23480  Biso   1.000  C
  H37      1.0000 0.94810  0.15580  0.70560  Biso   1.000  H
  H38      1.0000 0.55190  0.65580  0.79440  Biso   1.000  H
  H39      1.0000 0.05190  0.84420  0.29440  Biso   1.000  H
  H40      1.0000 0.44810  0.34420  0.20560  Biso   1.000  H
  C41      1.0000 0.10060  0.13250  0.78700  Biso   1.000  C
  C42      1.0000 0.39940  0.63250  0.71300  Biso   1.000  C
  C43      1.0000 0.89940  0.86750  0.21300  Biso   1.000  C
  C44      1.0000 0.60060  0.36750  0.28700  Biso   1.000  C
  H41      1.0000 0.09260  0.09780  0.80050  Biso   1.000  H
  H42      1.0000 0.40740  0.59780  0.69950  Biso   1.000  H
  H43      1.0000 0.90740  0.90220  0.19950  Biso   1.000  H
  H44      1.0000 0.59260  0.40220  0.30050  Biso   1.000  H
  C45      1.0000 0.19410  0.16250  0.81490  Biso   1.000  C
  C46      1.0000 0.30590  0.66250  0.68510  Biso   1.000  C
  C47      1.0000 0.80590  0.83750  0.18510  Biso   1.000  C
  C48      1.0000 0.69410  0.33750  0.31490  Biso   1.000  C
  H45      1.0000 0.26290  0.15130  0.85190  Biso   1.000  H
  H46      1.0000 0.23710  0.65130  0.64810  Biso   1.000  H
  H47      1.0000 0.73710  0.84870  0.14810  Biso   1.000  H
  H48      1.0000 0.76290  0.34870  0.35190  Biso   1.000  H
  C49      1.0000 0.47090  0.33640  0.80180  Biso   1.000  C
  C50      1.0000 0.02910  0.83640  0.69820  Biso   1.000  C
  C51      1.0000 0.52910  0.66360  0.19820  Biso   1.000  C
  C52      1.0000 0.97090  0.16360  0.30180  Biso   1.000  C
  H49      1.0000 0.52140  0.31570  0.84430  Biso   1.000  H
  H50      1.0000 0.97860  0.81570  0.65570  Biso   1.000  H
  H51      1.0000 0.47860  0.68430  0.15570  Biso   1.000  H
  H52      1.0000 0.02140  0.18430  0.34430  Biso   1.000  H
  C53      1.0000 0.49570  0.38190  0.76550  Biso   1.000  C
  C54      1.0000 0.00430  0.88190  0.73450  Biso   1.000  C
  C55      1.0000 0.50430  0.61810  0.23450  Biso   1.000  C
  C56      1.0000 0.99570  0.11810  0.26550  Biso   1.000  C
  H53      1.0000 0.56470  0.39810  0.77870  Biso   1.000  H
  H54      1.0000 0.93530  0.89810  0.72130  Biso   1.000  H
  H55      1.0000 0.43530  0.60190  0.22130  Biso   1.000  H
  H56      1.0000 0.06470  0.10190  0.27870  Biso   1.000  H
  C57      1.0000 0.39860  0.39830  0.70610  Biso   1.000  C
  C58      1.0000 0.10140  0.89830  0.79390  Biso   1.000  C
  C59      1.0000 0.60140  0.60170  0.29390  Biso   1.000  C
  C60      1.0000 0.89860  0.10170  0.20610  Biso   1.000  C
  H57      1.0000 0.39070  0.42810  0.66980  Biso   1.000  H
  H58      1.0000 0.10930  0.92810  0.83020  Biso   1.000  H
  H59      1.0000 0.60930  0.57190  0.33020  Biso   1.000  H
  H60      1.0000 0.89070  0.07190  0.16980  Biso   1.000  H
  C61      1.0000 0.82420  0.35590  0.58350  Biso   1.000  C
  C62      1.0000 0.67580  0.85590  0.91650  Biso   1.000  C
  C63      1.0000 0.17580  0.64410  0.41650  Biso   1.000  C
  C64      1.0000 0.32420  0.14410  0.08350  Biso   1.000  C
  H61      1.0000 0.76100  0.33760  0.58630  Biso   1.000  H
  H62      1.0000 0.73900  0.83760  0.91370  Biso   1.000  H
  H63      1.0000 0.23900  0.66240  0.41370  Biso   1.000  H
  H64      1.0000 0.26100  0.16240  0.08630  Biso   1.000  H
  C65      1.0000 0.82460  0.40310  0.54120  Biso   1.000  C
  C66      1.0000 0.67540  0.90310  0.95880  Biso   1.000  C
  C67      1.0000 0.17540  0.59690  0.45880  Biso   1.000  C
  C68      1.0000 0.32460  0.09690  0.04120  Biso   1.000  C
  H65      1.0000 0.76320  0.42320  0.51180  Biso   1.000  H
  H66      1.0000 0.73680  0.92320  0.98820  Biso   1.000  H
  H67      1.0000 0.23680  0.57680  0.48820  Biso   1.000  H
  H68      1.0000 0.26320  0.07680  0.01180  Biso   1.000  H
  C69      1.0000 0.93530  0.41430  0.55150  Biso   1.000  C
  C70      1.0000 0.56470  0.91430  0.94850  Biso   1.000  C
  C71      1.0000 0.06470  0.58570  0.44850  Biso   1.000  C
  C72      1.0000 0.43530  0.08570  0.05150  Biso   1.000  C
  H69      1.0000 0.96170  0.44360  0.52850  Biso   1.000  H
  H70      1.0000 0.53830  0.94360  0.97150  Biso   1.000  H
  H71      1.0000 0.03830  0.55640  0.47150  Biso   1.000  H
  H72      1.0000 0.46170  0.05640  0.02850  Biso   1.000  H
  N49      1.0000 0.81580  0.03811  0.78550  Biso   1.000  N
  N50      1.0000 0.68420  0.53811  0.71450  Biso   1.000  N
  N51      1.0000 0.18420  0.96189  0.21450  Biso   1.000  N
  N52      1.0000 0.31580  0.46189  0.28550  Biso   1.000  N
  C73      1.0000 0.83270  0.98820  0.80800  Biso   1.000  C
  C74      1.0000 0.66730  0.48820  0.69200  Biso   1.000  C
  C75      1.0000 0.16730  0.01180  0.19200  Biso   1.000  C
  C76      1.0000 0.33270  0.51180  0.30800  Biso   1.000  C
  H73      1.0000 0.79500  0.96340  0.76580  Biso   1.000  H
  H74      1.0000 0.70500  0.46340  0.73420  Biso   1.000  H
  H75      1.0000 0.20500  0.03660  0.23420  Biso   1.000  H
  H76      1.0000 0.29500  0.53660  0.26580  Biso   1.000  H
  C77      1.0000 0.90300  0.97179  0.89040  Biso   1.000  C
  C78      1.0000 0.59700  0.47179  0.60960  Biso   1.000  C
  C79      1.0000 0.09700  0.02821  0.10960  Biso   1.000  C
  C80      1.0000 0.40300  0.52821  0.39040  Biso   1.000  C
  H77      1.0000 0.91190  0.93660  0.90330  Biso   1.000  H
  H78      1.0000 0.58810  0.43660  0.59670  Biso   1.000  H
  H79      1.0000 0.08810  0.06340  0.09670  Biso   1.000  H
  H80      1.0000 0.41190  0.56340  0.40330  Biso   1.000  H
  C81      1.0000 0.96110  0.00765  0.95490  Biso   1.000  C
  C82      1.0000 0.53890  0.50765  0.54510  Biso   1.000  C
  C83      1.0000 0.03890  0.99235  0.04510  Biso   1.000  C
  C84      1.0000 0.46110  0.49235  0.45490  Biso   1.000  C
  C85      1.0000 0.94570  0.05930  0.92960  Biso   1.000  C
  C86      1.0000 0.55430  0.55930  0.57040  Biso   1.000  C
  C87      1.0000 0.05430  0.94070  0.07040  Biso   1.000  C
  C88      1.0000 0.44570  0.44070  0.42960  Biso   1.000  C
  H81      1.0000 0.98410  0.08500  0.96930  Biso   1.000  H
  H82      1.0000 0.51590  0.58500  0.53070  Biso   1.000  H
  H83      1.0000 0.01590  0.91500  0.03070  Biso   1.000  H
  H84      1.0000 0.48410  0.41500  0.46930  Biso   1.000  H
  C89      1.0000 0.87240  0.07220  0.84480  Biso   1.000  C
  C90      1.0000 0.62760  0.57220  0.65520  Biso   1.000  C
  C91      1.0000 0.12760  0.92780  0.15520  Biso   1.000  C
  C92      1.0000 0.37240  0.42780  0.34480  Biso   1.000  C
  H85      1.0000 0.86290  0.10710  0.82900  Biso   1.000  H
  H86      1.0000 0.63710  0.60710  0.67100  Biso   1.000  H
  H87      1.0000 0.13710  0.89290  0.17100  Biso   1.000  H
  H88      1.0000 0.36290  0.39290  0.32900  Biso   1.000  H
  O9       1.0000 0.77640  0.21108  0.45449  Biso   1.000  O
  O10      1.0000 0.72360  0.71108  0.04551  Biso   1.000  O
  O11      1.0000 0.22360  0.78892  0.54551  Biso   1.000  O
  O12      1.0000 0.27640  0.28892  0.95449  Biso   1.000  O
  O13      1.0000 0.86590  0.23509  0.59740  Biso   1.000  O
  O14      1.0000 0.63410  0.73509  0.90260  Biso   1.000  O
  O15      1.0000 0.13410  0.76491  0.40260  Biso   1.000  O
  O16      1.0000 0.36590  0.26491  0.09740  Biso   1.000  O
  C93      1.0000 0.84960  0.23678  0.51150  Biso   1.000  C
  C94      1.0000 0.65040  0.73678  0.98850  Biso   1.000  C
  C95      1.0000 0.15040  0.76322  0.48850  Biso   1.000  C
  C96      1.0000 0.34960  0.26322  0.01150  Biso   1.000  C
  H89      1.0000 0.89480  0.25850  0.48810  Biso   1.000  H
  H90      1.0000 0.60520  0.75850  0.01190  Biso   1.000  H
  H91      1.0000 0.10520  0.74150  0.51190  Biso   1.000  H
  H92      1.0000 0.39480  0.24150  0.98810  Biso   1.000  H
  O17      1.0000 0.41330  0.19100  0.71000  Biso   1.000  O
  O18      1.0000 0.08670  0.69100  0.79000  Biso   1.000  O
  O19      1.0000 0.58670  0.80900  0.29000  Biso   1.000  O
  O20      1.0000 0.91330  0.30900  0.21000  Biso   1.000  O
  O21      1.0000 0.40130  0.22753  0.84010  Biso   1.000  O
  O22      1.0000 0.09870  0.72753  0.65990  Biso   1.000  O
  O23      1.0000 0.59870  0.77247  0.15990  Biso   1.000  O
  O24      1.0000 0.90130  0.27247  0.34010  Biso   1.000  O
  C97      1.0000 0.44630  0.19870  0.79480  Biso   1.000  C
  C98      1.0000 0.05370  0.69870  0.70520  Biso   1.000  C
  C99      1.0000 0.55370  0.80130  0.20520  Biso   1.000  C
  C100     1.0000 0.94630  0.30130  0.29480  Biso   1.000  C
  H93      1.0000 0.51040  0.18130  0.82760  Biso   1.000  H
  H94      1.0000 0.98960  0.68130  0.67240  Biso   1.000  H
  H95      1.0000 0.48960  0.81870  0.17240  Biso   1.000  H
  H96      1.0000 0.01040  0.31870  0.32760  Biso   1.000  H
  O25      1.0000 0.17980  0.41726  0.55330  Biso   1.000  O
  O26      1.0000 0.32020  0.91726  0.94670  Biso   1.000  O
  O27      1.0000 0.82020  0.58274  0.44670  Biso   1.000  O
  O28      1.0000 0.67980  0.08274  0.05330  Biso   1.000  O
  O29      1.0000 0.18440  0.35770  0.44880  Biso   1.000  O
  O30      1.0000 0.31560  0.85770  0.05120  Biso   1.000  O
  O31      1.0000 0.81560  0.64230  0.55120  Biso   1.000  O
  O32      1.0000 0.68440  0.14230  0.94880  Biso   1.000  O
  C101     1.0000 0.18460  0.40180  0.47490  Biso   1.000  C
  C102     1.0000 0.31540  0.90180  0.02510  Biso   1.000  C
  C103     1.0000 0.81540  0.59820  0.52510  Biso   1.000  C
  C104     1.0000 0.68460  0.09820  0.97490  Biso   1.000  C
  H97      1.0000 0.18880  0.42740  0.43210  Biso   1.000  H
  H98      1.0000 0.31120  0.92740  0.06790  Biso   1.000  H
  H99      1.0000 0.81120  0.57260  0.56790  Biso   1.000  H
  H100     1.0000 0.68880  0.07260  0.93210  Biso   1.000  H
  O33      1.0000 0.59560  0.13352  0.37040  Biso   1.000  O
  O34      1.0000 0.90440  0.63352  0.12960  Biso   1.000  O
  O35      1.0000 0.40440  0.86648  0.62960  Biso   1.000  O
  O36      1.0000 0.09560  0.36648  0.87040  Biso   1.000  O
  O37      1.0000 0.49600  0.07780  0.41880  Biso   1.000  O
  O38      1.0000 0.00400  0.57780  0.08120  Biso   1.000  O
  O39      1.0000 0.50400  0.92220  0.58120  Biso   1.000  O
  O40      1.0000 0.99600  0.42220  0.91880  Biso   1.000  O
  C105     1.0000 0.52820  0.10290  0.35810  Biso   1.000  C
  C106     1.0000 0.97180  0.60290  0.14190  Biso   1.000  C
  C107     1.0000 0.47180  0.89710  0.64190  Biso   1.000  C
  C108     1.0000 0.02820  0.39710  0.85810  Biso   1.000  C
  H101     1.0000 0.49230  0.09520  0.29630  Biso   1.000  H
  H102     1.0000 0.00770  0.59520  0.20370  Biso   1.000  H
  H103     1.0000 0.50770  0.90480  0.70370  Biso   1.000  H
  H104     1.0000 0.99230  0.40480  0.79630  Biso   1.000  H
  O41      1.0000 0.69720  0.16881  0.76700  Biso   1.000  O
  O42      1.0000 0.80280  0.66881  0.73300  Biso   1.000  O
  O43      1.0000 0.30280  0.83119  0.23300  Biso   1.000  O
  O44      1.0000 0.19720  0.33119  0.26700  Biso   1.000  O
  O45      1.0000 0.66900  0.98710  0.58980  Biso   1.000  O
  O46      1.0000 0.83100  0.48710  0.91020  Biso   1.000  O
  O47      1.0000 0.33100  0.01290  0.41020  Biso   1.000  O
  O48      1.0000 0.16900  0.51290  0.08980  Biso   1.000  O
  O49      1.0000 0.12330  0.27500  0.54850  Biso   1.000  O
  O50      1.0000 0.37670  0.77500  0.95150  Biso   1.000  O
  O51      1.0000 0.87670  0.72500  0.45150  Biso   1.000  O
  O52      1.0000 0.62330  0.22500  0.04850  Biso   1.000  O
  O53      1.0000 0.19240  0.16870  0.57290  Biso   1.000  O
  O54      1.0000 0.30760  0.66870  0.92710  Biso   1.000  O
  O55      1.0000 0.80760  0.83130  0.42710  Biso   1.000  O
  O56      1.0000 0.69240  0.33130  0.07290  Biso   1.000  O
  O57      1.0000 0.76880  0.34950  0.89610  Biso   1.000  O
  O58      1.0000 0.73120  0.84950  0.60390  Biso   1.000  O
  O59      1.0000 0.23120  0.65050  0.10390  Biso   1.000  O
  O60      1.0000 0.26880  0.15050  0.39610  Biso   1.000  O
  O61      1.0000 0.84350  0.27020  0.79090  Biso   1.000  O
  O62      1.0000 0.65650  0.77020  0.70910  Biso   1.000  O
  O63      1.0000 0.15650  0.72980  0.20910  Biso   1.000  O
  O64      1.0000 0.34350  0.22980  0.29090  Biso   1.000  O
  H105     1.0000 0.55710  0.09670  0.53100  Biso   1.000  H
  H106     1.0000 0.94290  0.59670  0.96900  Biso   1.000  H
  H107     1.0000 0.44290  0.90330  0.46900  Biso   1.000  H
  H108     1.0000 0.05710  0.40330  0.03100  Biso   1.000  H
  H109     1.0000 0.11700  0.33400  0.78200  Biso   1.000  H
  H110     1.0000 0.38300  0.83400  0.71800  Biso   1.000  H
  H111     1.0000 0.88300  0.66600  0.21800  Biso   1.000  H
  H112     1.0000 0.61700  0.16600  0.28200  Biso   1.000  H
  H113     1.0000 0.62300  0.95900  0.59700  Biso   1.000  H
  H114     1.0000 0.87700  0.45900  0.90300  Biso   1.000  H
  H115     1.0000 0.37700  0.04100  0.40300  Biso   1.000  H
  H116     1.0000 0.12300  0.54100  0.09700  Biso   1.000  H
  H117     1.0000 0.67600  0.99400  0.52700  Biso   1.000  H
  H118     1.0000 0.82400  0.49400  0.97300  Biso   1.000  H
  H119     1.0000 0.32400  0.00600  0.47300  Biso   1.000  H
  H120     1.0000 0.17600  0.50600  0.02700  Biso   1.000  H
  H121     1.0000 0.23000  0.15100  0.53800  Biso   1.000  H
  H122     1.0000 0.27000  0.65100  0.96200  Biso   1.000  H
  H123     1.0000 0.77000  0.84900  0.46200  Biso   1.000  H
  H124     1.0000 0.73000  0.34900  0.03800  Biso   1.000  H
  H125     1.0000 0.12100  0.17300  0.57100  Biso   1.000  H
  H126     1.0000 0.37900  0.67300  0.92900  Biso   1.000  H
  H127     1.0000 0.87900  0.82700  0.42900  Biso   1.000  H
  H128     1.0000 0.62100  0.32700  0.07100  Biso   1.000  H
  H129     1.0000 0.73800  0.19800  0.75900  Biso   1.000  H
  H130     1.0000 0.76200  0.69800  0.74100  Biso   1.000  H
  H131     1.0000 0.26200  0.80200  0.24100  Biso   1.000  H
  H132     1.0000 0.23800  0.30200  0.25900  Biso   1.000  H
  H133     1.0000 0.72000  0.14700  0.81800  Biso   1.000  H
  H134     1.0000 0.78000  0.64700  0.68200  Biso   1.000  H
  H135     1.0000 0.28000  0.85300  0.18200  Biso   1.000  H
  H136     1.0000 0.22000  0.35300  0.31800  Biso   1.000  H
  H137     1.0000 0.16600  0.24700  0.56200  Biso   1.000  H
  H138     1.0000 0.33400  0.74700  0.93800  Biso   1.000  H
  H139     1.0000 0.83400  0.75300  0.43800  Biso   1.000  H
  H140     1.0000 0.66600  0.25300  0.06200  Biso   1.000  H
  H141     1.0000 0.14700  0.29100  0.50500  Biso   1.000  H
  H142     1.0000 0.35300  0.79100  0.99500  Biso   1.000  H
  H143     1.0000 0.85300  0.70900  0.49500  Biso   1.000  H
  H144     1.0000 0.64700  0.20900  0.00500  Biso   1.000  H
