data_image0
_cell_length_a       16.33
_cell_length_b       23.484
_cell_length_c       14.805
_cell_angle_alpha    90
_cell_angle_beta     90
_cell_angle_gamma    90

_symmetry_space_group_name_H-M    "P 1"
_symmetry_int_tables_number       1

loop_
  _symmetry_equiv_pos_as_xyz
  'x, y, z'

loop_
  _atom_site_label
  _atom_site_occupancy
  _atom_site_fract_x
  _atom_site_fract_y
  _atom_site_fract_z
  _atom_site_thermal_displace_type
  _atom_site_B_iso_or_equiv
  _atom_site_type_symbol
  Cu1      1.0000 0.20267  0.17457  0.69920  Biso   1.000  Cu
  Cu2      1.0000 0.29733  0.32543  0.19920  Biso   1.000  Cu
  Cu3      1.0000 0.79733  0.17457  0.80080  Biso   1.000  Cu
  Cu4      1.0000 0.70267  0.32543  0.30080  Biso   1.000  Cu
  Cu5      1.0000 0.79733  0.82543  0.30080  Biso   1.000  Cu
  Cu6      1.0000 0.70267  0.67457  0.80080  Biso   1.000  Cu
  Cu7      1.0000 0.20267  0.82543  0.19920  Biso   1.000  Cu
  Cu8      1.0000 0.29733  0.67457  0.69920  Biso   1.000  Cu
  Cu9      1.0000 0.35647  0.09400  0.61920  Biso   1.000  Cu
  Cu10     1.0000 0.14353  0.40600  0.11920  Biso   1.000  Cu
  Cu11     1.0000 0.64353  0.09400  0.88080  Biso   1.000  Cu
  Cu12     1.0000 0.85647  0.40600  0.38080  Biso   1.000  Cu
  Cu13     1.0000 0.64353  0.90600  0.38080  Biso   1.000  Cu
  Cu14     1.0000 0.85647  0.59400  0.88080  Biso   1.000  Cu
  Cu15     1.0000 0.35647  0.90600  0.11920  Biso   1.000  Cu
  Cu16     1.0000 0.14353  0.59400  0.61920  Biso   1.000  Cu
  Cu17     1.0000 0.25784  0.18374  0.47738  Biso   1.000  Cu
  Cu18     1.0000 0.24216  0.31626  0.97738  Biso   1.000  Cu
  Cu19     1.0000 0.74216  0.18374  0.02262  Biso   1.000  Cu
  Cu20     1.0000 0.75784  0.31626  0.52262  Biso   1.000  Cu
  Cu21     1.0000 0.74216  0.81626  0.52262  Biso   1.000  Cu
  Cu22     1.0000 0.75784  0.68374  0.02262  Biso   1.000  Cu
  Cu23     1.0000 0.25784  0.81626  0.97738  Biso   1.000  Cu
  Cu24     1.0000 0.24216  0.68374  0.47738  Biso   1.000  Cu
  O1       1.0000 0.29410  0.16574  0.60560  Biso   1.000  O
  O2       1.0000 0.20590  0.33426  0.10560  Biso   1.000  O
  O3       1.0000 0.70590  0.16574  0.89440  Biso   1.000  O
  O4       1.0000 0.79410  0.33426  0.39440  Biso   1.000  O
  O5       1.0000 0.70590  0.83426  0.39440  Biso   1.000  O
  O6       1.0000 0.79410  0.66574  0.89440  Biso   1.000  O
  O7       1.0000 0.29410  0.83426  0.10560  Biso   1.000  O
  O8       1.0000 0.20590  0.66574  0.60560  Biso   1.000  O
  N1       1.0000 0.15200  0.23000  0.61740  Biso   1.000  N
  N2       1.0000 0.34800  0.27000  0.11740  Biso   1.000  N
  N3       1.0000 0.84800  0.23000  0.88260  Biso   1.000  N
  N4       1.0000 0.65200  0.27000  0.38260  Biso   1.000  N
  N5       1.0000 0.84800  0.77000  0.38260  Biso   1.000  N
  N6       1.0000 0.65200  0.73000  0.88260  Biso   1.000  N
  N7       1.0000 0.15200  0.77000  0.11740  Biso   1.000  N
  N8       1.0000 0.34800  0.73000  0.61740  Biso   1.000  N
  N9       1.0000 0.17540  0.23398  0.52870  Biso   1.000  N
  N10      1.0000 0.32460  0.26602  0.02870  Biso   1.000  N
  N11      1.0000 0.82460  0.23398  0.97130  Biso   1.000  N
  N12      1.0000 0.67540  0.26602  0.47130  Biso   1.000  N
  N13      1.0000 0.82460  0.76602  0.47130  Biso   1.000  N
  N14      1.0000 0.67540  0.73398  0.97130  Biso   1.000  N
  N15      1.0000 0.17540  0.76602  0.02870  Biso   1.000  N
  N16      1.0000 0.32460  0.73398  0.52870  Biso   1.000  N
  C1       1.0000 0.12860  0.27380  0.49000  Biso   1.000  C
  C2       1.0000 0.37140  0.22620  0.99000  Biso   1.000  C
  C3       1.0000 0.87140  0.27380  0.01000  Biso   1.000  C
  C4       1.0000 0.62860  0.22620  0.51000  Biso   1.000  C
  C5       1.0000 0.87140  0.72620  0.51000  Biso   1.000  C
  C6       1.0000 0.62860  0.77380  0.01000  Biso   1.000  C
  C7       1.0000 0.12860  0.72620  0.99000  Biso   1.000  C
  C8       1.0000 0.37140  0.77380  0.49000  Biso   1.000  C
  H1       1.0000 0.13240  0.28510  0.42990  Biso   1.000  H
  H2       1.0000 0.36760  0.21490  0.92990  Biso   1.000  H
  H3       1.0000 0.86760  0.28510  0.07010  Biso   1.000  H
  H4       1.0000 0.63240  0.21490  0.57010  Biso   1.000  H
  H5       1.0000 0.86760  0.71490  0.57010  Biso   1.000  H
  H6       1.0000 0.63240  0.78510  0.07010  Biso   1.000  H
  H7       1.0000 0.13240  0.71490  0.92990  Biso   1.000  H
  H8       1.0000 0.36760  0.78510  0.42990  Biso   1.000  H
  C9       1.0000 0.09150  0.26720  0.62970  Biso   1.000  C
  C10      1.0000 0.40850  0.23280  0.12970  Biso   1.000  C
  C11      1.0000 0.90850  0.26720  0.87030  Biso   1.000  C
  C12      1.0000 0.59150  0.23280  0.37030  Biso   1.000  C
  C13      1.0000 0.90850  0.73280  0.37030  Biso   1.000  C
  C14      1.0000 0.59150  0.76720  0.87030  Biso   1.000  C
  C15      1.0000 0.09150  0.73280  0.12970  Biso   1.000  C
  C16      1.0000 0.40850  0.76720  0.62970  Biso   1.000  C
  H9       1.0000 0.06430  0.27310  0.68410  Biso   1.000  H
  H10      1.0000 0.43570  0.22690  0.18410  Biso   1.000  H
  H11      1.0000 0.93570  0.27310  0.81590  Biso   1.000  H
  H12      1.0000 0.56430  0.22690  0.31590  Biso   1.000  H
  H13      1.0000 0.93570  0.72690  0.31590  Biso   1.000  H
  H14      1.0000 0.56430  0.77310  0.81590  Biso   1.000  H
  H15      1.0000 0.06430  0.72690  0.18410  Biso   1.000  H
  H16      1.0000 0.43570  0.77310  0.68410  Biso   1.000  H
  C17      1.0000 0.07490  0.29560  0.55080  Biso   1.000  C
  C18      1.0000 0.42510  0.20440  0.05080  Biso   1.000  C
  C19      1.0000 0.92510  0.29560  0.94920  Biso   1.000  C
  C20      1.0000 0.57490  0.20440  0.44920  Biso   1.000  C
  C21      1.0000 0.92510  0.70440  0.44920  Biso   1.000  C
  C22      1.0000 0.57490  0.79560  0.94920  Biso   1.000  C
  C23      1.0000 0.07490  0.70440  0.05080  Biso   1.000  C
  C24      1.0000 0.42510  0.79560  0.55080  Biso   1.000  C
  H17      1.0000 0.03560  0.32350  0.54120  Biso   1.000  H
  H18      1.0000 0.46440  0.17650  0.04120  Biso   1.000  H
  H19      1.0000 0.96440  0.32350  0.95880  Biso   1.000  H
  H20      1.0000 0.53560  0.17650  0.45880  Biso   1.000  H
  H21      1.0000 0.96440  0.67650  0.45880  Biso   1.000  H
  H22      1.0000 0.53560  0.82350  0.95880  Biso   1.000  H
  H23      1.0000 0.03560  0.67650  0.04120  Biso   1.000  H
  H24      1.0000 0.46440  0.82350  0.54120  Biso   1.000  H
  N17      1.0000 0.83020  0.88320  0.56770  Biso   1.000  N
  N18      1.0000 0.66980  0.61680  0.06770  Biso   1.000  N
  N19      1.0000 0.16980  0.88320  0.93230  Biso   1.000  N
  N20      1.0000 0.33020  0.61680  0.43230  Biso   1.000  N
  N21      1.0000 0.16980  0.11680  0.43230  Biso   1.000  N
  N22      1.0000 0.33020  0.38320  0.93230  Biso   1.000  N
  N23      1.0000 0.83020  0.11680  0.06770  Biso   1.000  N
  N24      1.0000 0.66980  0.38320  0.56770  Biso   1.000  N
  C25      1.0000 0.99980  0.01710  0.62920  Biso   1.000  C
  C26      1.0000 0.50020  0.48290  0.12920  Biso   1.000  C
  C27      1.0000 0.00020  0.01710  0.87080  Biso   1.000  C
  C28      1.0000 0.49980  0.48290  0.37080  Biso   1.000  C
  C29      1.0000 0.00020  0.98290  0.37080  Biso   1.000  C
  C30      1.0000 0.49980  0.51710  0.87080  Biso   1.000  C
  C31      1.0000 0.99980  0.98290  0.12920  Biso   1.000  C
  C32      1.0000 0.50020  0.51710  0.62920  Biso   1.000  C
  C33      1.0000 0.94180  0.97110  0.60970  Biso   1.000  C
  C34      1.0000 0.55820  0.52890  0.10970  Biso   1.000  C
  C35      1.0000 0.05820  0.97110  0.89030  Biso   1.000  C
  C36      1.0000 0.44180  0.52890  0.39030  Biso   1.000  C
  C37      1.0000 0.05820  0.02890  0.39030  Biso   1.000  C
  C38      1.0000 0.44180  0.47110  0.89030  Biso   1.000  C
  C39      1.0000 0.94180  0.02890  0.10970  Biso   1.000  C
  C40      1.0000 0.55820  0.47110  0.60970  Biso   1.000  C
  C41      1.0000 0.86090  0.97980  0.59460  Biso   1.000  C
  C42      1.0000 0.63910  0.52020  0.09460  Biso   1.000  C
  C43      1.0000 0.13910  0.97980  0.90540  Biso   1.000  C
  C44      1.0000 0.36090  0.52020  0.40540  Biso   1.000  C
  C45      1.0000 0.13910  0.02020  0.40540  Biso   1.000  C
  C46      1.0000 0.36090  0.47980  0.90540  Biso   1.000  C
  C47      1.0000 0.86090  0.02020  0.09460  Biso   1.000  C
  C48      1.0000 0.63910  0.47980  0.59460  Biso   1.000  C
  H25      1.0000 0.84060  0.01670  0.59720  Biso   1.000  H
  H26      1.0000 0.65940  0.48330  0.09720  Biso   1.000  H
  H27      1.0000 0.15940  0.01670  0.90280  Biso   1.000  H
  H28      1.0000 0.34060  0.48330  0.40280  Biso   1.000  H
  H29      1.0000 0.15940  0.98330  0.40280  Biso   1.000  H
  H30      1.0000 0.34060  0.51670  0.90280  Biso   1.000  H
  H31      1.0000 0.84060  0.98330  0.09720  Biso   1.000  H
  H32      1.0000 0.65940  0.51670  0.59720  Biso   1.000  H
  C49      1.0000 0.90820  0.87360  0.58120  Biso   1.000  C
  C50      1.0000 0.59180  0.62640  0.08120  Biso   1.000  C
  C51      1.0000 0.09180  0.87360  0.91880  Biso   1.000  C
  C52      1.0000 0.40820  0.62640  0.41880  Biso   1.000  C
  C53      1.0000 0.09180  0.12640  0.41880  Biso   1.000  C
  C54      1.0000 0.40820  0.37360  0.91880  Biso   1.000  C
  C55      1.0000 0.90820  0.12640  0.08120  Biso   1.000  C
  C56      1.0000 0.59180  0.37360  0.58120  Biso   1.000  C
  H33      1.0000 0.92660  0.83630  0.57650  Biso   1.000  H
  H34      1.0000 0.57340  0.66370  0.07650  Biso   1.000  H
  H35      1.0000 0.07340  0.83630  0.92350  Biso   1.000  H
  H36      1.0000 0.42660  0.66370  0.42350  Biso   1.000  H
  H37      1.0000 0.07340  0.16370  0.42350  Biso   1.000  H
  H38      1.0000 0.42660  0.33630  0.92350  Biso   1.000  H
  H39      1.0000 0.92660  0.16370  0.07650  Biso   1.000  H
  H40      1.0000 0.57340  0.33630  0.57650  Biso   1.000  H
  C57      1.0000 0.97770  0.07370  0.62870  Biso   1.000  C
  C58      1.0000 0.52230  0.42630  0.12870  Biso   1.000  C
  C59      1.0000 0.02230  0.07370  0.87130  Biso   1.000  C
  C60      1.0000 0.47770  0.42630  0.37130  Biso   1.000  C
  C61      1.0000 0.02230  0.92630  0.37130  Biso   1.000  C
  C62      1.0000 0.47770  0.57370  0.87130  Biso   1.000  C
  C63      1.0000 0.97770  0.92630  0.12870  Biso   1.000  C
  C64      1.0000 0.52230  0.57370  0.62870  Biso   1.000  C
  H41      1.0000 0.92380  0.08380  0.61650  Biso   1.000  H
  H42      1.0000 0.57620  0.41620  0.11650  Biso   1.000  H
  H43      1.0000 0.07620  0.08380  0.88350  Biso   1.000  H
  H44      1.0000 0.42380  0.41620  0.38350  Biso   1.000  H
  H45      1.0000 0.07620  0.91620  0.38350  Biso   1.000  H
  H46      1.0000 0.42380  0.58380  0.88350  Biso   1.000  H
  H47      1.0000 0.92380  0.91620  0.11650  Biso   1.000  H
  H48      1.0000 0.57620  0.58380  0.61650  Biso   1.000  H
  C65      1.0000 0.80820  0.93640  0.57560  Biso   1.000  C
  C66      1.0000 0.69180  0.56360  0.07560  Biso   1.000  C
  C67      1.0000 0.19180  0.93640  0.92440  Biso   1.000  C
  C68      1.0000 0.30820  0.56360  0.42440  Biso   1.000  C
  C69      1.0000 0.19180  0.06360  0.42440  Biso   1.000  C
  C70      1.0000 0.30820  0.43640  0.92440  Biso   1.000  C
  C71      1.0000 0.80820  0.06360  0.07560  Biso   1.000  C
  C72      1.0000 0.69180  0.43640  0.57560  Biso   1.000  C
  H49      1.0000 0.75320  0.94520  0.56780  Biso   1.000  H
  H50      1.0000 0.74680  0.55480  0.06780  Biso   1.000  H
  H51      1.0000 0.24680  0.94520  0.93220  Biso   1.000  H
  H52      1.0000 0.25320  0.55480  0.43220  Biso   1.000  H
  H53      1.0000 0.24680  0.05480  0.43220  Biso   1.000  H
  H54      1.0000 0.25320  0.44520  0.93220  Biso   1.000  H
  H55      1.0000 0.75320  0.05480  0.06780  Biso   1.000  H
  H56      1.0000 0.74680  0.44520  0.56780  Biso   1.000  H
  C73      1.0000 0.96570  0.91560  0.60220  Biso   1.000  C
  C74      1.0000 0.53430  0.58440  0.10220  Biso   1.000  C
  C75      1.0000 0.03430  0.91560  0.89780  Biso   1.000  C
  C76      1.0000 0.46570  0.58440  0.39780  Biso   1.000  C
  C77      1.0000 0.03430  0.08440  0.39780  Biso   1.000  C
  C78      1.0000 0.46570  0.41560  0.89780  Biso   1.000  C
  C79      1.0000 0.96570  0.08440  0.10220  Biso   1.000  C
  C80      1.0000 0.53430  0.41560  0.60220  Biso   1.000  C
  H57      1.0000 0.02020  0.90570  0.61120  Biso   1.000  H
  H58      1.0000 0.47980  0.59430  0.11120  Biso   1.000  H
  H59      1.0000 0.97980  0.90570  0.88880  Biso   1.000  H
  H60      1.0000 0.52020  0.59430  0.38880  Biso   1.000  H
  H61      1.0000 0.97980  0.09430  0.38880  Biso   1.000  H
  H62      1.0000 0.52020  0.40570  0.88880  Biso   1.000  H
  H63      1.0000 0.02020  0.09430  0.11120  Biso   1.000  H
  H64      1.0000 0.47980  0.40570  0.61120  Biso   1.000  H
  C81      1.0000 0.08060  0.00620  0.64930  Biso   1.000  C
  C82      1.0000 0.41940  0.49380  0.14930  Biso   1.000  C
  C83      1.0000 0.91940  0.00620  0.85070  Biso   1.000  C
  C84      1.0000 0.58060  0.49380  0.35070  Biso   1.000  C
  C85      1.0000 0.91940  0.99380  0.35070  Biso   1.000  C
  C86      1.0000 0.58060  0.50620  0.85070  Biso   1.000  C
  C87      1.0000 0.08060  0.99380  0.14930  Biso   1.000  C
  C88      1.0000 0.41940  0.50620  0.64930  Biso   1.000  C
  H65      1.0000 0.09920  0.96880  0.65240  Biso   1.000  H
  H66      1.0000 0.40080  0.53120  0.15240  Biso   1.000  H
  H67      1.0000 0.90080  0.96880  0.84760  Biso   1.000  H
  H68      1.0000 0.59920  0.53120  0.34760  Biso   1.000  H
  H69      1.0000 0.90080  0.03120  0.34760  Biso   1.000  H
  H70      1.0000 0.59920  0.46880  0.84760  Biso   1.000  H
  H71      1.0000 0.09920  0.03120  0.15240  Biso   1.000  H
  H72      1.0000 0.40080  0.46880  0.65240  Biso   1.000  H
  N25      1.0000 0.26980  0.12740  0.77990  Biso   1.000  N
  N26      1.0000 0.23020  0.37260  0.27990  Biso   1.000  N
  N27      1.0000 0.73020  0.12740  0.72010  Biso   1.000  N
  N28      1.0000 0.76980  0.37260  0.22010  Biso   1.000  N
  N29      1.0000 0.73020  0.87260  0.22010  Biso   1.000  N
  N30      1.0000 0.76980  0.62740  0.72010  Biso   1.000  N
  N31      1.0000 0.26980  0.87260  0.27990  Biso   1.000  N
  N32      1.0000 0.23020  0.62740  0.77990  Biso   1.000  N
  N33      1.0000 0.33250  0.09620  0.74730  Biso   1.000  N
  N34      1.0000 0.16750  0.40380  0.24730  Biso   1.000  N
  N35      1.0000 0.66750  0.09620  0.75270  Biso   1.000  N
  N36      1.0000 0.83250  0.40380  0.25270  Biso   1.000  N
  N37      1.0000 0.66750  0.90380  0.25270  Biso   1.000  N
  N38      1.0000 0.83250  0.59620  0.75270  Biso   1.000  N
  N39      1.0000 0.33250  0.90380  0.24730  Biso   1.000  N
  N40      1.0000 0.16750  0.59620  0.74730  Biso   1.000  N
  C89      1.0000 0.36550  0.06810  0.81550  Biso   1.000  C
  C90      1.0000 0.13450  0.43190  0.31550  Biso   1.000  C
  C91      1.0000 0.63450  0.06810  0.68450  Biso   1.000  C
  C92      1.0000 0.86550  0.43190  0.18450  Biso   1.000  C
  C93      1.0000 0.63450  0.93190  0.18450  Biso   1.000  C
  C94      1.0000 0.86550  0.56810  0.68450  Biso   1.000  C
  C95      1.0000 0.36550  0.93190  0.31550  Biso   1.000  C
  C96      1.0000 0.13450  0.56810  0.81550  Biso   1.000  C
  H73      1.0000 0.40980  0.04340  0.81040  Biso   1.000  H
  H74      1.0000 0.09020  0.45660  0.31040  Biso   1.000  H
  H75      1.0000 0.59020  0.04340  0.68960  Biso   1.000  H
  H76      1.0000 0.90980  0.45660  0.18960  Biso   1.000  H
  H77      1.0000 0.59020  0.95660  0.18960  Biso   1.000  H
  H78      1.0000 0.90980  0.54340  0.68960  Biso   1.000  H
  H79      1.0000 0.40980  0.95660  0.31040  Biso   1.000  H
  H80      1.0000 0.09020  0.54340  0.81040  Biso   1.000  H
  C97      1.0000 0.26680  0.11730  0.86720  Biso   1.000  C
  C98      1.0000 0.23320  0.38270  0.36720  Biso   1.000  C
  C99      1.0000 0.73320  0.11730  0.63280  Biso   1.000  C
  C100     1.0000 0.76680  0.38270  0.13280  Biso   1.000  C
  C101     1.0000 0.73320  0.88270  0.13280  Biso   1.000  C
  C102     1.0000 0.76680  0.61730  0.63280  Biso   1.000  C
  C103     1.0000 0.26680  0.88270  0.36720  Biso   1.000  C
  C104     1.0000 0.23320  0.61730  0.86720  Biso   1.000  C
  H81      1.0000 0.22900  0.13350  0.90650  Biso   1.000  H
  H82      1.0000 0.27100  0.36650  0.40650  Biso   1.000  H
  H83      1.0000 0.77100  0.13350  0.59350  Biso   1.000  H
  H84      1.0000 0.72900  0.36650  0.09350  Biso   1.000  H
  H85      1.0000 0.77100  0.86650  0.09350  Biso   1.000  H
  H86      1.0000 0.72900  0.63350  0.59350  Biso   1.000  H
  H87      1.0000 0.22900  0.86650  0.40650  Biso   1.000  H
  H88      1.0000 0.27100  0.63350  0.90650  Biso   1.000  H
  C105     1.0000 0.32650  0.07980  0.89260  Biso   1.000  C
  C106     1.0000 0.17350  0.42020  0.39260  Biso   1.000  C
  C107     1.0000 0.67350  0.07980  0.60740  Biso   1.000  C
  C108     1.0000 0.82650  0.42020  0.10740  Biso   1.000  C
  C109     1.0000 0.67350  0.92020  0.10740  Biso   1.000  C
  C110     1.0000 0.82650  0.57980  0.60740  Biso   1.000  C
  C111     1.0000 0.32650  0.92020  0.39260  Biso   1.000  C
  C112     1.0000 0.17350  0.57980  0.89260  Biso   1.000  C
  H89      1.0000 0.33750  0.06580  0.95010  Biso   1.000  H
  H90      1.0000 0.16250  0.43420  0.45010  Biso   1.000  H
  H91      1.0000 0.66250  0.06580  0.54990  Biso   1.000  H
  H92      1.0000 0.83750  0.43420  0.04990  Biso   1.000  H
  H93      1.0000 0.66250  0.93420  0.04990  Biso   1.000  H
  H94      1.0000 0.83750  0.56580  0.54990  Biso   1.000  H
  H95      1.0000 0.33750  0.93420  0.45010  Biso   1.000  H
  H96      1.0000 0.16250  0.56580  0.95010  Biso   1.000  H
  O9       1.0000 0.13410  0.20286  0.80310  Biso   1.000  O
  O10      1.0000 0.36590  0.29714  0.30310  Biso   1.000  O
  O11      1.0000 0.86590  0.20286  0.69690  Biso   1.000  O
  O12      1.0000 0.63410  0.29714  0.19690  Biso   1.000  O
  O13      1.0000 0.86590  0.79714  0.19690  Biso   1.000  O
  O14      1.0000 0.63410  0.70286  0.69690  Biso   1.000  O
  O15      1.0000 0.13410  0.79714  0.30310  Biso   1.000  O
  O16      1.0000 0.36590  0.70286  0.80310  Biso   1.000  O
  N41      1.0000 0.34990  0.13770  0.43680  Biso   1.000  N
  N42      1.0000 0.15010  0.36230  0.93680  Biso   1.000  N
  N43      1.0000 0.65010  0.13770  0.06320  Biso   1.000  N
  N44      1.0000 0.84990  0.36230  0.56320  Biso   1.000  N
  N45      1.0000 0.65010  0.86230  0.56320  Biso   1.000  N
  N46      1.0000 0.84990  0.63770  0.06320  Biso   1.000  N
  N47      1.0000 0.34990  0.86230  0.93680  Biso   1.000  N
  N48      1.0000 0.15010  0.63770  0.43680  Biso   1.000  N
  N49      1.0000 0.38560  0.09940  0.49310  Biso   1.000  N
  N50      1.0000 0.11440  0.40060  0.99310  Biso   1.000  N
  N51      1.0000 0.61440  0.09940  0.00690  Biso   1.000  N
  N52      1.0000 0.88560  0.40060  0.50690  Biso   1.000  N
  N53      1.0000 0.61440  0.90060  0.50690  Biso   1.000  N
  N54      1.0000 0.88560  0.59940  0.00690  Biso   1.000  N
  N55      1.0000 0.38560  0.90060  0.99310  Biso   1.000  N
  N56      1.0000 0.11440  0.59940  0.49310  Biso   1.000  N
  C113     1.0000 0.37730  0.12750  0.35340  Biso   1.000  C
  C114     1.0000 0.12270  0.37250  0.85340  Biso   1.000  C
  C115     1.0000 0.62270  0.12750  0.14660  Biso   1.000  C
  C116     1.0000 0.87730  0.37250  0.64660  Biso   1.000  C
  C117     1.0000 0.62270  0.87250  0.64660  Biso   1.000  C
  C118     1.0000 0.87730  0.62750  0.14660  Biso   1.000  C
  C119     1.0000 0.37730  0.87250  0.85340  Biso   1.000  C
  C120     1.0000 0.12270  0.62750  0.35340  Biso   1.000  C
  H97      1.0000 0.36270  0.14780  0.30190  Biso   1.000  H
  H98      1.0000 0.13730  0.35220  0.80190  Biso   1.000  H
  H99      1.0000 0.63730  0.14780  0.19810  Biso   1.000  H
  H100     1.0000 0.86270  0.35220  0.69810  Biso   1.000  H
  H101     1.0000 0.63730  0.85220  0.69810  Biso   1.000  H
  H102     1.0000 0.86270  0.64780  0.19810  Biso   1.000  H
  H103     1.0000 0.36270  0.85220  0.80190  Biso   1.000  H
  H104     1.0000 0.13730  0.64780  0.30190  Biso   1.000  H
  C121     1.0000 0.13390  0.05050  0.66490  Biso   1.000  C
  C122     1.0000 0.36610  0.44950  0.16490  Biso   1.000  C
  C123     1.0000 0.86610  0.05050  0.83510  Biso   1.000  C
  C124     1.0000 0.63390  0.44950  0.33510  Biso   1.000  C
  C125     1.0000 0.86610  0.94950  0.33510  Biso   1.000  C
  C126     1.0000 0.63390  0.55050  0.83510  Biso   1.000  C
  C127     1.0000 0.13390  0.94950  0.16490  Biso   1.000  C
  C128     1.0000 0.36610  0.55050  0.66490  Biso   1.000  C
  H105     1.0000 0.18830  0.04150  0.67720  Biso   1.000  H
  H106     1.0000 0.31170  0.45850  0.17720  Biso   1.000  H
  H107     1.0000 0.81170  0.04150  0.82280  Biso   1.000  H
  H108     1.0000 0.68830  0.45850  0.32280  Biso   1.000  H
  H109     1.0000 0.81170  0.95850  0.32280  Biso   1.000  H
  H110     1.0000 0.68830  0.54150  0.82280  Biso   1.000  H
  H111     1.0000 0.18830  0.95850  0.17720  Biso   1.000  H
  H112     1.0000 0.31170  0.54150  0.67720  Biso   1.000  H
  C129     1.0000 0.03440  0.11510  0.64600  Biso   1.000  C
  C130     1.0000 0.46560  0.38490  0.14600  Biso   1.000  C
  C131     1.0000 0.96560  0.11510  0.85400  Biso   1.000  C
  C132     1.0000 0.53440  0.38490  0.35400  Biso   1.000  C
  C133     1.0000 0.96560  0.88490  0.35400  Biso   1.000  C
  C134     1.0000 0.53440  0.61510  0.85400  Biso   1.000  C
  C135     1.0000 0.03440  0.88490  0.14600  Biso   1.000  C
  C136     1.0000 0.46560  0.61510  0.64600  Biso   1.000  C
  H113     1.0000 0.01710  0.15280  0.64560  Biso   1.000  H
  H114     1.0000 0.48290  0.34720  0.14560  Biso   1.000  H
  H115     1.0000 0.98290  0.15280  0.85440  Biso   1.000  H
  H116     1.0000 0.51710  0.34720  0.35440  Biso   1.000  H
  H117     1.0000 0.98290  0.84720  0.35440  Biso   1.000  H
  H118     1.0000 0.51710  0.65280  0.85440  Biso   1.000  H
  H119     1.0000 0.01710  0.84720  0.14560  Biso   1.000  H
  H120     1.0000 0.48290  0.65280  0.64560  Biso   1.000  H
  O17      1.0000 0.41580  0.02110  0.63330  Biso   1.000  O
  O18      1.0000 0.08420  0.47890  0.13330  Biso   1.000  O
  O19      1.0000 0.58420  0.02110  0.86670  Biso   1.000  O
  O20      1.0000 0.91580  0.47890  0.36670  Biso   1.000  O
  O21      1.0000 0.58420  0.97890  0.36670  Biso   1.000  O
  O22      1.0000 0.91580  0.52110  0.86670  Biso   1.000  O
  O23      1.0000 0.41580  0.97890  0.13330  Biso   1.000  O
  O24      1.0000 0.08420  0.52110  0.63330  Biso   1.000  O
  O25      1.0000 0.29420  0.98540  0.60480  Biso   1.000  O
  O26      1.0000 0.20580  0.51460  0.10480  Biso   1.000  O
  O27      1.0000 0.70580  0.98540  0.89520  Biso   1.000  O
  O28      1.0000 0.79420  0.51460  0.39520  Biso   1.000  O
  O29      1.0000 0.70580  0.01460  0.39520  Biso   1.000  O
  O30      1.0000 0.79420  0.48540  0.89520  Biso   1.000  O
  O31      1.0000 0.29420  0.01460  0.10480  Biso   1.000  O
  O32      1.0000 0.20580  0.48540  0.60480  Biso   1.000  O
  C137     1.0000 0.36720  0.98100  0.62350  Biso   1.000  C
  C138     1.0000 0.13280  0.51900  0.12350  Biso   1.000  C
  C139     1.0000 0.63280  0.98100  0.87650  Biso   1.000  C
  C140     1.0000 0.86720  0.51900  0.37650  Biso   1.000  C
  C141     1.0000 0.63280  0.01900  0.37650  Biso   1.000  C
  C142     1.0000 0.86720  0.48100  0.87650  Biso   1.000  C
  C143     1.0000 0.36720  0.01900  0.12350  Biso   1.000  C
  C144     1.0000 0.13280  0.48100  0.62350  Biso   1.000  C
  H121     1.0000 0.38790  0.94440  0.63100  Biso   1.000  H
  H122     1.0000 0.11210  0.55560  0.13100  Biso   1.000  H
  H123     1.0000 0.61210  0.94440  0.86900  Biso   1.000  H
  H124     1.0000 0.88790  0.55560  0.36900  Biso   1.000  H
  H125     1.0000 0.61210  0.05560  0.36900  Biso   1.000  H
  H126     1.0000 0.88790  0.44440  0.86900  Biso   1.000  H
  H127     1.0000 0.38790  0.05560  0.13100  Biso   1.000  H
  H128     1.0000 0.11210  0.44440  0.63100  Biso   1.000  H
  C145     1.0000 0.43310  0.06690  0.44310  Biso   1.000  C
  C146     1.0000 0.06690  0.43310  0.94310  Biso   1.000  C
  C147     1.0000 0.56690  0.06690  0.05690  Biso   1.000  C
  C148     1.0000 0.93310  0.43310  0.55690  Biso   1.000  C
  C149     1.0000 0.56690  0.93310  0.55690  Biso   1.000  C
  C150     1.0000 0.93310  0.56690  0.05690  Biso   1.000  C
  C151     1.0000 0.43310  0.93310  0.94310  Biso   1.000  C
  C152     1.0000 0.06690  0.56690  0.44310  Biso   1.000  C
  H129     1.0000 0.46450  0.03700  0.46550  Biso   1.000  H
  H130     1.0000 0.03550  0.46300  0.96550  Biso   1.000  H
  H131     1.0000 0.53550  0.03700  0.03450  Biso   1.000  H
  H132     1.0000 0.96450  0.46300  0.53450  Biso   1.000  H
  H133     1.0000 0.53550  0.96300  0.53450  Biso   1.000  H
  H134     1.0000 0.96450  0.53700  0.03450  Biso   1.000  H
  H135     1.0000 0.46450  0.96300  0.96550  Biso   1.000  H
  H136     1.0000 0.03550  0.53700  0.46550  Biso   1.000  H
  C153     1.0000 0.43080  0.08200  0.35590  Biso   1.000  C
  C154     1.0000 0.06920  0.41800  0.85590  Biso   1.000  C
  C155     1.0000 0.56920  0.08200  0.14410  Biso   1.000  C
  C156     1.0000 0.93080  0.41800  0.64410  Biso   1.000  C
  C157     1.0000 0.56920  0.91800  0.64410  Biso   1.000  C
  C158     1.0000 0.93080  0.58200  0.14410  Biso   1.000  C
  C159     1.0000 0.43080  0.91800  0.85590  Biso   1.000  C
  C160     1.0000 0.06920  0.58200  0.35590  Biso   1.000  C
  H137     1.0000 0.45880  0.06560  0.30790  Biso   1.000  H
  H138     1.0000 0.04120  0.43440  0.80790  Biso   1.000  H
  H139     1.0000 0.54120  0.06560  0.19210  Biso   1.000  H
  H140     1.0000 0.95880  0.43440  0.69210  Biso   1.000  H
  H141     1.0000 0.54120  0.93440  0.69210  Biso   1.000  H
  H142     1.0000 0.95880  0.56560  0.19210  Biso   1.000  H
  H143     1.0000 0.45880  0.93440  0.80790  Biso   1.000  H
  H144     1.0000 0.04120  0.56560  0.30790  Biso   1.000  H
  C161     1.0000 0.15630  0.23610  0.86320  Biso   1.000  C
  C162     1.0000 0.34370  0.26390  0.36320  Biso   1.000  C
  C163     1.0000 0.84370  0.23610  0.63680  Biso   1.000  C
  C164     1.0000 0.65630  0.26390  0.13680  Biso   1.000  C
  C165     1.0000 0.84370  0.76390  0.13680  Biso   1.000  C
  C166     1.0000 0.65630  0.73610  0.63680  Biso   1.000  C
  C167     1.0000 0.15630  0.76390  0.36320  Biso   1.000  C
  C168     1.0000 0.34370  0.73610  0.86320  Biso   1.000  C
  H145     1.0000 0.11870  0.24320  0.90900  Biso   1.000  H
  H146     1.0000 0.38130  0.25680  0.40900  Biso   1.000  H
  H147     1.0000 0.88130  0.24320  0.59100  Biso   1.000  H
  H148     1.0000 0.61870  0.25680  0.09100  Biso   1.000  H
  H149     1.0000 0.88130  0.75680  0.09100  Biso   1.000  H
  H150     1.0000 0.61870  0.74320  0.59100  Biso   1.000  H
  H151     1.0000 0.11870  0.75680  0.40900  Biso   1.000  H
  H152     1.0000 0.38130  0.74320  0.90900  Biso   1.000  H
  N57      1.0000 0.11340  0.10450  0.66360  Biso   1.000  N
  N58      1.0000 0.38660  0.39550  0.16360  Biso   1.000  N
  N59      1.0000 0.88660  0.10450  0.83640  Biso   1.000  N
  N60      1.0000 0.61340  0.39550  0.33640  Biso   1.000  N
  N61      1.0000 0.88660  0.89550  0.33640  Biso   1.000  N
  N62      1.0000 0.61340  0.60450  0.83640  Biso   1.000  N
  N63      1.0000 0.11340  0.89550  0.16360  Biso   1.000  N
  N64      1.0000 0.38660  0.60450  0.66360  Biso   1.000  N
  O33      1.0000 0.22270  0.26096  0.86910  Biso   1.000  O
  O34      1.0000 0.27730  0.23904  0.36910  Biso   1.000  O
  O35      1.0000 0.77730  0.26096  0.63090  Biso   1.000  O
  O36      1.0000 0.72270  0.23904  0.13090  Biso   1.000  O
  O37      1.0000 0.77730  0.73904  0.13090  Biso   1.000  O
  O38      1.0000 0.72270  0.76096  0.63090  Biso   1.000  O
  O39      1.0000 0.22270  0.73904  0.36910  Biso   1.000  O
  O40      1.0000 0.27730  0.76096  0.86910  Biso   1.000  O
  O41      1.0000 0.18540  0.10550  0.08550  Biso   1.000  O
  O42      1.0000 0.31460  0.39450  0.58550  Biso   1.000  O
  O43      1.0000 0.81460  0.10550  0.41450  Biso   1.000  O
  O44      1.0000 0.68540  0.39450  0.91450  Biso   1.000  O
  O45      1.0000 0.81460  0.89450  0.91450  Biso   1.000  O
  O46      1.0000 0.68540  0.60550  0.41450  Biso   1.000  O
  O47      1.0000 0.18540  0.89450  0.58550  Biso   1.000  O
  O48      1.0000 0.31460  0.60550  0.08550  Biso   1.000  O
  C169     1.0000 0.20310  0.13680  0.15800  Biso   1.000  C
  C170     1.0000 0.29690  0.36320  0.65800  Biso   1.000  C
  C171     1.0000 0.79690  0.13680  0.34200  Biso   1.000  C
  C172     1.0000 0.70310  0.36320  0.84200  Biso   1.000  C
  C173     1.0000 0.79690  0.86320  0.84200  Biso   1.000  C
  C174     1.0000 0.70310  0.63680  0.34200  Biso   1.000  C
  C175     1.0000 0.20310  0.86320  0.65800  Biso   1.000  C
  C176     1.0000 0.29690  0.63680  0.15800  Biso   1.000  C
  C177     1.0000 0.35660  0.21180  0.62920  Biso   1.000  C
  C178     1.0000 0.14340  0.28820  0.12920  Biso   1.000  C
  C179     1.0000 0.64340  0.21180  0.87080  Biso   1.000  C
  C180     1.0000 0.85660  0.28820  0.37080  Biso   1.000  C
  C181     1.0000 0.64340  0.78820  0.37080  Biso   1.000  C
  C182     1.0000 0.85660  0.71180  0.87080  Biso   1.000  C
  C183     1.0000 0.35660  0.78820  0.12920  Biso   1.000  C
  C184     1.0000 0.14340  0.71180  0.62920  Biso   1.000  C
  H153     1.0000 0.41020  0.19960  0.61110  Biso   1.000  H
  H154     1.0000 0.08980  0.30040  0.11110  Biso   1.000  H
  H155     1.0000 0.58980  0.19960  0.88890  Biso   1.000  H
  H156     1.0000 0.91020  0.30040  0.38890  Biso   1.000  H
  H157     1.0000 0.58980  0.80040  0.38890  Biso   1.000  H
  H158     1.0000 0.91020  0.69960  0.88890  Biso   1.000  H
  H159     1.0000 0.41020  0.80040  0.11110  Biso   1.000  H
  H160     1.0000 0.08980  0.69960  0.61110  Biso   1.000  H
  H161     1.0000 0.35600  0.21850  0.69320  Biso   1.000  H
  H162     1.0000 0.14400  0.28150  0.19320  Biso   1.000  H
  H163     1.0000 0.64400  0.21850  0.80680  Biso   1.000  H
  H164     1.0000 0.85600  0.28150  0.30680  Biso   1.000  H
  H165     1.0000 0.64400  0.78150  0.30680  Biso   1.000  H
  H166     1.0000 0.85600  0.71850  0.80680  Biso   1.000  H
  H167     1.0000 0.35600  0.78150  0.19320  Biso   1.000  H
  H168     1.0000 0.14400  0.71850  0.69320  Biso   1.000  H
  H169     1.0000 0.34280  0.24640  0.59810  Biso   1.000  H
  H170     1.0000 0.15720  0.25360  0.09810  Biso   1.000  H
  H171     1.0000 0.65720  0.24640  0.90190  Biso   1.000  H
  H172     1.0000 0.84280  0.25360  0.40190  Biso   1.000  H
  H173     1.0000 0.65720  0.75360  0.40190  Biso   1.000  H
  H174     1.0000 0.84280  0.74640  0.90190  Biso   1.000  H
  H175     1.0000 0.34280  0.75360  0.09810  Biso   1.000  H
  H176     1.0000 0.15720  0.74640  0.59810  Biso   1.000  H
  H177     1.0000 0.32500  0.19250  0.61840  Biso   1.000  H
  H178     1.0000 0.17500  0.30750  0.11840  Biso   1.000  H
  H179     1.0000 0.67500  0.19250  0.88160  Biso   1.000  H
  H180     1.0000 0.82500  0.30750  0.38160  Biso   1.000  H
  H181     1.0000 0.67500  0.80750  0.38160  Biso   1.000  H
  H182     1.0000 0.82500  0.69250  0.88160  Biso   1.000  H
  H183     1.0000 0.32500  0.80750  0.11840  Biso   1.000  H
  H184     1.0000 0.17500  0.69250  0.61840  Biso   1.000  H
