data_image0
_cell_length_a       16.429
_cell_length_b       8.0925
_cell_length_c       22.732
_cell_angle_alpha    90
_cell_angle_beta     91.292
_cell_angle_gamma    90

_symmetry_space_group_name_H-M    "P 1"
_symmetry_int_tables_number       1

loop_
  _symmetry_equiv_pos_as_xyz
  'x, y, z'

loop_
  _atom_site_label
  _atom_site_occupancy
  _atom_site_fract_x
  _atom_site_fract_y
  _atom_site_fract_z
  _atom_site_thermal_displace_type
  _atom_site_B_iso_or_equiv
  _atom_site_type_symbol
  Cu1      1.0000 0.76133  0.54825  0.06909  Biso   1.000  Cu
  Cu2      1.0000 0.73867  0.04825  0.43091  Biso   1.000  Cu
  Cu3      1.0000 0.23867  0.45175  0.93091  Biso   1.000  Cu
  Cu4      1.0000 0.26133  0.95175  0.56909  Biso   1.000  Cu
  Cu5      1.0000 0.58180  0.55209  0.12471  Biso   1.000  Cu
  Cu6      1.0000 0.91820  0.05209  0.37529  Biso   1.000  Cu
  Cu7      1.0000 0.41820  0.44791  0.87529  Biso   1.000  Cu
  Cu8      1.0000 0.08180  0.94791  0.62471  Biso   1.000  Cu
  Cu9      1.0000 0.71332  0.27070  0.17531  Biso   1.000  Cu
  Cu10     1.0000 0.78668  0.77070  0.32469  Biso   1.000  Cu
  Cu11     1.0000 0.28668  0.72930  0.82469  Biso   1.000  Cu
  Cu12     1.0000 0.21332  0.22930  0.67531  Biso   1.000  Cu
  C1       1.0000 0.92650  0.45980  0.12290  Biso   1.000  C
  C2       1.0000 0.57350  0.95980  0.37710  Biso   1.000  C
  C3       1.0000 0.07350  0.54020  0.87710  Biso   1.000  C
  C4       1.0000 0.42650  0.04020  0.62290  Biso   1.000  C
  H1       1.0000 0.95550  0.53970  0.10270  Biso   1.000  H
  H2       1.0000 0.54450  0.03970  0.39730  Biso   1.000  H
  H3       1.0000 0.04450  0.46030  0.89730  Biso   1.000  H
  H4       1.0000 0.45550  0.96030  0.60270  Biso   1.000  H
  C5       1.0000 0.57850  0.22970  0.26020  Biso   1.000  C
  C6       1.0000 0.92150  0.72970  0.23980  Biso   1.000  C
  C7       1.0000 0.42150  0.77030  0.73980  Biso   1.000  C
  C8       1.0000 0.07850  0.27030  0.76020  Biso   1.000  C
  H5       1.0000 0.60220  0.14150  0.28040  Biso   1.000  H
  H6       1.0000 0.89780  0.64150  0.21960  Biso   1.000  H
  H7       1.0000 0.39780  0.85850  0.71960  Biso   1.000  H
  H8       1.0000 0.10220  0.35850  0.78040  Biso   1.000  H
  C9       1.0000 0.89640  0.25730  0.17920  Biso   1.000  C
  C10      1.0000 0.60360  0.75730  0.32080  Biso   1.000  C
  C11      1.0000 0.10360  0.74270  0.82080  Biso   1.000  C
  C12      1.0000 0.39640  0.24270  0.67920  Biso   1.000  C
  H9       1.0000 0.89990  0.16990  0.20570  Biso   1.000  H
  H10      1.0000 0.60010  0.66990  0.29430  Biso   1.000  H
  H11      1.0000 0.10010  0.83010  0.79430  Biso   1.000  H
  H12      1.0000 0.39990  0.33010  0.70570  Biso   1.000  H
  C13      1.0000 0.50760  0.30800  0.27590  Biso   1.000  C
  C14      1.0000 0.99240  0.80800  0.22410  Biso   1.000  C
  C15      1.0000 0.49240  0.69200  0.72410  Biso   1.000  C
  C16      1.0000 0.00760  0.19200  0.77590  Biso   1.000  C
  H13      1.0000 0.47490  0.28470  0.30770  Biso   1.000  H
  H14      1.0000 0.02510  0.78470  0.19230  Biso   1.000  H
  H15      1.0000 0.52510  0.71530  0.69230  Biso   1.000  H
  H16      1.0000 0.97490  0.21530  0.80770  Biso   1.000  H
  C17      1.0000 0.96110  0.34610  0.16100  Biso   1.000  C
  C18      1.0000 0.53890  0.84610  0.33900  Biso   1.000  C
  C19      1.0000 0.03890  0.65390  0.83900  Biso   1.000  C
  C20      1.0000 0.46110  0.15390  0.66100  Biso   1.000  C
  H17      1.0000 0.01570  0.33330  0.17170  Biso   1.000  H
  H18      1.0000 0.48430  0.83330  0.32830  Biso   1.000  H
  H19      1.0000 0.98430  0.66670  0.82830  Biso   1.000  H
  H20      1.0000 0.51570  0.16670  0.67170  Biso   1.000  H
  C21      1.0000 0.49610  0.43020  0.23310  Biso   1.000  C
  C22      1.0000 0.00390  0.93020  0.26690  Biso   1.000  C
  C23      1.0000 0.50390  0.56980  0.76690  Biso   1.000  C
  C24      1.0000 0.99610  0.06980  0.73310  Biso   1.000  C
  H21      1.0000 0.45320  0.50510  0.23150  Biso   1.000  H
  H22      1.0000 0.04680  0.00510  0.26850  Biso   1.000  H
  H23      1.0000 0.54680  0.49490  0.76850  Biso   1.000  H
  H24      1.0000 0.95320  0.99490  0.73150  Biso   1.000  H
  N1       1.0000 0.55660  0.42290  0.19470  Biso   1.000  N
  N2       1.0000 0.94340  0.92290  0.30530  Biso   1.000  N
  N3       1.0000 0.44340  0.57710  0.80530  Biso   1.000  N
  N4       1.0000 0.05660  0.07710  0.69470  Biso   1.000  N
  N5       1.0000 0.84560  0.43980  0.11870  Biso   1.000  N
  N6       1.0000 0.65440  0.93980  0.38130  Biso   1.000  N
  N7       1.0000 0.15440  0.56020  0.88130  Biso   1.000  N
  N8       1.0000 0.34560  0.06020  0.61870  Biso   1.000  N
  N9       1.0000 0.82570  0.31260  0.15380  Biso   1.000  N
  N10      1.0000 0.67430  0.81260  0.34620  Biso   1.000  N
  N11      1.0000 0.17430  0.68740  0.84620  Biso   1.000  N
  N12      1.0000 0.32570  0.18740  0.65380  Biso   1.000  N
  N13      1.0000 0.60780  0.29790  0.21230  Biso   1.000  N
  N14      1.0000 0.89220  0.79790  0.28770  Biso   1.000  N
  N15      1.0000 0.39220  0.70210  0.78770  Biso   1.000  N
  N16      1.0000 0.10780  0.20210  0.71230  Biso   1.000  N
  N17      1.0000 0.67120  0.65630  0.02570  Biso   1.000  N
  N18      1.0000 0.82880  0.15630  0.47430  Biso   1.000  N
  N19      1.0000 0.32880  0.34370  0.97430  Biso   1.000  N
  N20      1.0000 0.17120  0.84370  0.52570  Biso   1.000  N
  N21      1.0000 0.59540  0.65390  0.04800  Biso   1.000  N
  N22      1.0000 0.90460  0.15390  0.45200  Biso   1.000  N
  N23      1.0000 0.40460  0.34610  0.95200  Biso   1.000  N
  N24      1.0000 0.09540  0.84610  0.54800  Biso   1.000  N
  C25      1.0000 0.54550  0.72910  0.00850  Biso   1.000  C
  C26      1.0000 0.95450  0.22910  0.49150  Biso   1.000  C
  C27      1.0000 0.45450  0.27090  0.99150  Biso   1.000  C
  C28      1.0000 0.04550  0.77090  0.50850  Biso   1.000  C
  H25      1.0000 0.49000  0.74670  0.01300  Biso   1.000  H
  H26      1.0000 0.01000  0.24670  0.48700  Biso   1.000  H
  H27      1.0000 0.51000  0.25330  0.98700  Biso   1.000  H
  H28      1.0000 0.99000  0.75330  0.51300  Biso   1.000  H
  C29      1.0000 0.66710  0.73180  0.97380  Biso   1.000  C
  C30      1.0000 0.83290  0.23180  0.52620  Biso   1.000  C
  C31      1.0000 0.33290  0.26820  0.02620  Biso   1.000  C
  C32      1.0000 0.16710  0.76820  0.47380  Biso   1.000  C
  H29      1.0000 0.71140  0.75160  0.95000  Biso   1.000  H
  H30      1.0000 0.78860  0.25160  0.55000  Biso   1.000  H
  H31      1.0000 0.28860  0.24840  0.05000  Biso   1.000  H
  H32      1.0000 0.21140  0.74840  0.45000  Biso   1.000  H
  C33      1.0000 0.58920  0.77600  0.96030  Biso   1.000  C
  C34      1.0000 0.91080  0.27600  0.53970  Biso   1.000  C
  C35      1.0000 0.41080  0.22400  0.03970  Biso   1.000  C
  C36      1.0000 0.08920  0.72400  0.46030  Biso   1.000  C
  H33      1.0000 0.56970  0.82660  0.92610  Biso   1.000  H
  H34      1.0000 0.93030  0.32660  0.57390  Biso   1.000  H
  H35      1.0000 0.43030  0.17340  0.07390  Biso   1.000  H
  H36      1.0000 0.06970  0.67340  0.42610  Biso   1.000  H
  N25      1.0000 0.84430  0.71840  0.04010  Biso   1.000  N
  N26      1.0000 0.65570  0.21840  0.45990  Biso   1.000  N
  N27      1.0000 0.15570  0.28160  0.95990  Biso   1.000  N
  N28      1.0000 0.34430  0.78160  0.54010  Biso   1.000  N
  C37      1.0000 0.89610  0.68140  0.99840  Biso   1.000  C
  C38      1.0000 0.60390  0.18140  0.50160  Biso   1.000  C
  C39      1.0000 0.10390  0.31860  0.00160  Biso   1.000  C
  C40      1.0000 0.39610  0.81860  0.49840  Biso   1.000  C
  H37      1.0000 0.89100  0.58010  0.97940  Biso   1.000  H
  H38      1.0000 0.60900  0.08010  0.52060  Biso   1.000  H
  H39      1.0000 0.10900  0.41990  0.02060  Biso   1.000  H
  H40      1.0000 0.39100  0.91990  0.47940  Biso   1.000  H
  C41      1.0000 0.91210  0.97670  0.04990  Biso   1.000  C
  C42      1.0000 0.58790  0.47670  0.45010  Biso   1.000  C
  C43      1.0000 0.08790  0.02330  0.95010  Biso   1.000  C
  C44      1.0000 0.41210  0.52330  0.54990  Biso   1.000  C
  H41      1.0000 0.91470  0.07900  0.06840  Biso   1.000  H
  H42      1.0000 0.58530  0.57900  0.43160  Biso   1.000  H
  H43      1.0000 0.08530  0.92100  0.93160  Biso   1.000  H
  H44      1.0000 0.41470  0.42100  0.56840  Biso   1.000  H
  C45      1.0000 0.95720  0.78670  0.98220  Biso   1.000  C
  C46      1.0000 0.54280  0.28670  0.51780  Biso   1.000  C
  C47      1.0000 0.04280  0.21330  0.01780  Biso   1.000  C
  C48      1.0000 0.45720  0.71330  0.48220  Biso   1.000  C
  H45      1.0000 0.99290  0.75450  0.95320  Biso   1.000  H
  H46      1.0000 0.50710  0.25450  0.54680  Biso   1.000  H
  H47      1.0000 0.00710  0.24550  0.04680  Biso   1.000  H
  H48      1.0000 0.49290  0.74550  0.45320  Biso   1.000  H
  C49      1.0000 0.85210  0.86450  0.06550  Biso   1.000  C
  C50      1.0000 0.64790  0.36450  0.43450  Biso   1.000  C
  C51      1.0000 0.14790  0.13550  0.93450  Biso   1.000  C
  C52      1.0000 0.35210  0.63550  0.56550  Biso   1.000  C
  H49      1.0000 0.81630  0.89330  0.09490  Biso   1.000  H
  H50      1.0000 0.68370  0.39330  0.40510  Biso   1.000  H
  H51      1.0000 0.18370  0.10670  0.90510  Biso   1.000  H
  H52      1.0000 0.31630  0.60670  0.59490  Biso   1.000  H
  C53      1.0000 0.96620  0.94020  0.00840  Biso   1.000  C
  C54      1.0000 0.53380  0.44020  0.49160  Biso   1.000  C
  C55      1.0000 0.03380  0.05980  0.99160  Biso   1.000  C
  C56      1.0000 0.46620  0.55980  0.50840  Biso   1.000  C
  O1       1.0000 0.67590  0.40900  0.10804  Biso   1.000  O
  O2       1.0000 0.82410  0.90900  0.39196  Biso   1.000  O
  O3       1.0000 0.32410  0.59100  0.89196  Biso   1.000  O
  O4       1.0000 0.17590  0.09100  0.60804  Biso   1.000  O
  N29      1.0000 0.48790  0.70510  0.14160  Biso   1.000  N
  N30      1.0000 0.01210  0.20510  0.35840  Biso   1.000  N
  N31      1.0000 0.51210  0.29490  0.85840  Biso   1.000  N
  N32      1.0000 0.98790  0.79490  0.64160  Biso   1.000  N
  N33      1.0000 0.16980  0.28840  0.17440  Biso   1.000  N
  N34      1.0000 0.33020  0.78840  0.32560  Biso   1.000  N
  N35      1.0000 0.83020  0.71160  0.82560  Biso   1.000  N
  N36      1.0000 0.66980  0.21160  0.67440  Biso   1.000  N
  C57      1.0000 0.43740  0.95690  0.18160  Biso   1.000  C
  C58      1.0000 0.06260  0.45690  0.31840  Biso   1.000  C
  C59      1.0000 0.56260  0.04310  0.81840  Biso   1.000  C
  C60      1.0000 0.93740  0.54310  0.68160  Biso   1.000  C
  H53      1.0000 0.44960  0.05530  0.20100  Biso   1.000  H
  H54      1.0000 0.05040  0.55530  0.29900  Biso   1.000  H
  H55      1.0000 0.55040  0.94470  0.79900  Biso   1.000  H
  H56      1.0000 0.94960  0.44470  0.70100  Biso   1.000  H
  C61      1.0000 0.35740  0.91970  0.16520  Biso   1.000  C
  C62      1.0000 0.14260  0.41970  0.33480  Biso   1.000  C
  C63      1.0000 0.64260  0.08030  0.83480  Biso   1.000  C
  C64      1.0000 0.85740  0.58030  0.66520  Biso   1.000  C
  C65      1.0000 0.29130  0.04250  0.17230  Biso   1.000  C
  C66      1.0000 0.20870  0.54250  0.32770  Biso   1.000  C
  C67      1.0000 0.70870  0.95750  0.82770  Biso   1.000  C
  C68      1.0000 0.79130  0.45750  0.67230  Biso   1.000  C
  C69      1.0000 0.41100  0.66900  0.12690  Biso   1.000  C
  C70      1.0000 0.08900  0.16900  0.37310  Biso   1.000  C
  C71      1.0000 0.58900  0.33100  0.87310  Biso   1.000  C
  C72      1.0000 0.91100  0.83100  0.62690  Biso   1.000  C
  H57      1.0000 0.40120  0.57010  0.10710  Biso   1.000  H
  H58      1.0000 0.09880  0.07010  0.39290  Biso   1.000  H
  H59      1.0000 0.59880  0.42990  0.89290  Biso   1.000  H
  H60      1.0000 0.90120  0.92990  0.60710  Biso   1.000  H
  C73      1.0000 0.49760  0.84760  0.16890  Biso   1.000  C
  C74      1.0000 0.00240  0.34760  0.33110  Biso   1.000  C
  C75      1.0000 0.50240  0.15240  0.83110  Biso   1.000  C
  C76      1.0000 0.99760  0.65240  0.66890  Biso   1.000  C
  H61      1.0000 0.55030  0.87610  0.18060  Biso   1.000  H
  H62      1.0000 0.94970  0.37610  0.31940  Biso   1.000  H
  H63      1.0000 0.44970  0.12390  0.81940  Biso   1.000  H
  H64      1.0000 0.05030  0.62390  0.68060  Biso   1.000  H
  C77      1.0000 0.34540  0.76630  0.13860  Biso   1.000  C
  C78      1.0000 0.15460  0.26630  0.36140  Biso   1.000  C
  C79      1.0000 0.65460  0.23370  0.86140  Biso   1.000  C
  C80      1.0000 0.84540  0.73370  0.63860  Biso   1.000  C
  H65      1.0000 0.29310  0.73040  0.12880  Biso   1.000  H
  H66      1.0000 0.20690  0.23040  0.37120  Biso   1.000  H
  H67      1.0000 0.70690  0.26960  0.87120  Biso   1.000  H
  H68      1.0000 0.79310  0.76960  0.62880  Biso   1.000  H
  C81      1.0000 0.21020  0.00470  0.15950  Biso   1.000  C
  C82      1.0000 0.28980  0.50470  0.34050  Biso   1.000  C
  C83      1.0000 0.78980  0.99530  0.84050  Biso   1.000  C
  C84      1.0000 0.71020  0.49530  0.65950  Biso   1.000  C
  H69      1.0000 0.19370  0.89860  0.14900  Biso   1.000  H
  H70      1.0000 0.30630  0.39860  0.35100  Biso   1.000  H
  H71      1.0000 0.80630  0.10140  0.85100  Biso   1.000  H
  H72      1.0000 0.69370  0.60140  0.64900  Biso   1.000  H
  C85      1.0000 0.30780  0.20550  0.18700  Biso   1.000  C
  C86      1.0000 0.19220  0.70550  0.31300  Biso   1.000  C
  C87      1.0000 0.69220  0.79450  0.81300  Biso   1.000  C
  C88      1.0000 0.80780  0.29450  0.68700  Biso   1.000  C
  H73      1.0000 0.36090  0.23780  0.19620  Biso   1.000  H
  H74      1.0000 0.13910  0.73780  0.30380  Biso   1.000  H
  H75      1.0000 0.63910  0.76220  0.80380  Biso   1.000  H
  H76      1.0000 0.86090  0.26220  0.69620  Biso   1.000  H
  C89      1.0000 0.15530  0.13460  0.16320  Biso   1.000  C
  C90      1.0000 0.34470  0.63460  0.33680  Biso   1.000  C
  C91      1.0000 0.84470  0.86540  0.83680  Biso   1.000  C
  C92      1.0000 0.65530  0.36540  0.66320  Biso   1.000  C
  H77      1.0000 0.10080  0.10720  0.15680  Biso   1.000  H
  H78      1.0000 0.39920  0.60720  0.34320  Biso   1.000  H
  H79      1.0000 0.89920  0.89280  0.84320  Biso   1.000  H
  H80      1.0000 0.60080  0.39280  0.65680  Biso   1.000  H
  C93      1.0000 0.24500  0.32110  0.18810  Biso   1.000  C
  C94      1.0000 0.25500  0.82110  0.31190  Biso   1.000  C
  C95      1.0000 0.75500  0.67890  0.81190  Biso   1.000  C
  C96      1.0000 0.74500  0.17890  0.68810  Biso   1.000  C
  H81      1.0000 0.25800  0.42860  0.19940  Biso   1.000  H
  H82      1.0000 0.24200  0.92860  0.30060  Biso   1.000  H
  H83      1.0000 0.74200  0.57140  0.80060  Biso   1.000  H
  H84      1.0000 0.75800  0.07140  0.69940  Biso   1.000  H
  O5       1.0000 0.78710  0.35510  0.98950  Biso   1.000  O
  O6       1.0000 0.71290  0.85510  0.51050  Biso   1.000  O
  O7       1.0000 0.21290  0.64490  0.01050  Biso   1.000  O
  O8       1.0000 0.28710  0.14490  0.48950  Biso   1.000  O
  C97      1.0000 0.74560  0.22790  0.99040  Biso   1.000  C
  C98      1.0000 0.75440  0.72790  0.50960  Biso   1.000  C
  C99      1.0000 0.25440  0.77210  0.00960  Biso   1.000  C
  C100     1.0000 0.24560  0.27210  0.49040  Biso   1.000  C
  H85      1.0000 0.76530  0.13910  0.96900  Biso   1.000  H
  H86      1.0000 0.73470  0.63910  0.53100  Biso   1.000  H
  H87      1.0000 0.23470  0.86090  0.03100  Biso   1.000  H
  H88      1.0000 0.26530  0.36090  0.46900  Biso   1.000  H
  O9       1.0000 0.67980  0.20300  0.01660  Biso   1.000  O
  O10      1.0000 0.82020  0.70300  0.48340  Biso   1.000  O
  O11      1.0000 0.32020  0.79700  0.98340  Biso   1.000  O
  O12      1.0000 0.17980  0.29700  0.51660  Biso   1.000  O
  O13      1.0000 0.74530  0.65330  0.25170  Biso   1.000  O
  O14      1.0000 0.75470  0.15330  0.24830  Biso   1.000  O
  O15      1.0000 0.25470  0.34670  0.74830  Biso   1.000  O
  O16      1.0000 0.24530  0.84670  0.75170  Biso   1.000  O
  C101     1.0000 0.72780  0.74990  0.20950  Biso   1.000  C
  C102     1.0000 0.77220  0.24990  0.29050  Biso   1.000  C
  C103     1.0000 0.27220  0.25010  0.79050  Biso   1.000  C
  C104     1.0000 0.22780  0.75010  0.70950  Biso   1.000  C
  H89      1.0000 0.74630  0.85780  0.21420  Biso   1.000  H
  H90      1.0000 0.75370  0.35780  0.28580  Biso   1.000  H
  H91      1.0000 0.25370  0.14220  0.78580  Biso   1.000  H
  H92      1.0000 0.24630  0.64220  0.71420  Biso   1.000  H
  O17      1.0000 0.69010  0.72260  0.16320  Biso   1.000  O
  O18      1.0000 0.80990  0.22260  0.33680  Biso   1.000  O
  O19      1.0000 0.30990  0.27740  0.83680  Biso   1.000  O
  O20      1.0000 0.19010  0.77740  0.66320  Biso   1.000  O
  O21      1.0000 0.67820  0.03730  0.12070  Biso   1.000  O
  O22      1.0000 0.82180  0.53730  0.37930  Biso   1.000  O
  O23      1.0000 0.32180  0.96270  0.87930  Biso   1.000  O
  O24      1.0000 0.17820  0.46270  0.62070  Biso   1.000  O
  O25      1.0000 0.87350  0.36960  0.88260  Biso   1.000  O
  O26      1.0000 0.62650  0.86960  0.61740  Biso   1.000  O
  O27      1.0000 0.12650  0.63040  0.11740  Biso   1.000  O
  O28      1.0000 0.37350  0.13040  0.38260  Biso   1.000  O
  H93      1.0000 0.66110  0.34100  0.08020  Biso   1.000  H
  H94      1.0000 0.83890  0.84100  0.41980  Biso   1.000  H
  H95      1.0000 0.33890  0.65900  0.91980  Biso   1.000  H
  H96      1.0000 0.16110  0.15900  0.58020  Biso   1.000  H
  H97      1.0000 0.67400  0.05600  0.08240  Biso   1.000  H
  H98      1.0000 0.82600  0.55600  0.41760  Biso   1.000  H
  H99      1.0000 0.32600  0.94400  0.91760  Biso   1.000  H
  H100     1.0000 0.17400  0.44400  0.58240  Biso   1.000  H
  H101     1.0000 0.69000  0.93100  0.12300  Biso   1.000  H
  H102     1.0000 0.81000  0.43100  0.37700  Biso   1.000  H
  H103     1.0000 0.31000  0.06900  0.87700  Biso   1.000  H
  H104     1.0000 0.19000  0.56900  0.62300  Biso   1.000  H
  H105     1.0000 0.83500  0.35500  0.91000  Biso   1.000  H
  H106     1.0000 0.66500  0.85500  0.59000  Biso   1.000  H
  H107     1.0000 0.16500  0.64500  0.09000  Biso   1.000  H
  H108     1.0000 0.33500  0.14500  0.41000  Biso   1.000  H
  H109     1.0000 0.91500  0.31500  0.89900  Biso   1.000  H
  H110     1.0000 0.58500  0.81500  0.60100  Biso   1.000  H
  H111     1.0000 0.08500  0.68500  0.10100  Biso   1.000  H
  H112     1.0000 0.41500  0.18500  0.39900  Biso   1.000  H
