data_image0
_cell_length_a       14.688
_cell_length_b       14.688
_cell_length_c       24.331
_cell_angle_alpha    90
_cell_angle_beta     90
_cell_angle_gamma    90

_symmetry_space_group_name_H-M    "P 1"
_symmetry_int_tables_number       1

loop_
  _symmetry_equiv_pos_as_xyz
  'x, y, z'

loop_
  _atom_site_label
  _atom_site_occupancy
  _atom_site_fract_x
  _atom_site_fract_y
  _atom_site_fract_z
  _atom_site_thermal_displace_type
  _atom_site_B_iso_or_equiv
  _atom_site_type_symbol
  Cu1      1.0000 0.04537  0.01966  0.55097  Biso   1.000  Cu
  Cu2      1.0000 0.95463  0.48034  0.55097  Biso   1.000  Cu
  Cu3      1.0000 0.73034  0.29537  0.80097  Biso   1.000  Cu
  Cu4      1.0000 0.26966  0.20463  0.80097  Biso   1.000  Cu
  Cu5      1.0000 0.54537  0.51966  0.05097  Biso   1.000  Cu
  Cu6      1.0000 0.45463  0.98034  0.05097  Biso   1.000  Cu
  Cu7      1.0000 0.23034  0.79537  0.30097  Biso   1.000  Cu
  Cu8      1.0000 0.76966  0.70463  0.30097  Biso   1.000  Cu
  Cu9      1.0000 0.95463  0.98034  0.44903  Biso   1.000  Cu
  Cu10     1.0000 0.04537  0.51966  0.44903  Biso   1.000  Cu
  Cu11     1.0000 0.76966  0.20463  0.69903  Biso   1.000  Cu
  Cu12     1.0000 0.23034  0.29537  0.69903  Biso   1.000  Cu
  Cu13     1.0000 0.45463  0.48034  0.94903  Biso   1.000  Cu
  Cu14     1.0000 0.54537  0.01966  0.94903  Biso   1.000  Cu
  Cu15     1.0000 0.26966  0.70463  0.19903  Biso   1.000  Cu
  Cu16     1.0000 0.73034  0.79537  0.19903  Biso   1.000  Cu
  N1       1.0000 0.30820  0.90890  0.50750  Biso   1.000  N
  N2       1.0000 0.69180  0.59110  0.50750  Biso   1.000  N
  N3       1.0000 0.84110  0.55820  0.75750  Biso   1.000  N
  N4       1.0000 0.15890  0.94180  0.75750  Biso   1.000  N
  N5       1.0000 0.80820  0.40890  0.00750  Biso   1.000  N
  N6       1.0000 0.19180  0.09110  0.00750  Biso   1.000  N
  N7       1.0000 0.34110  0.05820  0.25750  Biso   1.000  N
  N8       1.0000 0.65890  0.44180  0.25750  Biso   1.000  N
  N9       1.0000 0.69180  0.09110  0.49250  Biso   1.000  N
  N10      1.0000 0.30820  0.40890  0.49250  Biso   1.000  N
  N11      1.0000 0.65890  0.94180  0.74250  Biso   1.000  N
  N12      1.0000 0.34110  0.55820  0.74250  Biso   1.000  N
  N13      1.0000 0.19180  0.59110  0.99250  Biso   1.000  N
  N14      1.0000 0.80820  0.90890  0.99250  Biso   1.000  N
  N15      1.0000 0.15890  0.44180  0.24250  Biso   1.000  N
  N16      1.0000 0.84110  0.05820  0.24250  Biso   1.000  N
  C1       1.0000 0.23800  0.94450  0.53460  Biso   1.000  C
  C2       1.0000 0.76200  0.55550  0.53460  Biso   1.000  C
  C3       1.0000 0.80550  0.48800  0.78460  Biso   1.000  C
  C4       1.0000 0.19450  0.01200  0.78460  Biso   1.000  C
  C5       1.0000 0.73800  0.44450  0.03460  Biso   1.000  C
  C6       1.0000 0.26200  0.05550  0.03460  Biso   1.000  C
  C7       1.0000 0.30550  0.98800  0.28460  Biso   1.000  C
  C8       1.0000 0.69450  0.51200  0.28460  Biso   1.000  C
  C9       1.0000 0.76200  0.05550  0.46540  Biso   1.000  C
  C10      1.0000 0.23800  0.44450  0.46540  Biso   1.000  C
  C11      1.0000 0.69450  0.01200  0.71540  Biso   1.000  C
  C12      1.0000 0.30550  0.48800  0.71540  Biso   1.000  C
  C13      1.0000 0.26200  0.55550  0.96540  Biso   1.000  C
  C14      1.0000 0.73800  0.94450  0.96540  Biso   1.000  C
  C15      1.0000 0.19450  0.51200  0.21540  Biso   1.000  C
  C16      1.0000 0.80550  0.98800  0.21540  Biso   1.000  C
  H1       1.0000 0.24900  0.96450  0.57030  Biso   1.000  H
  H2       1.0000 0.75100  0.53550  0.57030  Biso   1.000  H
  H3       1.0000 0.78550  0.49900  0.82030  Biso   1.000  H
  H4       1.0000 0.21450  0.00100  0.82030  Biso   1.000  H
  H5       1.0000 0.74900  0.46450  0.07030  Biso   1.000  H
  H6       1.0000 0.25100  0.03550  0.07030  Biso   1.000  H
  H7       1.0000 0.28550  0.99900  0.32030  Biso   1.000  H
  H8       1.0000 0.71450  0.50100  0.32030  Biso   1.000  H
  H9       1.0000 0.75100  0.03550  0.42970  Biso   1.000  H
  H10      1.0000 0.24900  0.46450  0.42970  Biso   1.000  H
  H11      1.0000 0.71450  0.00100  0.67970  Biso   1.000  H
  H12      1.0000 0.28550  0.49900  0.67970  Biso   1.000  H
  H13      1.0000 0.25100  0.53550  0.92970  Biso   1.000  H
  H14      1.0000 0.74900  0.96450  0.92970  Biso   1.000  H
  H15      1.0000 0.21450  0.50100  0.17970  Biso   1.000  H
  H16      1.0000 0.78550  0.99900  0.17970  Biso   1.000  H
  N17      1.0000 0.15200  0.95440  0.51540  Biso   1.000  N
  N18      1.0000 0.84800  0.54560  0.51540  Biso   1.000  N
  N19      1.0000 0.79560  0.40200  0.76540  Biso   1.000  N
  N20      1.0000 0.20440  0.09800  0.76540  Biso   1.000  N
  N21      1.0000 0.65200  0.45440  0.01540  Biso   1.000  N
  N22      1.0000 0.34800  0.04560  0.01540  Biso   1.000  N
  N23      1.0000 0.29560  0.90200  0.26540  Biso   1.000  N
  N24      1.0000 0.70440  0.59800  0.26540  Biso   1.000  N
  N25      1.0000 0.84800  0.04560  0.48460  Biso   1.000  N
  N26      1.0000 0.15200  0.45440  0.48460  Biso   1.000  N
  N27      1.0000 0.70440  0.09800  0.73460  Biso   1.000  N
  N28      1.0000 0.29560  0.40200  0.73460  Biso   1.000  N
  N29      1.0000 0.34800  0.54560  0.98460  Biso   1.000  N
  N30      1.0000 0.65200  0.95440  0.98460  Biso   1.000  N
  N31      1.0000 0.20440  0.59800  0.23460  Biso   1.000  N
  N32      1.0000 0.79560  0.90200  0.23460  Biso   1.000  N
  C17      1.0000 0.14500  0.92250  0.46250  Biso   1.000  C
  C18      1.0000 0.85500  0.57750  0.46250  Biso   1.000  C
  C19      1.0000 0.82750  0.39500  0.71250  Biso   1.000  C
  C20      1.0000 0.17250  0.10500  0.71250  Biso   1.000  C
  C21      1.0000 0.64500  0.42250  0.96250  Biso   1.000  C
  C22      1.0000 0.35500  0.07750  0.96250  Biso   1.000  C
  C23      1.0000 0.32750  0.89500  0.21250  Biso   1.000  C
  C24      1.0000 0.67250  0.60500  0.21250  Biso   1.000  C
  C25      1.0000 0.85500  0.07750  0.53750  Biso   1.000  C
  C26      1.0000 0.14500  0.42250  0.53750  Biso   1.000  C
  C27      1.0000 0.67250  0.10500  0.78750  Biso   1.000  C
  C28      1.0000 0.32750  0.39500  0.78750  Biso   1.000  C
  C29      1.0000 0.35500  0.57750  0.03750  Biso   1.000  C
  C30      1.0000 0.64500  0.92250  0.03750  Biso   1.000  C
  C31      1.0000 0.17250  0.60500  0.28750  Biso   1.000  C
  C32      1.0000 0.82750  0.89500  0.28750  Biso   1.000  C
  C33      1.0000 0.21390  0.88180  0.42810  Biso   1.000  C
  C34      1.0000 0.78610  0.61820  0.42810  Biso   1.000  C
  C35      1.0000 0.86820  0.46390  0.67810  Biso   1.000  C
  C36      1.0000 0.13180  0.03610  0.67810  Biso   1.000  C
  C37      1.0000 0.71390  0.38180  0.92810  Biso   1.000  C
  C38      1.0000 0.28610  0.11820  0.92810  Biso   1.000  C
  C39      1.0000 0.36820  0.96390  0.17810  Biso   1.000  C
  C40      1.0000 0.63180  0.53610  0.17810  Biso   1.000  C
  C41      1.0000 0.78610  0.11820  0.57190  Biso   1.000  C
  C42      1.0000 0.21390  0.38180  0.57190  Biso   1.000  C
  C43      1.0000 0.63180  0.03610  0.82190  Biso   1.000  C
  C44      1.0000 0.36820  0.46390  0.82190  Biso   1.000  C
  C45      1.0000 0.28610  0.61820  0.07190  Biso   1.000  C
  C46      1.0000 0.71390  0.88180  0.07190  Biso   1.000  C
  C47      1.0000 0.13180  0.53610  0.32190  Biso   1.000  C
  C48      1.0000 0.86820  0.96390  0.32190  Biso   1.000  C
  C49      1.0000 0.29960  0.87390  0.45190  Biso   1.000  C
  C50      1.0000 0.70040  0.62610  0.45190  Biso   1.000  C
  C51      1.0000 0.87610  0.54960  0.70190  Biso   1.000  C
  C52      1.0000 0.12390  0.95040  0.70190  Biso   1.000  C
  C53      1.0000 0.79960  0.37390  0.95190  Biso   1.000  C
  C54      1.0000 0.20040  0.12610  0.95190  Biso   1.000  C
  C55      1.0000 0.37610  0.04960  0.20190  Biso   1.000  C
  C56      1.0000 0.62390  0.45040  0.20190  Biso   1.000  C
  C57      1.0000 0.70040  0.12610  0.54810  Biso   1.000  C
  C58      1.0000 0.29960  0.37390  0.54810  Biso   1.000  C
  C59      1.0000 0.62390  0.95040  0.79810  Biso   1.000  C
  C60      1.0000 0.37610  0.54960  0.79810  Biso   1.000  C
  C61      1.0000 0.20040  0.62610  0.04810  Biso   1.000  C
  C62      1.0000 0.79960  0.87390  0.04810  Biso   1.000  C
  C63      1.0000 0.12390  0.45040  0.29810  Biso   1.000  C
  C64      1.0000 0.87610  0.04960  0.29810  Biso   1.000  C
  N33      1.0000 0.37230  0.84210  0.42450  Biso   1.000  N
  N34      1.0000 0.62770  0.65790  0.42450  Biso   1.000  N
  N35      1.0000 0.90790  0.62230  0.67450  Biso   1.000  N
  N36      1.0000 0.09210  0.87770  0.67450  Biso   1.000  N
  N37      1.0000 0.87230  0.34210  0.92450  Biso   1.000  N
  N38      1.0000 0.12770  0.15790  0.92450  Biso   1.000  N
  N39      1.0000 0.40790  0.12230  0.17450  Biso   1.000  N
  N40      1.0000 0.59210  0.37770  0.17450  Biso   1.000  N
  N41      1.0000 0.62770  0.15790  0.57550  Biso   1.000  N
  N42      1.0000 0.37230  0.34210  0.57550  Biso   1.000  N
  N43      1.0000 0.59210  0.87770  0.82550  Biso   1.000  N
  N44      1.0000 0.40790  0.62230  0.82550  Biso   1.000  N
  N45      1.0000 0.12770  0.65790  0.07550  Biso   1.000  N
  N46      1.0000 0.87230  0.84210  0.07550  Biso   1.000  N
  N47      1.0000 0.09210  0.37770  0.32550  Biso   1.000  N
  N48      1.0000 0.90790  0.12230  0.32550  Biso   1.000  N
  H17      1.0000 0.36690  0.82560  0.39070  Biso   1.000  H
  H18      1.0000 0.63310  0.67440  0.39070  Biso   1.000  H
  H19      1.0000 0.92440  0.61690  0.64070  Biso   1.000  H
  H20      1.0000 0.07560  0.88310  0.64070  Biso   1.000  H
  H21      1.0000 0.86690  0.32560  0.89070  Biso   1.000  H
  H22      1.0000 0.13310  0.17440  0.89070  Biso   1.000  H
  H23      1.0000 0.42440  0.11690  0.14070  Biso   1.000  H
  H24      1.0000 0.57560  0.38310  0.14070  Biso   1.000  H
  H25      1.0000 0.63310  0.17440  0.60930  Biso   1.000  H
  H26      1.0000 0.36690  0.32560  0.60930  Biso   1.000  H
  H27      1.0000 0.57560  0.88310  0.85930  Biso   1.000  H
  H28      1.0000 0.42440  0.61690  0.85930  Biso   1.000  H
  H29      1.0000 0.13310  0.67440  0.10930  Biso   1.000  H
  H30      1.0000 0.86690  0.82560  0.10930  Biso   1.000  H
  H31      1.0000 0.07560  0.38310  0.35930  Biso   1.000  H
  H32      1.0000 0.92440  0.11690  0.35930  Biso   1.000  H
  H33      1.0000 0.42420  0.83820  0.44070  Biso   1.000  H
  H34      1.0000 0.57580  0.66180  0.44070  Biso   1.000  H
  H35      1.0000 0.91180  0.67420  0.69070  Biso   1.000  H
  H36      1.0000 0.08820  0.82580  0.69070  Biso   1.000  H
  H37      1.0000 0.92420  0.33820  0.94070  Biso   1.000  H
  H38      1.0000 0.07580  0.16180  0.94070  Biso   1.000  H
  H39      1.0000 0.41180  0.17420  0.19070  Biso   1.000  H
  H40      1.0000 0.58820  0.32580  0.19070  Biso   1.000  H
  H41      1.0000 0.57580  0.16180  0.55930  Biso   1.000  H
  H42      1.0000 0.42420  0.33820  0.55930  Biso   1.000  H
  H43      1.0000 0.58820  0.82580  0.80930  Biso   1.000  H
  H44      1.0000 0.41180  0.67420  0.80930  Biso   1.000  H
  H45      1.0000 0.07580  0.66180  0.05930  Biso   1.000  H
  H46      1.0000 0.92420  0.83820  0.05930  Biso   1.000  H
  H47      1.0000 0.08820  0.32580  0.30930  Biso   1.000  H
  H48      1.0000 0.91180  0.17420  0.30930  Biso   1.000  H
  N49      1.0000 0.18730  0.86060  0.37710  Biso   1.000  N
  N50      1.0000 0.81270  0.63940  0.37710  Biso   1.000  N
  N51      1.0000 0.88940  0.43730  0.62710  Biso   1.000  N
  N52      1.0000 0.11060  0.06270  0.62710  Biso   1.000  N
  N53      1.0000 0.68730  0.36060  0.87710  Biso   1.000  N
  N54      1.0000 0.31270  0.13940  0.87710  Biso   1.000  N
  N55      1.0000 0.38940  0.93730  0.12710  Biso   1.000  N
  N56      1.0000 0.61060  0.56270  0.12710  Biso   1.000  N
  N57      1.0000 0.81270  0.13940  0.62290  Biso   1.000  N
  N58      1.0000 0.18730  0.36060  0.62290  Biso   1.000  N
  N59      1.0000 0.61060  0.06270  0.87290  Biso   1.000  N
  N60      1.0000 0.38940  0.43730  0.87290  Biso   1.000  N
  N61      1.0000 0.31270  0.63940  0.12290  Biso   1.000  N
  N62      1.0000 0.68730  0.86060  0.12290  Biso   1.000  N
  N63      1.0000 0.11060  0.56270  0.37290  Biso   1.000  N
  N64      1.0000 0.88940  0.93730  0.37290  Biso   1.000  N
  C65      1.0000 0.10000  0.88810  0.38150  Biso   1.000  C
  C66      1.0000 0.90000  0.61190  0.38150  Biso   1.000  C
  C67      1.0000 0.86190  0.35000  0.63150  Biso   1.000  C
  C68      1.0000 0.13810  0.15000  0.63150  Biso   1.000  C
  C69      1.0000 0.60000  0.38810  0.88150  Biso   1.000  C
  C70      1.0000 0.40000  0.11190  0.88150  Biso   1.000  C
  C71      1.0000 0.36190  0.85000  0.13150  Biso   1.000  C
  C72      1.0000 0.63810  0.65000  0.13150  Biso   1.000  C
  C73      1.0000 0.90000  0.11190  0.61850  Biso   1.000  C
  C74      1.0000 0.10000  0.38810  0.61850  Biso   1.000  C
  C75      1.0000 0.63810  0.15000  0.86850  Biso   1.000  C
  C76      1.0000 0.36190  0.35000  0.86850  Biso   1.000  C
  C77      1.0000 0.40000  0.61190  0.11850  Biso   1.000  C
  C78      1.0000 0.60000  0.88810  0.11850  Biso   1.000  C
  C79      1.0000 0.13810  0.65000  0.36850  Biso   1.000  C
  C80      1.0000 0.86190  0.85000  0.36850  Biso   1.000  C
  H49      1.0000 0.05990  0.88270  0.35210  Biso   1.000  H
  H50      1.0000 0.94010  0.61730  0.35210  Biso   1.000  H
  H51      1.0000 0.86730  0.30990  0.60210  Biso   1.000  H
  H52      1.0000 0.13270  0.19010  0.60210  Biso   1.000  H
  H53      1.0000 0.55990  0.38270  0.85210  Biso   1.000  H
  H54      1.0000 0.44010  0.11730  0.85210  Biso   1.000  H
  H55      1.0000 0.36730  0.80990  0.10210  Biso   1.000  H
  H56      1.0000 0.63270  0.69010  0.10210  Biso   1.000  H
  H57      1.0000 0.94010  0.11730  0.64790  Biso   1.000  H
  H58      1.0000 0.05990  0.38270  0.64790  Biso   1.000  H
  H59      1.0000 0.63270  0.19010  0.89790  Biso   1.000  H
  H60      1.0000 0.36730  0.30990  0.89790  Biso   1.000  H
  H61      1.0000 0.44010  0.61730  0.14790  Biso   1.000  H
  H62      1.0000 0.55990  0.88270  0.14790  Biso   1.000  H
  H63      1.0000 0.13270  0.69010  0.39790  Biso   1.000  H
  H64      1.0000 0.86730  0.80990  0.39790  Biso   1.000  H
  N65      1.0000 0.07280  0.92370  0.42990  Biso   1.000  N
  N66      1.0000 0.92720  0.57630  0.42990  Biso   1.000  N
  N67      1.0000 0.82630  0.32280  0.67990  Biso   1.000  N
  N68      1.0000 0.17370  0.17720  0.67990  Biso   1.000  N
  N69      1.0000 0.57280  0.42370  0.92990  Biso   1.000  N
  N70      1.0000 0.42720  0.07630  0.92990  Biso   1.000  N
  N71      1.0000 0.32630  0.82280  0.17990  Biso   1.000  N
  N72      1.0000 0.67370  0.67720  0.17990  Biso   1.000  N
  N73      1.0000 0.92720  0.07630  0.57010  Biso   1.000  N
  N74      1.0000 0.07280  0.42370  0.57010  Biso   1.000  N
  N75      1.0000 0.67370  0.17720  0.82010  Biso   1.000  N
  N76      1.0000 0.32630  0.32280  0.82010  Biso   1.000  N
  N77      1.0000 0.42720  0.57630  0.07010  Biso   1.000  N
  N78      1.0000 0.57280  0.92370  0.07010  Biso   1.000  N
  N79      1.0000 0.17370  0.67720  0.32010  Biso   1.000  N
  N80      1.0000 0.82630  0.82280  0.32010  Biso   1.000  N
  O1       1.0000 0.08380  0.12940  0.50933  Biso   1.000  O
  O2       1.0000 0.91620  0.37060  0.50933  Biso   1.000  O
  O3       1.0000 0.62060  0.33380  0.75933  Biso   1.000  O
  O4       1.0000 0.37940  0.16620  0.75933  Biso   1.000  O
  O5       1.0000 0.58380  0.62940  0.00933  Biso   1.000  O
  O6       1.0000 0.41620  0.87060  0.00933  Biso   1.000  O
  O7       1.0000 0.12060  0.83380  0.25933  Biso   1.000  O
  O8       1.0000 0.87940  0.66620  0.25933  Biso   1.000  O
  O9       1.0000 0.91620  0.87060  0.49067  Biso   1.000  O
  O10      1.0000 0.08380  0.62940  0.49067  Biso   1.000  O
  O11      1.0000 0.87940  0.16620  0.74067  Biso   1.000  O
  O12      1.0000 0.12060  0.33380  0.74067  Biso   1.000  O
  O13      1.0000 0.41620  0.37060  0.99067  Biso   1.000  O
  O14      1.0000 0.58380  0.12940  0.99067  Biso   1.000  O
  O15      1.0000 0.37940  0.66620  0.24067  Biso   1.000  O
  O16      1.0000 0.62060  0.83380  0.24067  Biso   1.000  O
  O17      1.0000 0.01170  0.09820  0.43030  Biso   1.000  O
  O18      1.0000 0.98830  0.40180  0.43030  Biso   1.000  O
  O19      1.0000 0.65180  0.26170  0.68030  Biso   1.000  O
  O20      1.0000 0.34820  0.23830  0.68030  Biso   1.000  O
  O21      1.0000 0.51170  0.59820  0.93030  Biso   1.000  O
  O22      1.0000 0.48830  0.90180  0.93030  Biso   1.000  O
  O23      1.0000 0.15180  0.76170  0.18030  Biso   1.000  O
  O24      1.0000 0.84820  0.73830  0.18030  Biso   1.000  O
  O25      1.0000 0.98830  0.90180  0.56970  Biso   1.000  O
  O26      1.0000 0.01170  0.59820  0.56970  Biso   1.000  O
  O27      1.0000 0.84820  0.23830  0.81970  Biso   1.000  O
  O28      1.0000 0.15180  0.26170  0.81970  Biso   1.000  O
  O29      1.0000 0.48830  0.40180  0.06970  Biso   1.000  O
  O30      1.0000 0.51170  0.09820  0.06970  Biso   1.000  O
  O31      1.0000 0.34820  0.73830  0.31970  Biso   1.000  O
  O32      1.0000 0.65180  0.76170  0.31970  Biso   1.000  O
  C81      1.0000 0.06860  0.14410  0.45940  Biso   1.000  C
  C82      1.0000 0.93140  0.35590  0.45940  Biso   1.000  C
  C83      1.0000 0.60590  0.31860  0.70940  Biso   1.000  C
  C84      1.0000 0.39410  0.18140  0.70940  Biso   1.000  C
  C85      1.0000 0.56860  0.64410  0.95940  Biso   1.000  C
  C86      1.0000 0.43140  0.85590  0.95940  Biso   1.000  C
  C87      1.0000 0.10590  0.81860  0.20940  Biso   1.000  C
  C88      1.0000 0.89410  0.68140  0.20940  Biso   1.000  C
  C89      1.0000 0.93140  0.85590  0.54060  Biso   1.000  C
  C90      1.0000 0.06860  0.64410  0.54060  Biso   1.000  C
  C91      1.0000 0.89410  0.18140  0.79060  Biso   1.000  C
  C92      1.0000 0.10590  0.31860  0.79060  Biso   1.000  C
  C93      1.0000 0.43140  0.35590  0.04060  Biso   1.000  C
  C94      1.0000 0.56860  0.14410  0.04060  Biso   1.000  C
  C95      1.0000 0.39410  0.68140  0.29060  Biso   1.000  C
  C96      1.0000 0.60590  0.81860  0.29060  Biso   1.000  C
  C97      1.0000 0.12450  0.21560  0.43030  Biso   1.000  C
  C98      1.0000 0.87550  0.28440  0.43030  Biso   1.000  C
  C99      1.0000 0.53440  0.37450  0.68030  Biso   1.000  C
  C100     1.0000 0.46560  0.12550  0.68030  Biso   1.000  C
  C101     1.0000 0.62450  0.71560  0.93030  Biso   1.000  C
  C102     1.0000 0.37550  0.78440  0.93030  Biso   1.000  C
  C103     1.0000 0.03440  0.87450  0.18030  Biso   1.000  C
  C104     1.0000 0.96560  0.62550  0.18030  Biso   1.000  C
  C105     1.0000 0.87550  0.78440  0.56970  Biso   1.000  C
  C106     1.0000 0.12450  0.71560  0.56970  Biso   1.000  C
  C107     1.0000 0.96560  0.12550  0.81970  Biso   1.000  C
  C108     1.0000 0.03440  0.37450  0.81970  Biso   1.000  C
  C109     1.0000 0.37550  0.28440  0.06970  Biso   1.000  C
  C110     1.0000 0.62450  0.21560  0.06970  Biso   1.000  C
  C111     1.0000 0.46560  0.62550  0.31970  Biso   1.000  C
  C112     1.0000 0.53440  0.87450  0.31970  Biso   1.000  C
  H65      1.0000 0.09080  0.23800  0.39880  Biso   1.000  H
  H66      1.0000 0.90920  0.26200  0.39880  Biso   1.000  H
  H67      1.0000 0.51200  0.34080  0.64880  Biso   1.000  H
  H68      1.0000 0.48800  0.15920  0.64880  Biso   1.000  H
  H69      1.0000 0.59080  0.73800  0.89880  Biso   1.000  H
  H70      1.0000 0.40920  0.76200  0.89880  Biso   1.000  H
  H71      1.0000 0.01200  0.84080  0.14880  Biso   1.000  H
  H72      1.0000 0.98800  0.65920  0.14880  Biso   1.000  H
  H73      1.0000 0.90920  0.76200  0.60120  Biso   1.000  H
  H74      1.0000 0.09080  0.73800  0.60120  Biso   1.000  H
  H75      1.0000 0.98800  0.15920  0.85120  Biso   1.000  H
  H76      1.0000 0.01200  0.34080  0.85120  Biso   1.000  H
  H77      1.0000 0.40920  0.26200  0.10120  Biso   1.000  H
  H78      1.0000 0.59080  0.23800  0.10120  Biso   1.000  H
  H79      1.0000 0.48800  0.65920  0.35120  Biso   1.000  H
  H80      1.0000 0.51200  0.84080  0.35120  Biso   1.000  H
  H81      1.0000 0.13480  0.26640  0.45500  Biso   1.000  H
  H82      1.0000 0.86520  0.23360  0.45500  Biso   1.000  H
  H83      1.0000 0.48360  0.38480  0.70500  Biso   1.000  H
  H84      1.0000 0.51640  0.11520  0.70500  Biso   1.000  H
  H85      1.0000 0.63480  0.76640  0.95500  Biso   1.000  H
  H86      1.0000 0.36520  0.73360  0.95500  Biso   1.000  H
  H87      1.0000 0.98360  0.88480  0.20500  Biso   1.000  H
  H88      1.0000 0.01640  0.61520  0.20500  Biso   1.000  H
  H89      1.0000 0.86520  0.73360  0.54500  Biso   1.000  H
  H90      1.0000 0.13480  0.76640  0.54500  Biso   1.000  H
  H91      1.0000 0.01640  0.11520  0.79500  Biso   1.000  H
  H92      1.0000 0.98360  0.38480  0.79500  Biso   1.000  H
  H93      1.0000 0.36520  0.23360  0.04500  Biso   1.000  H
  H94      1.0000 0.63480  0.26640  0.04500  Biso   1.000  H
  H95      1.0000 0.51640  0.61520  0.29500  Biso   1.000  H
  H96      1.0000 0.48360  0.88480  0.29500  Biso   1.000  H
  C113     1.0000 0.21380  0.17890  0.41160  Biso   1.000  C
  C114     1.0000 0.78620  0.32110  0.41160  Biso   1.000  C
  C115     1.0000 0.57110  0.46380  0.66160  Biso   1.000  C
  C116     1.0000 0.42890  0.03620  0.66160  Biso   1.000  C
  C117     1.0000 0.71380  0.67890  0.91160  Biso   1.000  C
  C118     1.0000 0.28620  0.82110  0.91160  Biso   1.000  C
  C119     1.0000 0.07110  0.96380  0.16160  Biso   1.000  C
  C120     1.0000 0.92890  0.53620  0.16160  Biso   1.000  C
  C121     1.0000 0.78620  0.82110  0.58840  Biso   1.000  C
  C122     1.0000 0.21380  0.67890  0.58840  Biso   1.000  C
  C123     1.0000 0.92890  0.03620  0.83840  Biso   1.000  C
  C124     1.0000 0.07110  0.46380  0.83840  Biso   1.000  C
  C125     1.0000 0.28620  0.32110  0.08840  Biso   1.000  C
  C126     1.0000 0.71380  0.17890  0.08840  Biso   1.000  C
  C127     1.0000 0.42890  0.53620  0.33840  Biso   1.000  C
  C128     1.0000 0.57110  0.96380  0.33840  Biso   1.000  C
  H97      1.0000 0.23850  0.22100  0.38470  Biso   1.000  H
  H98      1.0000 0.76150  0.27900  0.38470  Biso   1.000  H
  H99      1.0000 0.52900  0.48850  0.63470  Biso   1.000  H
  H100     1.0000 0.47100  0.01150  0.63470  Biso   1.000  H
  H101     1.0000 0.73850  0.72100  0.88470  Biso   1.000  H
  H102     1.0000 0.26150  0.77900  0.88470  Biso   1.000  H
  H103     1.0000 0.02900  0.98850  0.13470  Biso   1.000  H
  H104     1.0000 0.97100  0.51150  0.13470  Biso   1.000  H
  H105     1.0000 0.76150  0.77900  0.61530  Biso   1.000  H
  H106     1.0000 0.23850  0.72100  0.61530  Biso   1.000  H
  H107     1.0000 0.97100  0.01150  0.86530  Biso   1.000  H
  H108     1.0000 0.02900  0.48850  0.86530  Biso   1.000  H
  H109     1.0000 0.26150  0.27900  0.11530  Biso   1.000  H
  H110     1.0000 0.73850  0.22100  0.11530  Biso   1.000  H
  H111     1.0000 0.47100  0.51150  0.36530  Biso   1.000  H
  H112     1.0000 0.52900  0.98850  0.36530  Biso   1.000  H
  H113     1.0000 0.20240  0.12190  0.39270  Biso   1.000  H
  H114     1.0000 0.79760  0.37810  0.39270  Biso   1.000  H
  H115     1.0000 0.62810  0.45240  0.64270  Biso   1.000  H
  H116     1.0000 0.37190  0.04760  0.64270  Biso   1.000  H
  H117     1.0000 0.70240  0.62190  0.89270  Biso   1.000  H
  H118     1.0000 0.29760  0.87810  0.89270  Biso   1.000  H
  H119     1.0000 0.12810  0.95240  0.14270  Biso   1.000  H
  H120     1.0000 0.87190  0.54760  0.14270  Biso   1.000  H
  H121     1.0000 0.79760  0.87810  0.60730  Biso   1.000  H
  H122     1.0000 0.20240  0.62190  0.60730  Biso   1.000  H
  H123     1.0000 0.87190  0.04760  0.85730  Biso   1.000  H
  H124     1.0000 0.12810  0.45240  0.85730  Biso   1.000  H
  H125     1.0000 0.29760  0.37810  0.10730  Biso   1.000  H
  H126     1.0000 0.70240  0.12190  0.10730  Biso   1.000  H
  H127     1.0000 0.37190  0.54760  0.35730  Biso   1.000  H
  H128     1.0000 0.62810  0.95240  0.35730  Biso   1.000  H
  C129     1.0000 0.28700  0.16190  0.45490  Biso   1.000  C
  C130     1.0000 0.71300  0.33810  0.45490  Biso   1.000  C
  C131     1.0000 0.58810  0.53700  0.70490  Biso   1.000  C
  C132     1.0000 0.41190  0.96300  0.70490  Biso   1.000  C
  C133     1.0000 0.78700  0.66190  0.95490  Biso   1.000  C
  C134     1.0000 0.21300  0.83810  0.95490  Biso   1.000  C
  C135     1.0000 0.08810  0.03700  0.20490  Biso   1.000  C
  C136     1.0000 0.91190  0.46300  0.20490  Biso   1.000  C
  C137     1.0000 0.71300  0.83810  0.54510  Biso   1.000  C
  C138     1.0000 0.28700  0.66190  0.54510  Biso   1.000  C
  C139     1.0000 0.91190  0.96300  0.79510  Biso   1.000  C
  C140     1.0000 0.08810  0.53700  0.79510  Biso   1.000  C
  C141     1.0000 0.21300  0.33810  0.04510  Biso   1.000  C
  C142     1.0000 0.78700  0.16190  0.04510  Biso   1.000  C
  C143     1.0000 0.41190  0.46300  0.29510  Biso   1.000  C
  C144     1.0000 0.58810  0.03700  0.29510  Biso   1.000  C
  H129     1.0000 0.29850  0.21840  0.47430  Biso   1.000  H
  H130     1.0000 0.70150  0.28160  0.47430  Biso   1.000  H
  H131     1.0000 0.53160  0.54850  0.72430  Biso   1.000  H
  H132     1.0000 0.46840  0.95150  0.72430  Biso   1.000  H
  H133     1.0000 0.79850  0.71840  0.97430  Biso   1.000  H
  H134     1.0000 0.20150  0.78160  0.97430  Biso   1.000  H
  H135     1.0000 0.03160  0.04850  0.22430  Biso   1.000  H
  H136     1.0000 0.96840  0.45150  0.22430  Biso   1.000  H
  H137     1.0000 0.70150  0.78160  0.52570  Biso   1.000  H
  H138     1.0000 0.29850  0.71840  0.52570  Biso   1.000  H
  H139     1.0000 0.96840  0.95150  0.77570  Biso   1.000  H
  H140     1.0000 0.03160  0.54850  0.77570  Biso   1.000  H
  H141     1.0000 0.20150  0.28160  0.02570  Biso   1.000  H
  H142     1.0000 0.79850  0.21840  0.02570  Biso   1.000  H
  H143     1.0000 0.46840  0.45150  0.27570  Biso   1.000  H
  H144     1.0000 0.53160  0.04850  0.27570  Biso   1.000  H
  H145     1.0000 0.26380  0.11830  0.48140  Biso   1.000  H
  H146     1.0000 0.73620  0.38170  0.48140  Biso   1.000  H
  H147     1.0000 0.63170  0.51380  0.73140  Biso   1.000  H
  H148     1.0000 0.36830  0.98620  0.73140  Biso   1.000  H
  H149     1.0000 0.76380  0.61830  0.98140  Biso   1.000  H
  H150     1.0000 0.23620  0.88170  0.98140  Biso   1.000  H
  H151     1.0000 0.13170  0.01380  0.23140  Biso   1.000  H
  H152     1.0000 0.86830  0.48620  0.23140  Biso   1.000  H
  H153     1.0000 0.73620  0.88170  0.51860  Biso   1.000  H
  H154     1.0000 0.26380  0.61830  0.51860  Biso   1.000  H
  H155     1.0000 0.86830  0.98620  0.76860  Biso   1.000  H
  H156     1.0000 0.13170  0.51380  0.76860  Biso   1.000  H
  H157     1.0000 0.23620  0.38170  0.01860  Biso   1.000  H
  H158     1.0000 0.76380  0.11830  0.01860  Biso   1.000  H
  H159     1.0000 0.36830  0.48620  0.26860  Biso   1.000  H
  H160     1.0000 0.63170  0.01380  0.26860  Biso   1.000  H
  C145     1.0000 0.37490  0.12710  0.43250  Biso   1.000  C
  C146     1.0000 0.62510  0.37290  0.43250  Biso   1.000  C
  C147     1.0000 0.62290  0.62490  0.68250  Biso   1.000  C
  C148     1.0000 0.37710  0.87510  0.68250  Biso   1.000  C
  C149     1.0000 0.87490  0.62710  0.93250  Biso   1.000  C
  C150     1.0000 0.12510  0.87290  0.93250  Biso   1.000  C
  C151     1.0000 0.12290  0.12490  0.18250  Biso   1.000  C
  C152     1.0000 0.87710  0.37510  0.18250  Biso   1.000  C
  C153     1.0000 0.62510  0.87290  0.56750  Biso   1.000  C
  C154     1.0000 0.37490  0.62710  0.56750  Biso   1.000  C
  C155     1.0000 0.87710  0.87510  0.81750  Biso   1.000  C
  C156     1.0000 0.12290  0.62490  0.81750  Biso   1.000  C
  C157     1.0000 0.12510  0.37290  0.06750  Biso   1.000  C
  C158     1.0000 0.87490  0.12710  0.06750  Biso   1.000  C
  C159     1.0000 0.37710  0.37510  0.31750  Biso   1.000  C
  C160     1.0000 0.62290  0.12490  0.31750  Biso   1.000  C
  H161     1.0000 0.36480  0.06530  0.41980  Biso   1.000  H
  H162     1.0000 0.63520  0.43470  0.41980  Biso   1.000  H
  H163     1.0000 0.68470  0.61480  0.66980  Biso   1.000  H
  H164     1.0000 0.31530  0.88520  0.66980  Biso   1.000  H
  H165     1.0000 0.86480  0.56530  0.91980  Biso   1.000  H
  H166     1.0000 0.13520  0.93470  0.91980  Biso   1.000  H
  H167     1.0000 0.18470  0.11480  0.16980  Biso   1.000  H
  H168     1.0000 0.81530  0.38520  0.16980  Biso   1.000  H
  H169     1.0000 0.63520  0.93470  0.58020  Biso   1.000  H
  H170     1.0000 0.36480  0.56530  0.58020  Biso   1.000  H
  H171     1.0000 0.81530  0.88520  0.83020  Biso   1.000  H
  H172     1.0000 0.18470  0.61480  0.83020  Biso   1.000  H
  H173     1.0000 0.13520  0.43470  0.08020  Biso   1.000  H
  H174     1.0000 0.86480  0.06530  0.08020  Biso   1.000  H
  H175     1.0000 0.31530  0.38520  0.33020  Biso   1.000  H
  H176     1.0000 0.68470  0.11480  0.33020  Biso   1.000  H
  H177     1.0000 0.39010  0.16340  0.40050  Biso   1.000  H
  H178     1.0000 0.60990  0.33660  0.40050  Biso   1.000  H
  H179     1.0000 0.58660  0.64010  0.65050  Biso   1.000  H
  H180     1.0000 0.41340  0.85990  0.65050  Biso   1.000  H
  H181     1.0000 0.89010  0.66340  0.90050  Biso   1.000  H
  H182     1.0000 0.10990  0.83660  0.90050  Biso   1.000  H
  H183     1.0000 0.08660  0.14010  0.15050  Biso   1.000  H
  H184     1.0000 0.91340  0.35990  0.15050  Biso   1.000  H
  H185     1.0000 0.60990  0.83660  0.59950  Biso   1.000  H
  H186     1.0000 0.39010  0.66340  0.59950  Biso   1.000  H
  H187     1.0000 0.91340  0.85990  0.84950  Biso   1.000  H
  H188     1.0000 0.08660  0.64010  0.84950  Biso   1.000  H
  H189     1.0000 0.10990  0.33660  0.09950  Biso   1.000  H
  H190     1.0000 0.89010  0.16340  0.09950  Biso   1.000  H
  H191     1.0000 0.41340  0.35990  0.34950  Biso   1.000  H
  H192     1.0000 0.58660  0.14010  0.34950  Biso   1.000  H
  C161     1.0000 0.45510  0.12610  0.46890  Biso   1.000  C
  C162     1.0000 0.54490  0.37390  0.46890  Biso   1.000  C
  C163     1.0000 0.62390  0.70510  0.71890  Biso   1.000  C
  C164     1.0000 0.37610  0.79490  0.71890  Biso   1.000  C
  C165     1.0000 0.95510  0.62610  0.96890  Biso   1.000  C
  C166     1.0000 0.04490  0.87390  0.96890  Biso   1.000  C
  C167     1.0000 0.12390  0.20510  0.21890  Biso   1.000  C
  C168     1.0000 0.87610  0.29490  0.21890  Biso   1.000  C
  C169     1.0000 0.54490  0.87390  0.53110  Biso   1.000  C
  C170     1.0000 0.45510  0.62610  0.53110  Biso   1.000  C
  C171     1.0000 0.87610  0.79490  0.78110  Biso   1.000  C
  C172     1.0000 0.12390  0.70510  0.78110  Biso   1.000  C
  C173     1.0000 0.04490  0.37390  0.03110  Biso   1.000  C
  C174     1.0000 0.95510  0.12610  0.03110  Biso   1.000  C
  C175     1.0000 0.37610  0.29490  0.28110  Biso   1.000  C
  C176     1.0000 0.62390  0.20510  0.28110  Biso   1.000  C
  O33      1.0000 0.45580  0.14530  0.51690  Biso   1.000  O
  O34      1.0000 0.54420  0.35470  0.51690  Biso   1.000  O
  O35      1.0000 0.60470  0.70580  0.76690  Biso   1.000  O
  O36      1.0000 0.39530  0.79420  0.76690  Biso   1.000  O
  O37      1.0000 0.95580  0.64530  0.01690  Biso   1.000  O
  O38      1.0000 0.04420  0.85470  0.01690  Biso   1.000  O
  O39      1.0000 0.10470  0.20580  0.26690  Biso   1.000  O
  O40      1.0000 0.89530  0.29420  0.26690  Biso   1.000  O
  O41      1.0000 0.54420  0.85470  0.48310  Biso   1.000  O
  O42      1.0000 0.45580  0.64530  0.48310  Biso   1.000  O
  O43      1.0000 0.89530  0.79420  0.73310  Biso   1.000  O
  O44      1.0000 0.10470  0.70580  0.73310  Biso   1.000  O
  O45      1.0000 0.04420  0.35470  0.98310  Biso   1.000  O
  O46      1.0000 0.95580  0.14530  0.98310  Biso   1.000  O
  O47      1.0000 0.39530  0.29420  0.23310  Biso   1.000  O
  O48      1.0000 0.60470  0.20580  0.23310  Biso   1.000  O
  O49      1.0000 0.52970  0.10060  0.44290  Biso   1.000  O
  O50      1.0000 0.47030  0.39940  0.44290  Biso   1.000  O
  O51      1.0000 0.64940  0.77970  0.69290  Biso   1.000  O
  O52      1.0000 0.35060  0.72030  0.69290  Biso   1.000  O
  O53      1.0000 0.02970  0.60060  0.94290  Biso   1.000  O
  O54      1.0000 0.97030  0.89940  0.94290  Biso   1.000  O
  O55      1.0000 0.14940  0.27970  0.19290  Biso   1.000  O
  O56      1.0000 0.85060  0.22030  0.19290  Biso   1.000  O
  O57      1.0000 0.47030  0.89940  0.55710  Biso   1.000  O
  O58      1.0000 0.52970  0.60060  0.55710  Biso   1.000  O
  O59      1.0000 0.85060  0.72030  0.80710  Biso   1.000  O
  O60      1.0000 0.14940  0.77970  0.80710  Biso   1.000  O
  O61      1.0000 0.97030  0.39940  0.05710  Biso   1.000  O
  O62      1.0000 0.02970  0.10060  0.05710  Biso   1.000  O
  O63      1.0000 0.35060  0.22030  0.30710  Biso   1.000  O
  O64      1.0000 0.64940  0.27970  0.30710  Biso   1.000  O
  H193     1.0000 0.57430  0.11140  0.46220  Biso   1.000  H
  H194     1.0000 0.42570  0.38860  0.46220  Biso   1.000  H
  H195     1.0000 0.63860  0.82430  0.71220  Biso   1.000  H
  H196     1.0000 0.36140  0.67570  0.71220  Biso   1.000  H
  H197     1.0000 0.07430  0.61140  0.96220  Biso   1.000  H
  H198     1.0000 0.92570  0.88860  0.96220  Biso   1.000  H
  H199     1.0000 0.13860  0.32430  0.21220  Biso   1.000  H
  H200     1.0000 0.86140  0.17570  0.21220  Biso   1.000  H
  H201     1.0000 0.42570  0.88860  0.53780  Biso   1.000  H
  H202     1.0000 0.57430  0.61140  0.53780  Biso   1.000  H
  H203     1.0000 0.86140  0.67570  0.78780  Biso   1.000  H
  H204     1.0000 0.13860  0.82430  0.78780  Biso   1.000  H
  H205     1.0000 0.92570  0.38860  0.03780  Biso   1.000  H
  H206     1.0000 0.07430  0.11140  0.03780  Biso   1.000  H
  H207     1.0000 0.36140  0.17570  0.28780  Biso   1.000  H
  H208     1.0000 0.63860  0.32430  0.28780  Biso   1.000  H
  C177     1.0000 0.75130  0.10320  0.52870  Biso   1.000  C
  C178     1.0000 0.24870  0.39680  0.52870  Biso   1.000  C
  C179     1.0000 0.64680  0.00130  0.77870  Biso   1.000  C
  C180     1.0000 0.35320  0.49870  0.77870  Biso   1.000  C
  C181     1.0000 0.25130  0.60320  0.02870  Biso   1.000  C
  C182     1.0000 0.74870  0.89680  0.02870  Biso   1.000  C
  C183     1.0000 0.14680  0.50130  0.27870  Biso   1.000  C
  C184     1.0000 0.85320  0.99870  0.27870  Biso   1.000  C
  C185     1.0000 0.24870  0.89680  0.47130  Biso   1.000  C
  C186     1.0000 0.75130  0.60320  0.47130  Biso   1.000  C
  C187     1.0000 0.85320  0.49870  0.72130  Biso   1.000  C
  C188     1.0000 0.14680  0.00130  0.72130  Biso   1.000  C
  C189     1.0000 0.74870  0.39680  0.97130  Biso   1.000  C
  C190     1.0000 0.25130  0.10320  0.97130  Biso   1.000  C
  C191     1.0000 0.35320  0.99870  0.22130  Biso   1.000  C
  C192     1.0000 0.64680  0.50130  0.22130  Biso   1.000  C
  C193     1.0000 0.73000  0.14040  0.57830  Biso   1.000  C
  C194     1.0000 0.27000  0.35960  0.57830  Biso   1.000  C
  C195     1.0000 0.60960  0.98000  0.82830  Biso   1.000  C
  C196     1.0000 0.39040  0.52000  0.82830  Biso   1.000  C
  C197     1.0000 0.23000  0.64040  0.07830  Biso   1.000  C
  C198     1.0000 0.77000  0.85960  0.07830  Biso   1.000  C
  C199     1.0000 0.10960  0.48000  0.32830  Biso   1.000  C
  C200     1.0000 0.89040  0.02000  0.32830  Biso   1.000  C
  C201     1.0000 0.27000  0.85960  0.42170  Biso   1.000  C
  C202     1.0000 0.73000  0.64040  0.42170  Biso   1.000  C
  C203     1.0000 0.89040  0.52000  0.67170  Biso   1.000  C
  C204     1.0000 0.10960  0.98000  0.67170  Biso   1.000  C
  C205     1.0000 0.77000  0.35960  0.92170  Biso   1.000  C
  C206     1.0000 0.23000  0.14040  0.92170  Biso   1.000  C
  C207     1.0000 0.39040  0.02000  0.17170  Biso   1.000  C
  C208     1.0000 0.60960  0.48000  0.17170  Biso   1.000  C
  H209     1.0000 0.61080  0.19380  0.55090  Biso   1.000  H
  H210     1.0000 0.38920  0.30620  0.55090  Biso   1.000  H
  H211     1.0000 0.55620  0.86080  0.80090  Biso   1.000  H
  H212     1.0000 0.44380  0.63920  0.80090  Biso   1.000  H
  H213     1.0000 0.11080  0.69380  0.05090  Biso   1.000  H
  H214     1.0000 0.88920  0.80620  0.05090  Biso   1.000  H
  H215     1.0000 0.05620  0.36080  0.30090  Biso   1.000  H
  H216     1.0000 0.94380  0.13920  0.30090  Biso   1.000  H
  H217     1.0000 0.38920  0.80620  0.44910  Biso   1.000  H
  H218     1.0000 0.61080  0.69380  0.44910  Biso   1.000  H
  H219     1.0000 0.94380  0.63920  0.69910  Biso   1.000  H
  H220     1.0000 0.05620  0.86080  0.69910  Biso   1.000  H
  H221     1.0000 0.88920  0.30620  0.94910  Biso   1.000  H
  H222     1.0000 0.11080  0.19380  0.94910  Biso   1.000  H
  H223     1.0000 0.44380  0.13920  0.19910  Biso   1.000  H
  H224     1.0000 0.55620  0.36080  0.19910  Biso   1.000  H
  H225     1.0000 0.62620  0.21540  0.60990  Biso   1.000  H
  H226     1.0000 0.37380  0.28460  0.60990  Biso   1.000  H
  H227     1.0000 0.53460  0.87620  0.85990  Biso   1.000  H
  H228     1.0000 0.46540  0.62380  0.85990  Biso   1.000  H
  H229     1.0000 0.12620  0.71540  0.10990  Biso   1.000  H
  H230     1.0000 0.87380  0.78460  0.10990  Biso   1.000  H
  H231     1.0000 0.03460  0.37620  0.35990  Biso   1.000  H
  H232     1.0000 0.96540  0.12380  0.35990  Biso   1.000  H
  H233     1.0000 0.37380  0.78460  0.39010  Biso   1.000  H
  H234     1.0000 0.62620  0.71540  0.39010  Biso   1.000  H
  H235     1.0000 0.96540  0.62380  0.64010  Biso   1.000  H
  H236     1.0000 0.03460  0.87620  0.64010  Biso   1.000  H
  H237     1.0000 0.87380  0.28460  0.89010  Biso   1.000  H
  H238     1.0000 0.12620  0.21540  0.89010  Biso   1.000  H
  H239     1.0000 0.46540  0.12380  0.14010  Biso   1.000  H
  H240     1.0000 0.53460  0.37620  0.14010  Biso   1.000  H
  N81      1.0000 0.64390  0.19000  0.57990  Biso   1.000  N
  N82      1.0000 0.35610  0.31000  0.57990  Biso   1.000  N
  N83      1.0000 0.56000  0.89390  0.82990  Biso   1.000  N
  N84      1.0000 0.44000  0.60610  0.82990  Biso   1.000  N
  N85      1.0000 0.14390  0.69000  0.07990  Biso   1.000  N
  N86      1.0000 0.85610  0.81000  0.07990  Biso   1.000  N
  N87      1.0000 0.06000  0.39390  0.32990  Biso   1.000  N
  N88      1.0000 0.94000  0.10610  0.32990  Biso   1.000  N
  N89      1.0000 0.35610  0.81000  0.42010  Biso   1.000  N
  N90      1.0000 0.64390  0.69000  0.42010  Biso   1.000  N
  N91      1.0000 0.94000  0.60610  0.67010  Biso   1.000  N
  N92      1.0000 0.06000  0.89390  0.67010  Biso   1.000  N
  N93      1.0000 0.85610  0.31000  0.92010  Biso   1.000  N
  N94      1.0000 0.14390  0.19000  0.92010  Biso   1.000  N
  N95      1.0000 0.44000  0.10610  0.17010  Biso   1.000  N
  N96      1.0000 0.56000  0.39390  0.17010  Biso   1.000  N
