data_image0
_cell_length_a       15.403
_cell_length_b       15.403
_cell_length_c       22.617
_cell_angle_alpha    90
_cell_angle_beta     90
_cell_angle_gamma    90

_symmetry_space_group_name_H-M    "P 1"
_symmetry_int_tables_number       1

loop_
  _symmetry_equiv_pos_as_xyz
  'x, y, z'

loop_
  _atom_site_label
  _atom_site_occupancy
  _atom_site_fract_x
  _atom_site_fract_y
  _atom_site_fract_z
  _atom_site_thermal_displace_type
  _atom_site_B_iso_or_equiv
  _atom_site_type_symbol
  Cu1      1.0000 0.03811  0.01676  0.55678  Biso   1.000  Cu
  Cu2      1.0000 0.96189  0.48324  0.55678  Biso   1.000  Cu
  Cu3      1.0000 0.73324  0.28811  0.80678  Biso   1.000  Cu
  Cu4      1.0000 0.26676  0.21189  0.80678  Biso   1.000  Cu
  Cu5      1.0000 0.53811  0.51676  0.05678  Biso   1.000  Cu
  Cu6      1.0000 0.46189  0.98324  0.05678  Biso   1.000  Cu
  Cu7      1.0000 0.23324  0.78811  0.30678  Biso   1.000  Cu
  Cu8      1.0000 0.76676  0.71189  0.30678  Biso   1.000  Cu
  Cu9      1.0000 0.96189  0.98324  0.44322  Biso   1.000  Cu
  Cu10     1.0000 0.03811  0.51676  0.44322  Biso   1.000  Cu
  Cu11     1.0000 0.76676  0.21189  0.69322  Biso   1.000  Cu
  Cu12     1.0000 0.23324  0.28811  0.69322  Biso   1.000  Cu
  Cu13     1.0000 0.46189  0.48324  0.94322  Biso   1.000  Cu
  Cu14     1.0000 0.53811  0.01676  0.94322  Biso   1.000  Cu
  Cu15     1.0000 0.26676  0.71189  0.19322  Biso   1.000  Cu
  Cu16     1.0000 0.73324  0.78811  0.19322  Biso   1.000  Cu
  N1       1.0000 0.27800  0.88220  0.53390  Biso   1.000  N
  N2       1.0000 0.72200  0.61780  0.53390  Biso   1.000  N
  N3       1.0000 0.86780  0.52800  0.78390  Biso   1.000  N
  N4       1.0000 0.13220  0.97200  0.78390  Biso   1.000  N
  N5       1.0000 0.77800  0.38220  0.03390  Biso   1.000  N
  N6       1.0000 0.22200  0.11780  0.03390  Biso   1.000  N
  N7       1.0000 0.36780  0.02800  0.28390  Biso   1.000  N
  N8       1.0000 0.63220  0.47200  0.28390  Biso   1.000  N
  N9       1.0000 0.72200  0.11780  0.46610  Biso   1.000  N
  N10      1.0000 0.27800  0.38220  0.46610  Biso   1.000  N
  N11      1.0000 0.63220  0.97200  0.71610  Biso   1.000  N
  N12      1.0000 0.36780  0.52800  0.71610  Biso   1.000  N
  N13      1.0000 0.22200  0.61780  0.96610  Biso   1.000  N
  N14      1.0000 0.77800  0.88220  0.96610  Biso   1.000  N
  N15      1.0000 0.13220  0.47200  0.21610  Biso   1.000  N
  N16      1.0000 0.86780  0.02800  0.21610  Biso   1.000  N
  C1       1.0000 0.21120  0.92500  0.55470  Biso   1.000  C
  C2       1.0000 0.78880  0.57500  0.55470  Biso   1.000  C
  C3       1.0000 0.82500  0.46120  0.80470  Biso   1.000  C
  C4       1.0000 0.17500  0.03880  0.80470  Biso   1.000  C
  C5       1.0000 0.71120  0.42500  0.05470  Biso   1.000  C
  C6       1.0000 0.28880  0.07500  0.05470  Biso   1.000  C
  C7       1.0000 0.32500  0.96120  0.30470  Biso   1.000  C
  C8       1.0000 0.67500  0.53880  0.30470  Biso   1.000  C
  C9       1.0000 0.78880  0.07500  0.44530  Biso   1.000  C
  C10      1.0000 0.21120  0.42500  0.44530  Biso   1.000  C
  C11      1.0000 0.67500  0.03880  0.69530  Biso   1.000  C
  C12      1.0000 0.32500  0.46120  0.69530  Biso   1.000  C
  C13      1.0000 0.28880  0.57500  0.94530  Biso   1.000  C
  C14      1.0000 0.71120  0.92500  0.94530  Biso   1.000  C
  C15      1.0000 0.17500  0.53880  0.19530  Biso   1.000  C
  C16      1.0000 0.82500  0.96120  0.19530  Biso   1.000  C
  H1       1.0000 0.21690  0.94490  0.59330  Biso   1.000  H
  H2       1.0000 0.78310  0.55510  0.59330  Biso   1.000  H
  H3       1.0000 0.80510  0.46690  0.84330  Biso   1.000  H
  H4       1.0000 0.19490  0.03310  0.84330  Biso   1.000  H
  H5       1.0000 0.71690  0.44490  0.09330  Biso   1.000  H
  H6       1.0000 0.28310  0.05510  0.09330  Biso   1.000  H
  H7       1.0000 0.30510  0.96690  0.34330  Biso   1.000  H
  H8       1.0000 0.69490  0.53310  0.34330  Biso   1.000  H
  H9       1.0000 0.78310  0.05510  0.40670  Biso   1.000  H
  H10      1.0000 0.21690  0.44490  0.40670  Biso   1.000  H
  H11      1.0000 0.69490  0.03310  0.65670  Biso   1.000  H
  H12      1.0000 0.30510  0.46690  0.65670  Biso   1.000  H
  H13      1.0000 0.28310  0.55510  0.90670  Biso   1.000  H
  H14      1.0000 0.71690  0.94490  0.90670  Biso   1.000  H
  H15      1.0000 0.19490  0.53310  0.15670  Biso   1.000  H
  H16      1.0000 0.80510  0.96690  0.15670  Biso   1.000  H
  N17      1.0000 0.13670  0.94380  0.52850  Biso   1.000  N
  N18      1.0000 0.86330  0.55620  0.52850  Biso   1.000  N
  N19      1.0000 0.80620  0.38670  0.77850  Biso   1.000  N
  N20      1.0000 0.19380  0.11330  0.77850  Biso   1.000  N
  N21      1.0000 0.63670  0.44380  0.02850  Biso   1.000  N
  N22      1.0000 0.36330  0.05620  0.02850  Biso   1.000  N
  N23      1.0000 0.30620  0.88670  0.27850  Biso   1.000  N
  N24      1.0000 0.69380  0.61330  0.27850  Biso   1.000  N
  N25      1.0000 0.86330  0.05620  0.47150  Biso   1.000  N
  N26      1.0000 0.13670  0.44380  0.47150  Biso   1.000  N
  N27      1.0000 0.69380  0.11330  0.72150  Biso   1.000  N
  N28      1.0000 0.30620  0.38670  0.72150  Biso   1.000  N
  N29      1.0000 0.36330  0.55620  0.97150  Biso   1.000  N
  N30      1.0000 0.63670  0.94380  0.97150  Biso   1.000  N
  N31      1.0000 0.19380  0.61330  0.22150  Biso   1.000  N
  N32      1.0000 0.80620  0.88670  0.22150  Biso   1.000  N
  C17      1.0000 0.13430  0.91230  0.47200  Biso   1.000  C
  C18      1.0000 0.86570  0.58770  0.47200  Biso   1.000  C
  C19      1.0000 0.83770  0.38430  0.72200  Biso   1.000  C
  C20      1.0000 0.16230  0.11570  0.72200  Biso   1.000  C
  C21      1.0000 0.63430  0.41230  0.97200  Biso   1.000  C
  C22      1.0000 0.36570  0.08770  0.97200  Biso   1.000  C
  C23      1.0000 0.33770  0.88430  0.22200  Biso   1.000  C
  C24      1.0000 0.66230  0.61570  0.22200  Biso   1.000  C
  C25      1.0000 0.86570  0.08770  0.52800  Biso   1.000  C
  C26      1.0000 0.13430  0.41230  0.52800  Biso   1.000  C
  C27      1.0000 0.66230  0.11570  0.77800  Biso   1.000  C
  C28      1.0000 0.33770  0.38430  0.77800  Biso   1.000  C
  C29      1.0000 0.36570  0.58770  0.02800  Biso   1.000  C
  C30      1.0000 0.63430  0.91230  0.02800  Biso   1.000  C
  C31      1.0000 0.16230  0.61570  0.27800  Biso   1.000  C
  C32      1.0000 0.83770  0.88430  0.27800  Biso   1.000  C
  C33      1.0000 0.20470  0.86680  0.44280  Biso   1.000  C
  C34      1.0000 0.79530  0.63320  0.44280  Biso   1.000  C
  C35      1.0000 0.88320  0.45470  0.69280  Biso   1.000  C
  C36      1.0000 0.11680  0.04530  0.69280  Biso   1.000  C
  C37      1.0000 0.70470  0.36680  0.94280  Biso   1.000  C
  C38      1.0000 0.29530  0.13320  0.94280  Biso   1.000  C
  C39      1.0000 0.38320  0.95470  0.19280  Biso   1.000  C
  C40      1.0000 0.61680  0.54530  0.19280  Biso   1.000  C
  C41      1.0000 0.79530  0.13320  0.55720  Biso   1.000  C
  C42      1.0000 0.20470  0.36680  0.55720  Biso   1.000  C
  C43      1.0000 0.61680  0.04530  0.80720  Biso   1.000  C
  C44      1.0000 0.38320  0.45470  0.80720  Biso   1.000  C
  C45      1.0000 0.29530  0.63320  0.05720  Biso   1.000  C
  C46      1.0000 0.70470  0.86680  0.05720  Biso   1.000  C
  C47      1.0000 0.11680  0.54530  0.30720  Biso   1.000  C
  C48      1.0000 0.88320  0.95470  0.30720  Biso   1.000  C
  C49      1.0000 0.27470  0.85140  0.47510  Biso   1.000  C
  C50      1.0000 0.72530  0.64860  0.47510  Biso   1.000  C
  C51      1.0000 0.89860  0.52470  0.72510  Biso   1.000  C
  C52      1.0000 0.10140  0.97530  0.72510  Biso   1.000  C
  C53      1.0000 0.77470  0.35140  0.97510  Biso   1.000  C
  C54      1.0000 0.22530  0.14860  0.97510  Biso   1.000  C
  C55      1.0000 0.39860  0.02470  0.22510  Biso   1.000  C
  C56      1.0000 0.60140  0.47530  0.22510  Biso   1.000  C
  C57      1.0000 0.72530  0.14860  0.52490  Biso   1.000  C
  C58      1.0000 0.27470  0.35140  0.52490  Biso   1.000  C
  C59      1.0000 0.60140  0.97530  0.77490  Biso   1.000  C
  C60      1.0000 0.39860  0.52470  0.77490  Biso   1.000  C
  C61      1.0000 0.22530  0.64860  0.02490  Biso   1.000  C
  C62      1.0000 0.77470  0.85140  0.02490  Biso   1.000  C
  C63      1.0000 0.10140  0.47530  0.27490  Biso   1.000  C
  C64      1.0000 0.89860  0.02470  0.27490  Biso   1.000  C
  N33      1.0000 0.34490  0.80790  0.45200  Biso   1.000  N
  N34      1.0000 0.65510  0.69210  0.45200  Biso   1.000  N
  N35      1.0000 0.94210  0.59490  0.70200  Biso   1.000  N
  N36      1.0000 0.05790  0.90510  0.70200  Biso   1.000  N
  N37      1.0000 0.84490  0.30790  0.95200  Biso   1.000  N
  N38      1.0000 0.15510  0.19210  0.95200  Biso   1.000  N
  N39      1.0000 0.44210  0.09490  0.20200  Biso   1.000  N
  N40      1.0000 0.55790  0.40510  0.20200  Biso   1.000  N
  N41      1.0000 0.65510  0.19210  0.54800  Biso   1.000  N
  N42      1.0000 0.34490  0.30790  0.54800  Biso   1.000  N
  N43      1.0000 0.55790  0.90510  0.79800  Biso   1.000  N
  N44      1.0000 0.44210  0.59490  0.79800  Biso   1.000  N
  N45      1.0000 0.15510  0.69210  0.04800  Biso   1.000  N
  N46      1.0000 0.84490  0.80790  0.04800  Biso   1.000  N
  N47      1.0000 0.05790  0.40510  0.29800  Biso   1.000  N
  N48      1.0000 0.94210  0.09490  0.29800  Biso   1.000  N
  H17      1.0000 0.34380  0.79010  0.41590  Biso   1.000  H
  H18      1.0000 0.65620  0.70990  0.41590  Biso   1.000  H
  H19      1.0000 0.95990  0.59380  0.66590  Biso   1.000  H
  H20      1.0000 0.04010  0.90620  0.66590  Biso   1.000  H
  H21      1.0000 0.84380  0.29010  0.91590  Biso   1.000  H
  H22      1.0000 0.15620  0.20990  0.91590  Biso   1.000  H
  H23      1.0000 0.45990  0.09380  0.16590  Biso   1.000  H
  H24      1.0000 0.54010  0.40620  0.16590  Biso   1.000  H
  H25      1.0000 0.65620  0.20990  0.58410  Biso   1.000  H
  H26      1.0000 0.34380  0.29010  0.58410  Biso   1.000  H
  H27      1.0000 0.54010  0.90620  0.83410  Biso   1.000  H
  H28      1.0000 0.45990  0.59380  0.83410  Biso   1.000  H
  H29      1.0000 0.15620  0.70990  0.08410  Biso   1.000  H
  H30      1.0000 0.84380  0.79010  0.08410  Biso   1.000  H
  H31      1.0000 0.04010  0.40620  0.33410  Biso   1.000  H
  H32      1.0000 0.95990  0.09380  0.33410  Biso   1.000  H
  H33      1.0000 0.38980  0.79840  0.47360  Biso   1.000  H
  H34      1.0000 0.61020  0.70160  0.47360  Biso   1.000  H
  H35      1.0000 0.95160  0.63980  0.72360  Biso   1.000  H
  H36      1.0000 0.04840  0.86020  0.72360  Biso   1.000  H
  H37      1.0000 0.88980  0.29840  0.97360  Biso   1.000  H
  H38      1.0000 0.11020  0.20160  0.97360  Biso   1.000  H
  H39      1.0000 0.45160  0.13980  0.22360  Biso   1.000  H
  H40      1.0000 0.54840  0.36020  0.22360  Biso   1.000  H
  H41      1.0000 0.61020  0.20160  0.52640  Biso   1.000  H
  H42      1.0000 0.38980  0.29840  0.52640  Biso   1.000  H
  H43      1.0000 0.54840  0.86020  0.77640  Biso   1.000  H
  H44      1.0000 0.45160  0.63980  0.77640  Biso   1.000  H
  H45      1.0000 0.11020  0.70160  0.02640  Biso   1.000  H
  H46      1.0000 0.88980  0.79840  0.02640  Biso   1.000  H
  H47      1.0000 0.04840  0.36020  0.27640  Biso   1.000  H
  H48      1.0000 0.95160  0.13980  0.27640  Biso   1.000  H
  N49      1.0000 0.18230  0.84830  0.38620  Biso   1.000  N
  N50      1.0000 0.81770  0.65170  0.38620  Biso   1.000  N
  N51      1.0000 0.90170  0.43230  0.63620  Biso   1.000  N
  N52      1.0000 0.09830  0.06770  0.63620  Biso   1.000  N
  N53      1.0000 0.68230  0.34830  0.88620  Biso   1.000  N
  N54      1.0000 0.31770  0.15170  0.88620  Biso   1.000  N
  N55      1.0000 0.40170  0.93230  0.13620  Biso   1.000  N
  N56      1.0000 0.59830  0.56770  0.13620  Biso   1.000  N
  N57      1.0000 0.81770  0.15170  0.61380  Biso   1.000  N
  N58      1.0000 0.18230  0.34830  0.61380  Biso   1.000  N
  N59      1.0000 0.59830  0.06770  0.86380  Biso   1.000  N
  N60      1.0000 0.40170  0.43230  0.86380  Biso   1.000  N
  N61      1.0000 0.31770  0.65170  0.11380  Biso   1.000  N
  N62      1.0000 0.68230  0.84830  0.11380  Biso   1.000  N
  N63      1.0000 0.09830  0.56770  0.36380  Biso   1.000  N
  N64      1.0000 0.90170  0.93230  0.36380  Biso   1.000  N
  C65      1.0000 0.10280  0.88160  0.38300  Biso   1.000  C
  C66      1.0000 0.89720  0.61840  0.38300  Biso   1.000  C
  C67      1.0000 0.86840  0.35280  0.63300  Biso   1.000  C
  C68      1.0000 0.13160  0.14720  0.63300  Biso   1.000  C
  C69      1.0000 0.60280  0.38160  0.88300  Biso   1.000  C
  C70      1.0000 0.39720  0.11840  0.88300  Biso   1.000  C
  C71      1.0000 0.36840  0.85280  0.13300  Biso   1.000  C
  C72      1.0000 0.63160  0.64720  0.13300  Biso   1.000  C
  C73      1.0000 0.89720  0.11840  0.61700  Biso   1.000  C
  C74      1.0000 0.10280  0.38160  0.61700  Biso   1.000  C
  C75      1.0000 0.63160  0.14720  0.86700  Biso   1.000  C
  C76      1.0000 0.36840  0.35280  0.86700  Biso   1.000  C
  C77      1.0000 0.39720  0.61840  0.11700  Biso   1.000  C
  C78      1.0000 0.60280  0.88160  0.11700  Biso   1.000  C
  C79      1.0000 0.13160  0.64720  0.36700  Biso   1.000  C
  C80      1.0000 0.86840  0.85280  0.36700  Biso   1.000  C
  H49      1.0000 0.07020  0.87850  0.34850  Biso   1.000  H
  H50      1.0000 0.92980  0.62150  0.34850  Biso   1.000  H
  H51      1.0000 0.87150  0.32020  0.59850  Biso   1.000  H
  H52      1.0000 0.12850  0.17980  0.59850  Biso   1.000  H
  H53      1.0000 0.57020  0.37850  0.84850  Biso   1.000  H
  H54      1.0000 0.42980  0.12150  0.84850  Biso   1.000  H
  H55      1.0000 0.37150  0.82020  0.09850  Biso   1.000  H
  H56      1.0000 0.62850  0.67980  0.09850  Biso   1.000  H
  H57      1.0000 0.92980  0.12150  0.65150  Biso   1.000  H
  H58      1.0000 0.07020  0.37850  0.65150  Biso   1.000  H
  H59      1.0000 0.62850  0.17980  0.90150  Biso   1.000  H
  H60      1.0000 0.37150  0.32020  0.90150  Biso   1.000  H
  H61      1.0000 0.42980  0.62150  0.15150  Biso   1.000  H
  H62      1.0000 0.57020  0.87850  0.15150  Biso   1.000  H
  H63      1.0000 0.12850  0.67980  0.40150  Biso   1.000  H
  H64      1.0000 0.87150  0.82020  0.40150  Biso   1.000  H
  N65      1.0000 0.07100  0.92040  0.43250  Biso   1.000  N
  N66      1.0000 0.92900  0.57960  0.43250  Biso   1.000  N
  N67      1.0000 0.82960  0.32100  0.68250  Biso   1.000  N
  N68      1.0000 0.17040  0.17900  0.68250  Biso   1.000  N
  N69      1.0000 0.57100  0.42040  0.93250  Biso   1.000  N
  N70      1.0000 0.42900  0.07960  0.93250  Biso   1.000  N
  N71      1.0000 0.32960  0.82100  0.18250  Biso   1.000  N
  N72      1.0000 0.67040  0.67900  0.18250  Biso   1.000  N
  N73      1.0000 0.92900  0.07960  0.56750  Biso   1.000  N
  N74      1.0000 0.07100  0.42040  0.56750  Biso   1.000  N
  N75      1.0000 0.67040  0.17900  0.81750  Biso   1.000  N
  N76      1.0000 0.32960  0.32100  0.81750  Biso   1.000  N
  N77      1.0000 0.42900  0.57960  0.06750  Biso   1.000  N
  N78      1.0000 0.57100  0.92040  0.06750  Biso   1.000  N
  N79      1.0000 0.17040  0.67900  0.31750  Biso   1.000  N
  N80      1.0000 0.82960  0.82100  0.31750  Biso   1.000  N
  C81      1.0000 0.92450  0.87170  0.54880  Biso   1.000  C
  C82      1.0000 0.07550  0.62830  0.54880  Biso   1.000  C
  C83      1.0000 0.87830  0.17450  0.79880  Biso   1.000  C
  C84      1.0000 0.12170  0.32550  0.79880  Biso   1.000  C
  C85      1.0000 0.42450  0.37170  0.04880  Biso   1.000  C
  C86      1.0000 0.57550  0.12830  0.04880  Biso   1.000  C
  C87      1.0000 0.37830  0.67450  0.29880  Biso   1.000  C
  C88      1.0000 0.62170  0.82550  0.29880  Biso   1.000  C
  C89      1.0000 0.07550  0.12830  0.45120  Biso   1.000  C
  C90      1.0000 0.92450  0.37170  0.45120  Biso   1.000  C
  C91      1.0000 0.62170  0.32550  0.70120  Biso   1.000  C
  C92      1.0000 0.37830  0.17450  0.70120  Biso   1.000  C
  C93      1.0000 0.57550  0.62830  0.95120  Biso   1.000  C
  C94      1.0000 0.42450  0.87170  0.95120  Biso   1.000  C
  C95      1.0000 0.12170  0.82550  0.20120  Biso   1.000  C
  C96      1.0000 0.87830  0.67450  0.20120  Biso   1.000  C
  O1       1.0000 0.97660  0.90890  0.58261  Biso   1.000  O
  O2       1.0000 0.02340  0.59110  0.58261  Biso   1.000  O
  O3       1.0000 0.84110  0.22660  0.83261  Biso   1.000  O
  O4       1.0000 0.15890  0.27340  0.83261  Biso   1.000  O
  O5       1.0000 0.47660  0.40890  0.08261  Biso   1.000  O
  O6       1.0000 0.52340  0.09110  0.08261  Biso   1.000  O
  O7       1.0000 0.34110  0.72660  0.33261  Biso   1.000  O
  O8       1.0000 0.65890  0.77340  0.33261  Biso   1.000  O
  O9       1.0000 0.02340  0.09110  0.41739  Biso   1.000  O
  O10      1.0000 0.97660  0.40890  0.41739  Biso   1.000  O
  O11      1.0000 0.65890  0.27340  0.66739  Biso   1.000  O
  O12      1.0000 0.34110  0.22660  0.66739  Biso   1.000  O
  O13      1.0000 0.52340  0.59110  0.91739  Biso   1.000  O
  O14      1.0000 0.47660  0.90890  0.91739  Biso   1.000  O
  O15      1.0000 0.15890  0.77340  0.16739  Biso   1.000  O
  O16      1.0000 0.84110  0.72660  0.16739  Biso   1.000  O
  O17      1.0000 0.91450  0.88870  0.49508  Biso   1.000  O
  O18      1.0000 0.08550  0.61130  0.49508  Biso   1.000  O
  O19      1.0000 0.86130  0.16450  0.74508  Biso   1.000  O
  O20      1.0000 0.13870  0.33550  0.74508  Biso   1.000  O
  O21      1.0000 0.41450  0.38870  0.99508  Biso   1.000  O
  O22      1.0000 0.58550  0.11130  0.99508  Biso   1.000  O
  O23      1.0000 0.36130  0.66450  0.24508  Biso   1.000  O
  O24      1.0000 0.63870  0.83550  0.24508  Biso   1.000  O
  O25      1.0000 0.08550  0.11130  0.50492  Biso   1.000  O
  O26      1.0000 0.91450  0.38870  0.50492  Biso   1.000  O
  O27      1.0000 0.63870  0.33550  0.75492  Biso   1.000  O
  O28      1.0000 0.36130  0.16450  0.75492  Biso   1.000  O
  O29      1.0000 0.58550  0.61130  0.00492  Biso   1.000  O
  O30      1.0000 0.41450  0.88870  0.00492  Biso   1.000  O
  O31      1.0000 0.13870  0.83550  0.25492  Biso   1.000  O
  O32      1.0000 0.86130  0.66450  0.25492  Biso   1.000  O
  C97      1.0000 0.86360  0.80180  0.57120  Biso   1.000  C
  C98      1.0000 0.13640  0.69820  0.57120  Biso   1.000  C
  C99      1.0000 0.94820  0.11360  0.82120  Biso   1.000  C
  C100     1.0000 0.05180  0.38640  0.82120  Biso   1.000  C
  C101     1.0000 0.36360  0.30180  0.07120  Biso   1.000  C
  C102     1.0000 0.63640  0.19820  0.07120  Biso   1.000  C
  C103     1.0000 0.44820  0.61360  0.32120  Biso   1.000  C
  C104     1.0000 0.55180  0.88640  0.32120  Biso   1.000  C
  C105     1.0000 0.13640  0.19820  0.42880  Biso   1.000  C
  C106     1.0000 0.86360  0.30180  0.42880  Biso   1.000  C
  C107     1.0000 0.55180  0.38640  0.67880  Biso   1.000  C
  C108     1.0000 0.44820  0.11360  0.67880  Biso   1.000  C
  C109     1.0000 0.63640  0.69820  0.92880  Biso   1.000  C
  C110     1.0000 0.36360  0.80180  0.92880  Biso   1.000  C
  C111     1.0000 0.05180  0.88640  0.17880  Biso   1.000  C
  C112     1.0000 0.94820  0.61360  0.17880  Biso   1.000  C
  H65      1.0000 0.80480  0.81860  0.56100  Biso   1.000  H
  H66      1.0000 0.19520  0.68140  0.56100  Biso   1.000  H
  H67      1.0000 0.93140  0.05480  0.81100  Biso   1.000  H
  H68      1.0000 0.06860  0.44520  0.81100  Biso   1.000  H
  H69      1.0000 0.30480  0.31860  0.06100  Biso   1.000  H
  H70      1.0000 0.69520  0.18140  0.06100  Biso   1.000  H
  H71      1.0000 0.43140  0.55480  0.31100  Biso   1.000  H
  H72      1.0000 0.56860  0.94520  0.31100  Biso   1.000  H
  H73      1.0000 0.19520  0.18140  0.43900  Biso   1.000  H
  H74      1.0000 0.80480  0.31860  0.43900  Biso   1.000  H
  H75      1.0000 0.56860  0.44520  0.68900  Biso   1.000  H
  H76      1.0000 0.43140  0.05480  0.68900  Biso   1.000  H
  H77      1.0000 0.69520  0.68140  0.93900  Biso   1.000  H
  H78      1.0000 0.30480  0.81860  0.93900  Biso   1.000  H
  H79      1.0000 0.06860  0.94520  0.18900  Biso   1.000  H
  H80      1.0000 0.93140  0.55480  0.18900  Biso   1.000  H
  H81      1.0000 0.87640  0.74860  0.55000  Biso   1.000  H
  H82      1.0000 0.12360  0.75140  0.55000  Biso   1.000  H
  H83      1.0000 0.00140  0.12640  0.80000  Biso   1.000  H
  H84      1.0000 0.99860  0.37360  0.80000  Biso   1.000  H
  H85      1.0000 0.37640  0.24860  0.05000  Biso   1.000  H
  H86      1.0000 0.62360  0.25140  0.05000  Biso   1.000  H
  H87      1.0000 0.50140  0.62640  0.30000  Biso   1.000  H
  H88      1.0000 0.49860  0.87360  0.30000  Biso   1.000  H
  H89      1.0000 0.12360  0.25140  0.45000  Biso   1.000  H
  H90      1.0000 0.87640  0.24860  0.45000  Biso   1.000  H
  H91      1.0000 0.49860  0.37360  0.70000  Biso   1.000  H
  H92      1.0000 0.50140  0.12640  0.70000  Biso   1.000  H
  H93      1.0000 0.62360  0.75140  0.95000  Biso   1.000  H
  H94      1.0000 0.37640  0.74860  0.95000  Biso   1.000  H
  H95      1.0000 0.99860  0.87360  0.20000  Biso   1.000  H
  H96      1.0000 0.00140  0.62640  0.20000  Biso   1.000  H
  C113     1.0000 0.86580  0.78260  0.63440  Biso   1.000  C
  C114     1.0000 0.13420  0.71740  0.63440  Biso   1.000  C
  C115     1.0000 0.96740  0.11580  0.88440  Biso   1.000  C
  C116     1.0000 0.03260  0.38420  0.88440  Biso   1.000  C
  C117     1.0000 0.36580  0.28260  0.13440  Biso   1.000  C
  C118     1.0000 0.63420  0.21740  0.13440  Biso   1.000  C
  C119     1.0000 0.46740  0.61580  0.38440  Biso   1.000  C
  C120     1.0000 0.53260  0.88420  0.38440  Biso   1.000  C
  C121     1.0000 0.13420  0.21740  0.36560  Biso   1.000  C
  C122     1.0000 0.86580  0.28260  0.36560  Biso   1.000  C
  C123     1.0000 0.53260  0.38420  0.61560  Biso   1.000  C
  C124     1.0000 0.46740  0.11580  0.61560  Biso   1.000  C
  C125     1.0000 0.63420  0.71740  0.86560  Biso   1.000  C
  C126     1.0000 0.36580  0.78260  0.86560  Biso   1.000  C
  C127     1.0000 0.03260  0.88420  0.11560  Biso   1.000  C
  C128     1.0000 0.96740  0.61580  0.11560  Biso   1.000  C
  H97      1.0000 0.92550  0.77000  0.64510  Biso   1.000  H
  H98      1.0000 0.07450  0.73000  0.64510  Biso   1.000  H
  H99      1.0000 0.98000  0.17550  0.89510  Biso   1.000  H
  H100     1.0000 0.02000  0.32450  0.89510  Biso   1.000  H
  H101     1.0000 0.42550  0.27000  0.14510  Biso   1.000  H
  H102     1.0000 0.57450  0.23000  0.14510  Biso   1.000  H
  H103     1.0000 0.48000  0.67550  0.39510  Biso   1.000  H
  H104     1.0000 0.52000  0.82450  0.39510  Biso   1.000  H
  H105     1.0000 0.07450  0.23000  0.35490  Biso   1.000  H
  H106     1.0000 0.92550  0.27000  0.35490  Biso   1.000  H
  H107     1.0000 0.52000  0.32450  0.60490  Biso   1.000  H
  H108     1.0000 0.48000  0.17550  0.60490  Biso   1.000  H
  H109     1.0000 0.57450  0.73000  0.85490  Biso   1.000  H
  H110     1.0000 0.42550  0.77000  0.85490  Biso   1.000  H
  H111     1.0000 0.02000  0.82450  0.10490  Biso   1.000  H
  H112     1.0000 0.98000  0.67550  0.10490  Biso   1.000  H
  H113     1.0000 0.83260  0.72990  0.64090  Biso   1.000  H
  H114     1.0000 0.16740  0.77010  0.64090  Biso   1.000  H
  H115     1.0000 0.02010  0.08260  0.89090  Biso   1.000  H
  H116     1.0000 0.97990  0.41740  0.89090  Biso   1.000  H
  H117     1.0000 0.33260  0.22990  0.14090  Biso   1.000  H
  H118     1.0000 0.66740  0.27010  0.14090  Biso   1.000  H
  H119     1.0000 0.52010  0.58260  0.39090  Biso   1.000  H
  H120     1.0000 0.47990  0.91740  0.39090  Biso   1.000  H
  H121     1.0000 0.16740  0.27010  0.35910  Biso   1.000  H
  H122     1.0000 0.83260  0.22990  0.35910  Biso   1.000  H
  H123     1.0000 0.47990  0.41740  0.60910  Biso   1.000  H
  H124     1.0000 0.52010  0.08260  0.60910  Biso   1.000  H
  H125     1.0000 0.66740  0.77010  0.85910  Biso   1.000  H
  H126     1.0000 0.33260  0.72990  0.85910  Biso   1.000  H
  H127     1.0000 0.97990  0.91740  0.10910  Biso   1.000  H
  H128     1.0000 0.02010  0.58260  0.10910  Biso   1.000  H
  C129     1.0000 0.83170  0.85190  0.67710  Biso   1.000  C
  C130     1.0000 0.16830  0.64810  0.67710  Biso   1.000  C
  C131     1.0000 0.89810  0.08170  0.92710  Biso   1.000  C
  C132     1.0000 0.10190  0.41830  0.92710  Biso   1.000  C
  C133     1.0000 0.33170  0.35190  0.17710  Biso   1.000  C
  C134     1.0000 0.66830  0.14810  0.17710  Biso   1.000  C
  C135     1.0000 0.39810  0.58170  0.42710  Biso   1.000  C
  C136     1.0000 0.60190  0.91830  0.42710  Biso   1.000  C
  C137     1.0000 0.16830  0.14810  0.32290  Biso   1.000  C
  C138     1.0000 0.83170  0.35190  0.32290  Biso   1.000  C
  C139     1.0000 0.60190  0.41830  0.57290  Biso   1.000  C
  C140     1.0000 0.39810  0.08170  0.57290  Biso   1.000  C
  C141     1.0000 0.66830  0.64810  0.82290  Biso   1.000  C
  C142     1.0000 0.33170  0.85190  0.82290  Biso   1.000  C
  C143     1.0000 0.10190  0.91830  0.07290  Biso   1.000  C
  C144     1.0000 0.89810  0.58170  0.07290  Biso   1.000  C
  H129     1.0000 0.85780  0.90760  0.66770  Biso   1.000  H
  H130     1.0000 0.14220  0.59240  0.66770  Biso   1.000  H
  H131     1.0000 0.84240  0.10780  0.91770  Biso   1.000  H
  H132     1.0000 0.15760  0.39220  0.91770  Biso   1.000  H
  H133     1.0000 0.35780  0.40760  0.16770  Biso   1.000  H
  H134     1.0000 0.64220  0.09240  0.16770  Biso   1.000  H
  H135     1.0000 0.34240  0.60780  0.41770  Biso   1.000  H
  H136     1.0000 0.65760  0.89220  0.41770  Biso   1.000  H
  H137     1.0000 0.14220  0.09240  0.33230  Biso   1.000  H
  H138     1.0000 0.85780  0.40760  0.33230  Biso   1.000  H
  H139     1.0000 0.65760  0.39220  0.58230  Biso   1.000  H
  H140     1.0000 0.34240  0.10780  0.58230  Biso   1.000  H
  H141     1.0000 0.64220  0.59240  0.83230  Biso   1.000  H
  H142     1.0000 0.35780  0.90760  0.83230  Biso   1.000  H
  H143     1.0000 0.15760  0.89220  0.08230  Biso   1.000  H
  H144     1.0000 0.84240  0.60780  0.08230  Biso   1.000  H
  H145     1.0000 0.76930  0.85730  0.67280  Biso   1.000  H
  H146     1.0000 0.23070  0.64270  0.67280  Biso   1.000  H
  H147     1.0000 0.89270  0.01930  0.92280  Biso   1.000  H
  H148     1.0000 0.10730  0.48070  0.92280  Biso   1.000  H
  H149     1.0000 0.26930  0.35730  0.17280  Biso   1.000  H
  H150     1.0000 0.73070  0.14270  0.17280  Biso   1.000  H
  H151     1.0000 0.39270  0.51930  0.42280  Biso   1.000  H
  H152     1.0000 0.60730  0.98070  0.42280  Biso   1.000  H
  H153     1.0000 0.23070  0.14270  0.32720  Biso   1.000  H
  H154     1.0000 0.76930  0.35730  0.32720  Biso   1.000  H
  H155     1.0000 0.60730  0.48070  0.57720  Biso   1.000  H
  H156     1.0000 0.39270  0.01930  0.57720  Biso   1.000  H
  H157     1.0000 0.73070  0.64270  0.82720  Biso   1.000  H
  H158     1.0000 0.26930  0.85730  0.82720  Biso   1.000  H
  H159     1.0000 0.10730  0.98070  0.07720  Biso   1.000  H
  H160     1.0000 0.89270  0.51930  0.07720  Biso   1.000  H
  C145     1.0000 0.85310  0.82780  0.73890  Biso   1.000  C
  C146     1.0000 0.14690  0.67220  0.73890  Biso   1.000  C
  C147     1.0000 0.92220  0.10310  0.98890  Biso   1.000  C
  C148     1.0000 0.07780  0.39690  0.98890  Biso   1.000  C
  C149     1.0000 0.35310  0.32780  0.23890  Biso   1.000  C
  C150     1.0000 0.64690  0.17220  0.23890  Biso   1.000  C
  C151     1.0000 0.42220  0.60310  0.48890  Biso   1.000  C
  C152     1.0000 0.57780  0.89690  0.48890  Biso   1.000  C
  C153     1.0000 0.14690  0.17220  0.26110  Biso   1.000  C
  C154     1.0000 0.85310  0.32780  0.26110  Biso   1.000  C
  C155     1.0000 0.57780  0.39690  0.51110  Biso   1.000  C
  C156     1.0000 0.42220  0.10310  0.51110  Biso   1.000  C
  C157     1.0000 0.64690  0.67220  0.76110  Biso   1.000  C
  C158     1.0000 0.35310  0.82780  0.76110  Biso   1.000  C
  C159     1.0000 0.07780  0.89690  0.01110  Biso   1.000  C
  C160     1.0000 0.92220  0.60310  0.01110  Biso   1.000  C
  O33      1.0000 0.88820  0.76210  0.75400  Biso   1.000  O
  O34      1.0000 0.11180  0.73790  0.75400  Biso   1.000  O
  O35      1.0000 0.98790  0.13820  0.00400  Biso   1.000  O
  O36      1.0000 0.01210  0.36180  0.00400  Biso   1.000  O
  O37      1.0000 0.38820  0.26210  0.25400  Biso   1.000  O
  O38      1.0000 0.61180  0.23790  0.25400  Biso   1.000  O
  O39      1.0000 0.48790  0.63820  0.50400  Biso   1.000  O
  O40      1.0000 0.51210  0.86180  0.50400  Biso   1.000  O
  O41      1.0000 0.11180  0.23790  0.24600  Biso   1.000  O
  O42      1.0000 0.88820  0.26210  0.24600  Biso   1.000  O
  O43      1.0000 0.51210  0.36180  0.49600  Biso   1.000  O
  O44      1.0000 0.48790  0.13820  0.49600  Biso   1.000  O
  O45      1.0000 0.61180  0.73790  0.74600  Biso   1.000  O
  O46      1.0000 0.38820  0.76210  0.74600  Biso   1.000  O
  O47      1.0000 0.01210  0.86180  0.99600  Biso   1.000  O
  O48      1.0000 0.98790  0.63820  0.99600  Biso   1.000  O
  O49      1.0000 0.83670  0.88880  0.77580  Biso   1.000  O
  O50      1.0000 0.16330  0.61120  0.77580  Biso   1.000  O
  O51      1.0000 0.86120  0.08670  0.02580  Biso   1.000  O
  O52      1.0000 0.13880  0.41330  0.02580  Biso   1.000  O
  O53      1.0000 0.33670  0.38880  0.27580  Biso   1.000  O
  O54      1.0000 0.66330  0.11120  0.27580  Biso   1.000  O
  O55      1.0000 0.36120  0.58670  0.52580  Biso   1.000  O
  O56      1.0000 0.63880  0.91330  0.52580  Biso   1.000  O
  O57      1.0000 0.16330  0.11120  0.22420  Biso   1.000  O
  O58      1.0000 0.83670  0.38880  0.22420  Biso   1.000  O
  O59      1.0000 0.63880  0.41330  0.47420  Biso   1.000  O
  O60      1.0000 0.36120  0.08670  0.47420  Biso   1.000  O
  O61      1.0000 0.66330  0.61120  0.72420  Biso   1.000  O
  O62      1.0000 0.33670  0.88880  0.72420  Biso   1.000  O
  O63      1.0000 0.13880  0.91330  0.97420  Biso   1.000  O
  O64      1.0000 0.86120  0.58670  0.97420  Biso   1.000  O
  O65      1.0000 0.89890  0.83620  0.88100  Biso   1.000  O
  O66      1.0000 0.10110  0.66380  0.88100  Biso   1.000  O
  O67      1.0000 0.91380  0.14890  0.13100  Biso   1.000  O
  O68      1.0000 0.08620  0.35110  0.13100  Biso   1.000  O
  O69      1.0000 0.39890  0.33620  0.38100  Biso   1.000  O
  O70      1.0000 0.60110  0.16380  0.38100  Biso   1.000  O
  O71      1.0000 0.41380  0.64890  0.63100  Biso   1.000  O
  O72      1.0000 0.58620  0.85110  0.63100  Biso   1.000  O
  O73      1.0000 0.10110  0.16380  0.11900  Biso   1.000  O
  O74      1.0000 0.89890  0.33620  0.11900  Biso   1.000  O
  O75      1.0000 0.58620  0.35110  0.36900  Biso   1.000  O
  O76      1.0000 0.41380  0.14890  0.36900  Biso   1.000  O
  O77      1.0000 0.60110  0.66380  0.61900  Biso   1.000  O
  O78      1.0000 0.39890  0.83620  0.61900  Biso   1.000  O
  O79      1.0000 0.08620  0.85110  0.86900  Biso   1.000  O
  O80      1.0000 0.91380  0.64890  0.86900  Biso   1.000  O
  H161     1.0000 0.90900  0.78130  0.88140  Biso   1.000  H
  H162     1.0000 0.09100  0.71870  0.88140  Biso   1.000  H
  H163     1.0000 0.96870  0.15900  0.13140  Biso   1.000  H
  H164     1.0000 0.03130  0.34100  0.13140  Biso   1.000  H
  H165     1.0000 0.40900  0.28130  0.38140  Biso   1.000  H
  H166     1.0000 0.59100  0.21870  0.38140  Biso   1.000  H
  H167     1.0000 0.46870  0.65900  0.63140  Biso   1.000  H
  H168     1.0000 0.53130  0.84100  0.63140  Biso   1.000  H
  H169     1.0000 0.09100  0.21870  0.11860  Biso   1.000  H
  H170     1.0000 0.90900  0.28130  0.11860  Biso   1.000  H
  H171     1.0000 0.53130  0.34100  0.36860  Biso   1.000  H
  H172     1.0000 0.46870  0.15900  0.36860  Biso   1.000  H
  H173     1.0000 0.59100  0.71870  0.61860  Biso   1.000  H
  H174     1.0000 0.40900  0.78130  0.61860  Biso   1.000  H
  H175     1.0000 0.03130  0.84100  0.86860  Biso   1.000  H
  H176     1.0000 0.96870  0.65900  0.86860  Biso   1.000  H
  H177     1.0000 0.86460  0.83950  0.91090  Biso   1.000  H
  H178     1.0000 0.13540  0.66050  0.91090  Biso   1.000  H
  H179     1.0000 0.91050  0.11460  0.16090  Biso   1.000  H
  H180     1.0000 0.08950  0.38540  0.16090  Biso   1.000  H
  H181     1.0000 0.36460  0.33950  0.41090  Biso   1.000  H
  H182     1.0000 0.63540  0.16050  0.41090  Biso   1.000  H
  H183     1.0000 0.41050  0.61460  0.66090  Biso   1.000  H
  H184     1.0000 0.58950  0.88540  0.66090  Biso   1.000  H
  H185     1.0000 0.13540  0.16050  0.08910  Biso   1.000  H
  H186     1.0000 0.86460  0.33950  0.08910  Biso   1.000  H
  H187     1.0000 0.58950  0.38540  0.33910  Biso   1.000  H
  H188     1.0000 0.41050  0.11460  0.33910  Biso   1.000  H
  H189     1.0000 0.63540  0.66050  0.58910  Biso   1.000  H
  H190     1.0000 0.36460  0.83950  0.58910  Biso   1.000  H
  H191     1.0000 0.08950  0.88540  0.83910  Biso   1.000  H
  H192     1.0000 0.91050  0.61460  0.83910  Biso   1.000  H
  H193     1.0000 0.85330  0.87440  0.81160  Biso   1.000  H
  H194     1.0000 0.14670  0.62560  0.81160  Biso   1.000  H
  H195     1.0000 0.87560  0.10330  0.06160  Biso   1.000  H
  H196     1.0000 0.12440  0.39670  0.06160  Biso   1.000  H
  H197     1.0000 0.35330  0.37440  0.31160  Biso   1.000  H
  H198     1.0000 0.64670  0.12560  0.31160  Biso   1.000  H
  H199     1.0000 0.37560  0.60330  0.56160  Biso   1.000  H
  H200     1.0000 0.62440  0.89670  0.56160  Biso   1.000  H
  H201     1.0000 0.14670  0.12560  0.18840  Biso   1.000  H
  H202     1.0000 0.85330  0.37440  0.18840  Biso   1.000  H
  H203     1.0000 0.62440  0.39670  0.43840  Biso   1.000  H
  H204     1.0000 0.37560  0.10330  0.43840  Biso   1.000  H
  H205     1.0000 0.64670  0.62560  0.68840  Biso   1.000  H
  H206     1.0000 0.35330  0.87440  0.68840  Biso   1.000  H
  H207     1.0000 0.12440  0.89670  0.93840  Biso   1.000  H
  H208     1.0000 0.87560  0.60330  0.93840  Biso   1.000  H
