data_image0
_cell_length_a       7.8705
_cell_length_b       8.5184
_cell_length_c       11.2615
_cell_angle_alpha    69.155
_cell_angle_beta     77.225
_cell_angle_gamma    65.995

_symmetry_space_group_name_H-M    "P 1"
_symmetry_int_tables_number       1

loop_
  _symmetry_equiv_pos_as_xyz
  'x, y, z'

loop_
  _atom_site_label
  _atom_site_occupancy
  _atom_site_fract_x
  _atom_site_fract_y
  _atom_site_fract_z
  _atom_site_thermal_displace_type
  _atom_site_B_iso_or_equiv
  _atom_site_type_symbol
  Cu1      1.0000 0.50435  0.85711  0.60167  Biso   1.000  Cu
  Cu2      1.0000 0.49565  0.14289  0.39833  Biso   1.000  Cu
  N1       1.0000 0.87170  0.35090  0.99770  Biso   1.000  N
  N2       1.0000 0.12830  0.64910  0.00230  Biso   1.000  N
  C1       1.0000 0.81960  0.20730  0.03620  Biso   1.000  C
  C2       1.0000 0.18040  0.79270  0.96380  Biso   1.000  C
  H1       1.0000 0.88340  0.11130  0.10160  Biso   1.000  H
  H2       1.0000 0.11660  0.88870  0.89840  Biso   1.000  H
  N3       1.0000 0.68980  0.18230  0.99420  Biso   1.000  N
  N4       1.0000 0.31020  0.81770  0.00580  Biso   1.000  N
  C3       1.0000 0.60290  0.33100  0.90190  Biso   1.000  C
  C4       1.0000 0.39710  0.66900  0.09810  Biso   1.000  C
  C5       1.0000 0.64110  0.48840  0.85060  Biso   1.000  C
  C6       1.0000 0.35890  0.51160  0.14940  Biso   1.000  C
  C7       1.0000 0.78510  0.49610  0.90200  Biso   1.000  C
  C8       1.0000 0.21490  0.50390  0.09800  Biso   1.000  C
  N5       1.0000 0.84170  0.63620  0.86210  Biso   1.000  N
  N6       1.0000 0.15830  0.36380  0.13790  Biso   1.000  N
  H3       1.0000 0.93050  0.63270  0.89690  Biso   1.000  H
  H4       1.0000 0.06950  0.36730  0.10310  Biso   1.000  H
  H5       1.0000 0.78930  0.72980  0.80170  Biso   1.000  H
  H6       1.0000 0.21070  0.27020  0.19830  Biso   1.000  H
  N7       1.0000 0.52050  0.60890  0.75690  Biso   1.000  N
  N8       1.0000 0.47950  0.39110  0.24310  Biso   1.000  N
  C9       1.0000 0.41670  0.52240  0.75510  Biso   1.000  C
  C10      1.0000 0.58330  0.47760  0.24490  Biso   1.000  C
  H7       1.0000 0.32250  0.57130  0.70080  Biso   1.000  H
  H8       1.0000 0.67750  0.42870  0.29920  Biso   1.000  H
  N9       1.0000 0.45900  0.35500  0.83960  Biso   1.000  N
  N10      1.0000 0.54100  0.64500  0.16040  Biso   1.000  N
  C11      1.0000 0.36690  0.22630  0.86350  Biso   1.000  C
  C12      1.0000 0.63310  0.77370  0.13650  Biso   1.000  C
  H9       1.0000 0.42620  0.11810  0.92830  Biso   1.000  H
  H10      1.0000 0.57380  0.88190  0.07170  Biso   1.000  H
  H11      1.0000 0.37660  0.19820  0.78630  Biso   1.000  H
  H12      1.0000 0.62340  0.80180  0.21370  Biso   1.000  H
  H13      1.0000 0.23760  0.27820  0.89140  Biso   1.000  H
  H14      1.0000 0.76240  0.72180  0.10860  Biso   1.000  H
  C13      1.0000 0.79220  0.81160  0.39620  Biso   1.000  C
  C14      1.0000 0.20780  0.18840  0.60380  Biso   1.000  C
  C15      1.0000 0.98230  0.70220  0.34570  Biso   1.000  C
  C16      1.0000 0.01770  0.29780  0.65430  Biso   1.000  C
  H15      1.0000 0.99440  0.57710  0.36970  Biso   1.000  H
  H16      1.0000 0.00560  0.42290  0.63030  Biso   1.000  H
  H17      1.0000 0.99620  0.74700  0.25330  Biso   1.000  H
  H18      1.0000 0.00380  0.25300  0.74670  Biso   1.000  H
  C17      1.0000 0.13410  0.71710  0.40160  Biso   1.000  C
  C18      1.0000 0.86590  0.28290  0.59840  Biso   1.000  C
  H19      1.0000 0.25320  0.62650  0.38600  Biso   1.000  H
  H20      1.0000 0.74680  0.37350  0.61400  Biso   1.000  H
  H21      1.0000 0.10570  0.69280  0.49330  Biso   1.000  H
  H22      1.0000 0.89430  0.30720  0.50670  Biso   1.000  H
  C19      1.0000 0.15030  0.90190  0.34470  Biso   1.000  C
  C20      1.0000 0.84970  0.09810  0.65530  Biso   1.000  C
  H23      1.0000 0.02820  0.99240  0.35460  Biso   1.000  H
  H24      1.0000 0.97180  0.00760  0.64540  Biso   1.000  H
  H25      1.0000 0.18660  0.92180  0.25400  Biso   1.000  H
  H26      1.0000 0.81340  0.07820  0.74600  Biso   1.000  H
  C21      1.0000 0.28810  0.92870  0.40300  Biso   1.000  C
  C22      1.0000 0.71190  0.07130  0.59700  Biso   1.000  C
  O1       1.0000 0.72610  0.73410  0.50250  Biso   1.000  O
  O2       1.0000 0.27390  0.26590  0.49750  Biso   1.000  O
  O3       1.0000 0.72030  0.97360  0.33309  Biso   1.000  O
  O4       1.0000 0.27970  0.02640  0.66691  Biso   1.000  O
  O5       1.0000 0.34030  0.82400  0.50984  Biso   1.000  O
  O6       1.0000 0.65970  0.17600  0.49016  Biso   1.000  O
  O7       1.0000 0.33970  0.05990  0.33975  Biso   1.000  O
  O8       1.0000 0.66030  0.94010  0.66025  Biso   1.000  O
