data_image0
_cell_length_a       7.758
_cell_length_b       8.341
_cell_length_c       11.773
_cell_angle_alpha    100.98
_cell_angle_beta     97.44
_cell_angle_gamma    94.19

_symmetry_space_group_name_H-M    "P 1"
_symmetry_int_tables_number       1

loop_
  _symmetry_equiv_pos_as_xyz
  'x, y, z'

loop_
  _atom_site_label
  _atom_site_occupancy
  _atom_site_fract_x
  _atom_site_fract_y
  _atom_site_fract_z
  _atom_site_thermal_displace_type
  _atom_site_B_iso_or_equiv
  _atom_site_type_symbol
  Cu1      1.0000 0.01237  0.05165  0.39955  Biso   1.000  Cu
  Cu2      1.0000 0.98763  0.94835  0.60045  Biso   1.000  Cu
  N1       1.0000 0.71440  0.12190  0.97650  Biso   1.000  N
  N2       1.0000 0.28560  0.87810  0.02350  Biso   1.000  N
  C1       1.0000 0.82370  0.19750  0.92310  Biso   1.000  C
  C2       1.0000 0.17630  0.80250  0.07690  Biso   1.000  C
  H1       1.0000 0.78160  0.21330  0.84890  Biso   1.000  H
  H2       1.0000 0.21840  0.78670  0.15110  Biso   1.000  H
  N3       1.0000 0.99140  0.25440  0.96590  Biso   1.000  N
  N4       1.0000 0.00860  0.74560  0.03410  Biso   1.000  N
  C3       1.0000 0.10380  0.33900  0.89960  Biso   1.000  C
  C4       1.0000 0.89620  0.66100  0.10040  Biso   1.000  C
  H3       1.0000 0.04010  0.34180  0.82460  Biso   1.000  H
  H4       1.0000 0.95990  0.65820  0.17540  Biso   1.000  H
  H5       1.0000 0.20500  0.28120  0.88900  Biso   1.000  H
  H6       1.0000 0.79500  0.71880  0.11100  Biso   1.000  H
  H7       1.0000 0.13970  0.44910  0.94190  Biso   1.000  H
  H8       1.0000 0.86030  0.55090  0.05810  Biso   1.000  H
  C5       1.0000 0.05280  0.22610  0.07500  Biso   1.000  C
  C6       1.0000 0.94720  0.77390  0.92500  Biso   1.000  C
  C7       1.0000 0.94550  0.14490  0.13590  Biso   1.000  C
  C8       1.0000 0.05450  0.85510  0.86410  Biso   1.000  C
  C9       1.0000 0.77110  0.09500  0.08670  Biso   1.000  C
  C10      1.0000 0.22890  0.90500  0.91330  Biso   1.000  C
  N5       1.0000 0.65280  0.02110  0.13820  Biso   1.000  N
  N6       1.0000 0.34720  0.97890  0.86180  Biso   1.000  N
  H9       1.0000 0.54780  0.99310  0.10260  Biso   1.000  H
  H10      1.0000 0.45220  0.00690  0.89740  Biso   1.000  H
  H11      1.0000 0.68170  0.00160  0.20690  Biso   1.000  H
  H12      1.0000 0.31830  0.99840  0.79310  Biso   1.000  H
  N7       1.0000 0.04580  0.13420  0.24030  Biso   1.000  N
  N8       1.0000 0.95420  0.86580  0.75970  Biso   1.000  N
  C11      1.0000 0.20090  0.20710  0.23110  Biso   1.000  C
  C12      1.0000 0.79910  0.79290  0.76890  Biso   1.000  C
  H13      1.0000 0.29580  0.21630  0.28970  Biso   1.000  H
  H14      1.0000 0.70420  0.78370  0.71030  Biso   1.000  H
  N9       1.0000 0.21530  0.26730  0.13280  Biso   1.000  N
  N10      1.0000 0.78470  0.73270  0.86720  Biso   1.000  N
  C13      1.0000 0.14060  0.73880  0.42890  Biso   1.000  C
  C14      1.0000 0.85940  0.26120  0.57110  Biso   1.000  C
  O1       1.0000 0.11250  0.84040  0.36130  Biso   1.000  O
  O2       1.0000 0.88750  0.15960  0.63870  Biso   1.000  O
  O3       1.0000 0.09380  0.75330  0.52860  Biso   1.000  O
  O4       1.0000 0.90620  0.24670  0.47140  Biso   1.000  O
  C15      1.0000 0.24450  0.60040  0.38790  Biso   1.000  C
  C16      1.0000 0.75550  0.39960  0.61210  Biso   1.000  C
  H15      1.0000 0.22180  0.56870  0.30330  Biso   1.000  H
  H16      1.0000 0.77820  0.43130  0.69670  Biso   1.000  H
  H17      1.0000 0.21110  0.50610  0.42020  Biso   1.000  H
  H18      1.0000 0.78890  0.49390  0.57980  Biso   1.000  H
  C17      1.0000 0.43970  0.65650  0.42790  Biso   1.000  C
  C18      1.0000 0.56030  0.34350  0.57210  Biso   1.000  C
  H19      1.0000 0.45800  0.69870  0.51170  Biso   1.000  H
  H20      1.0000 0.54200  0.30130  0.48830  Biso   1.000  H
  H21      1.0000 0.50540  0.56210  0.41300  Biso   1.000  H
  H22      1.0000 0.49460  0.43790  0.58700  Biso   1.000  H
  C19      1.0000 0.51110  0.78840  0.36750  Biso   1.000  C
  C20      1.0000 0.48890  0.21160  0.63250  Biso   1.000  C
  H23      1.0000 0.50680  0.74140  0.28510  Biso   1.000  H
  H24      1.0000 0.49320  0.25860  0.71490  Biso   1.000  H
  H25      1.0000 0.43560  0.87650  0.37360  Biso   1.000  H
  H26      1.0000 0.56440  0.12350  0.62640  Biso   1.000  H
  C21      1.0000 0.69500  0.85950  0.41700  Biso   1.000  C
  C22      1.0000 0.30500  0.14050  0.58300  Biso   1.000  C
  O5       1.0000 0.77470  0.93640  0.35340  Biso   1.000  O
  O6       1.0000 0.22530  0.06360  0.64660  Biso   1.000  O
  O7       1.0000 0.75430  0.84590  0.51740  Biso   1.000  O
  O8       1.0000 0.24570  0.15410  0.48260  Biso   1.000  O
  O9       1.0000 0.51820  0.47450  0.12020  Biso   1.000  O
  O10      1.0000 0.48180  0.52550  0.87980  Biso   1.000  O
  O11      1.0000 0.80200  0.48050  0.31560  Biso   1.000  O
  O12      1.0000 0.19800  0.51950  0.68440  Biso   1.000  O
