data_image0
_cell_length_a       9.2597
_cell_length_b       9.4665
_cell_length_c       14.671
_cell_angle_alpha    80.899
_cell_angle_beta     75.478
_cell_angle_gamma    67.339

_symmetry_space_group_name_H-M    "P 1"
_symmetry_int_tables_number       1

loop_
  _symmetry_equiv_pos_as_xyz
  'x, y, z'

loop_
  _atom_site_label
  _atom_site_occupancy
  _atom_site_fract_x
  _atom_site_fract_y
  _atom_site_fract_z
  _atom_site_thermal_displace_type
  _atom_site_B_iso_or_equiv
  _atom_site_type_symbol
  Cu1      1.0000 0.38751  0.96809  0.06613  Biso   1.000  Cu
  Cu2      1.0000 0.61249  0.03191  0.93387  Biso   1.000  Cu
  N1       1.0000 0.17030  0.62540  0.35484  Biso   1.000  N
  N2       1.0000 0.82970  0.37460  0.64516  Biso   1.000  N
  C1       1.0000 0.00930  0.67470  0.37609  Biso   1.000  C
  C2       1.0000 0.99070  0.32530  0.62391  Biso   1.000  C
  H1       1.0000 0.96470  0.61800  0.42440  Biso   1.000  H
  H2       1.0000 0.03530  0.38200  0.57560  Biso   1.000  H
  N3       1.0000 0.90690  0.79390  0.33682  Biso   1.000  N
  N4       1.0000 0.09310  0.20610  0.66318  Biso   1.000  N
  C3       1.0000 0.98500  0.86610  0.26761  Biso   1.000  C
  C4       1.0000 0.01500  0.13390  0.73239  Biso   1.000  C
  C5       1.0000 0.14940  0.82890  0.23814  Biso   1.000  C
  C6       1.0000 0.85060  0.17110  0.76186  Biso   1.000  C
  C7       1.0000 0.24740  0.70100  0.28580  Biso   1.000  C
  C8       1.0000 0.75260  0.29900  0.71420  Biso   1.000  C
  N5       1.0000 0.40720  0.64880  0.26790  Biso   1.000  N
  N6       1.0000 0.59280  0.35120  0.73210  Biso   1.000  N
  H3       1.0000 0.45890  0.56910  0.29970  Biso   1.000  H
  H4       1.0000 0.54110  0.43090  0.70030  Biso   1.000  H
  H5       1.0000 0.45820  0.69500  0.22450  Biso   1.000  H
  H6       1.0000 0.54180  0.30500  0.77550  Biso   1.000  H
  N7       1.0000 0.18080  0.93290  0.16406  Biso   1.000  N
  N8       1.0000 0.81920  0.06710  0.83594  Biso   1.000  N
  C9       1.0000 0.03810  0.02640  0.15195  Biso   1.000  C
  C10      1.0000 0.96190  0.97360  0.84805  Biso   1.000  C
  H7       1.0000 0.02240  0.10810  0.10640  Biso   1.000  H
  H8       1.0000 0.97760  0.89190  0.89360  Biso   1.000  H
  N9       1.0000 0.91537  0.99299  0.21190  Biso   1.000  N
  N10      1.0000 0.08463  0.00701  0.78810  Biso   1.000  N
  C11      1.0000 0.74430  0.07540  0.21762  Biso   1.000  C
  C12      1.0000 0.25570  0.92460  0.78238  Biso   1.000  C
  H9       1.0000 0.68820  0.00640  0.24260  Biso   1.000  H
  H10      1.0000 0.31180  0.99360  0.75740  Biso   1.000  H
  H11      1.0000 0.72510  0.11610  0.15570  Biso   1.000  H
  H12      1.0000 0.27490  0.88390  0.84430  Biso   1.000  H
  H13      1.0000 0.70690  0.15790  0.25830  Biso   1.000  H
  H14      1.0000 0.29310  0.84210  0.74170  Biso   1.000  H
  C13      1.0000 0.53800  0.77680  0.91084  Biso   1.000  C
  C14      1.0000 0.46200  0.22320  0.08916  Biso   1.000  C
  O1       1.0000 0.43048  0.80459  0.98515  Biso   1.000  O
  O2       1.0000 0.56952  0.19541  0.01485  Biso   1.000  O
  O3       1.0000 0.61883  0.85899  0.87250  Biso   1.000  O
  O4       1.0000 0.38117  0.14101  0.12750  Biso   1.000  O
  C15      1.0000 0.57560  0.62840  0.86756  Biso   1.000  C
  C16      1.0000 0.42440  0.37160  0.13244  Biso   1.000  C
  H15      1.0000 0.61780  0.63820  0.80030  Biso   1.000  H
  H16      1.0000 0.38220  0.36180  0.19970  Biso   1.000  H
  H17      1.0000 0.47840  0.60690  0.87650  Biso   1.000  H
  H18      1.0000 0.52160  0.39310  0.12350  Biso   1.000  H
  C17      1.0000 0.69960  0.49510  0.91441  Biso   1.000  C
  C18      1.0000 0.30040  0.50490  0.08559  Biso   1.000  C
  H19      1.0000 0.67420  0.50760  0.98160  Biso   1.000  H
  H20      1.0000 0.32580  0.49240  0.01840  Biso   1.000  H
  H21      1.0000 0.69110  0.39920  0.90610  Biso   1.000  H
  H22      1.0000 0.30890  0.60080  0.09390  Biso   1.000  H
  C19      1.0000 0.87210  0.48540  0.87456  Biso   1.000  C
  C20      1.0000 0.12790  0.51460  0.12544  Biso   1.000  C
  H23      1.0000 0.89740  0.47490  0.80710  Biso   1.000  H
  H24      1.0000 0.10260  0.52510  0.19290  Biso   1.000  H
  H25      1.0000 0.88180  0.58010  0.88430  Biso   1.000  H
  H26      1.0000 0.11820  0.41990  0.11570  Biso   1.000  H
  C21      1.0000 0.99230  0.35090  0.92043  Biso   1.000  C
  C22      1.0000 0.00770  0.64910  0.07957  Biso   1.000  C
  H27      1.0000 0.97150  0.25820  0.91950  Biso   1.000  H
  H28      1.0000 0.02850  0.74180  0.08050  Biso   1.000  H
  H29      1.0000 0.97780  0.36940  0.98590  Biso   1.000  H
  H30      1.0000 0.02220  0.63060  0.01410  Biso   1.000  H
  C23      1.0000 0.16500  0.32650  0.87030  Biso   1.000  C
  C24      1.0000 0.83500  0.67350  0.12970  Biso   1.000  C
  H31      1.0000 0.17870  0.30560  0.80540  Biso   1.000  H
  H32      1.0000 0.82130  0.69440  0.19460  Biso   1.000  H
  H33      1.0000 0.18290  0.42130  0.86900  Biso   1.000  H
  H34      1.0000 0.81710  0.57870  0.13100  Biso   1.000  H
  C25      1.0000 0.29140  0.19850  0.91377  Biso   1.000  C
  C26      1.0000 0.70860  0.80150  0.08623  Biso   1.000  C
  O5       1.0000 0.24756  0.12229  0.98561  Biso   1.000  O
  O6       1.0000 0.75244  0.87771  0.01439  Biso   1.000  O
  O7       1.0000 0.43627  0.17557  0.87372  Biso   1.000  O
  O8       1.0000 0.56373  0.82443  0.12628  Biso   1.000  O
  C27      1.0000 0.92160  0.31190  0.32368  Biso   1.000  C
  C28      1.0000 0.07840  0.68810  0.67632  Biso   1.000  C
  O9       1.0000 0.83166  0.35752  0.40778  Biso   1.000  O
  O10      1.0000 0.16834  0.64248  0.59222  Biso   1.000  O
  O11      1.0000 0.86517  0.32624  0.25491  Biso   1.000  O
  O12      1.0000 0.13483  0.67376  0.74509  Biso   1.000  O
  C29      1.0000 0.09630  0.23770  0.32572  Biso   1.000  C
  C30      1.0000 0.90370  0.76230  0.67428  Biso   1.000  C
  H35      1.0000 0.13280  0.31280  0.34080  Biso   1.000  H
  H36      1.0000 0.86720  0.68720  0.65920  Biso   1.000  H
  H37      1.0000 0.15610  0.20440  0.26350  Biso   1.000  H
  H38      1.0000 0.84390  0.79560  0.73650  Biso   1.000  H
  C31      1.0000 0.13110  0.09950  0.39808  Biso   1.000  C
  C32      1.0000 0.86890  0.90050  0.60192  Biso   1.000  C
  H39      1.0000 0.08460  0.13520  0.46110  Biso   1.000  H
  H40      1.0000 0.91540  0.86480  0.53890  Biso   1.000  H
  H41      1.0000 0.08030  0.03190  0.38900  Biso   1.000  H
  H42      1.0000 0.91970  0.96810  0.61100  Biso   1.000  H
  C33      1.0000 0.31010  0.00920  0.39040  Biso   1.000  C
  C34      1.0000 0.68990  0.99080  0.60960  Biso   1.000  C
  H43      1.0000 0.35540  0.96810  0.32870  Biso   1.000  H
  H44      1.0000 0.64460  0.03190  0.67130  Biso   1.000  H
  H45      1.0000 0.36200  0.07810  0.39580  Biso   1.000  H
  H46      1.0000 0.63800  0.92190  0.60420  Biso   1.000  H
  C35      1.0000 0.34410  0.87800  0.46609  Biso   1.000  C
  C36      1.0000 0.65590  0.12200  0.53391  Biso   1.000  C
  H47      1.0000 0.29930  0.91910  0.52780  Biso   1.000  H
  H48      1.0000 0.70070  0.08090  0.47220  Biso   1.000  H
  H49      1.0000 0.29160  0.80940  0.46100  Biso   1.000  H
  H50      1.0000 0.70840  0.19060  0.53900  Biso   1.000  H
  C37      1.0000 0.52210  0.78760  0.45807  Biso   1.000  C
  C38      1.0000 0.47790  0.21240  0.54193  Biso   1.000  C
  H51      1.0000 0.56400  0.74160  0.39780  Biso   1.000  H
  H52      1.0000 0.43600  0.25840  0.60220  Biso   1.000  H
  H53      1.0000 0.57450  0.85890  0.45750  Biso   1.000  H
  H54      1.0000 0.42550  0.14110  0.54250  Biso   1.000  H
  C39      1.0000 0.56710  0.66290  0.53460  Biso   1.000  C
  C40      1.0000 0.43290  0.33710  0.46540  Biso   1.000  C
  O13      1.0000 0.71584  0.62005  0.54178  Biso   1.000  O
  O14      1.0000 0.28416  0.37995  0.45822  Biso   1.000  O
  O15      1.0000 0.47473  0.60379  0.58597  Biso   1.000  O
  O16      1.0000 0.52527  0.39621  0.41403  Biso   1.000  O
  H55      1.0000 0.73100  0.37400  0.40800  Biso   1.000  H
  H56      1.0000 0.26900  0.62600  0.59200  Biso   1.000  H
  H57      1.0000 0.74100  0.53400  0.58500  Biso   1.000  H
  H58      1.0000 0.25900  0.46600  0.41500  Biso   1.000  H
