data_image0
_cell_length_a       12.338
_cell_length_b       12.167
_cell_length_c       18.167
_cell_angle_alpha    90
_cell_angle_beta     111.686
_cell_angle_gamma    90

_symmetry_space_group_name_H-M    "P 1"
_symmetry_int_tables_number       1

loop_
  _symmetry_equiv_pos_as_xyz
  'x, y, z'

loop_
  _atom_site_label
  _atom_site_occupancy
  _atom_site_fract_x
  _atom_site_fract_y
  _atom_site_fract_z
  _atom_site_thermal_displace_type
  _atom_site_B_iso_or_equiv
  _atom_site_type_symbol
  Cu1      1.0000 0.78465  0.94205  0.26653  Biso   1.000  Cu
  Cu2      1.0000 0.21535  0.44205  0.23347  Biso   1.000  Cu
  Cu3      1.0000 0.21535  0.05795  0.73347  Biso   1.000  Cu
  Cu4      1.0000 0.78465  0.55795  0.76653  Biso   1.000  Cu
  Cu5      1.0000 0.36536  0.51057  0.12370  Biso   1.000  Cu
  Cu6      1.0000 0.63464  0.01057  0.37630  Biso   1.000  Cu
  Cu7      1.0000 0.63464  0.48943  0.87630  Biso   1.000  Cu
  Cu8      1.0000 0.36536  0.98943  0.62370  Biso   1.000  Cu
  O1       1.0000 0.89600  0.82685  0.24514  Biso   1.000  O
  O2       1.0000 0.10400  0.32685  0.25486  Biso   1.000  O
  O3       1.0000 0.10400  0.17315  0.75486  Biso   1.000  O
  O4       1.0000 0.89600  0.67315  0.74514  Biso   1.000  O
  O5       1.0000 0.86490  0.98990  0.19555  Biso   1.000  O
  O6       1.0000 0.13510  0.48990  0.30445  Biso   1.000  O
  O7       1.0000 0.13510  0.01010  0.80445  Biso   1.000  O
  O8       1.0000 0.86490  0.51010  0.69555  Biso   1.000  O
  O9       1.0000 0.15460  0.57864  0.16797  Biso   1.000  O
  O10      1.0000 0.84540  0.07864  0.33203  Biso   1.000  O
  O11      1.0000 0.84540  0.42136  0.83203  Biso   1.000  O
  O12      1.0000 0.15460  0.92136  0.66797  Biso   1.000  O
  O13      1.0000 0.27680  0.64548  0.11553  Biso   1.000  O
  O14      1.0000 0.72320  0.14548  0.38447  Biso   1.000  O
  O15      1.0000 0.72320  0.35452  0.88447  Biso   1.000  O
  O16      1.0000 0.27680  0.85452  0.61553  Biso   1.000  O
  O17      1.0000 0.72376  0.86362  0.33286  Biso   1.000  O
  O18      1.0000 0.27624  0.36362  0.16714  Biso   1.000  O
  O19      1.0000 0.27624  0.13638  0.66714  Biso   1.000  O
  O20      1.0000 0.72376  0.63638  0.83286  Biso   1.000  O
  O21      1.0000 0.89140  0.81370  0.42914  Biso   1.000  O
  O22      1.0000 0.10860  0.31370  0.07086  Biso   1.000  O
  O23      1.0000 0.10860  0.18630  0.57086  Biso   1.000  O
  O24      1.0000 0.89140  0.68630  0.92914  Biso   1.000  O
  O25      1.0000 0.37850  0.48670  0.31173  Biso   1.000  O
  O26      1.0000 0.62150  0.98670  0.18827  Biso   1.000  O
  O27      1.0000 0.62150  0.51330  0.68827  Biso   1.000  O
  O28      1.0000 0.37850  0.01330  0.81173  Biso   1.000  O
  O29      1.0000 0.46560  0.54450  0.23023  Biso   1.000  O
  O30      1.0000 0.53440  0.04450  0.26977  Biso   1.000  O
  O31      1.0000 0.53440  0.45550  0.76977  Biso   1.000  O
  O32      1.0000 0.46560  0.95550  0.73023  Biso   1.000  O
  N1       1.0000 0.48840  0.41350  0.10803  Biso   1.000  N
  N2       1.0000 0.51160  0.91350  0.39197  Biso   1.000  N
  N3       1.0000 0.51160  0.58650  0.89197  Biso   1.000  N
  N4       1.0000 0.48840  0.08650  0.60803  Biso   1.000  N
  N5       1.0000 0.28190  0.47710  0.00880  Biso   1.000  N
  N6       1.0000 0.71810  0.97710  0.49120  Biso   1.000  N
  N7       1.0000 0.71810  0.52290  0.99120  Biso   1.000  N
  N8       1.0000 0.28190  0.02290  0.50880  Biso   1.000  N
  C1       1.0000 0.45710  0.37840  0.03210  Biso   1.000  C
  C2       1.0000 0.54290  0.87840  0.46790  Biso   1.000  C
  C3       1.0000 0.54290  0.62160  0.96790  Biso   1.000  C
  C4       1.0000 0.45710  0.12160  0.53210  Biso   1.000  C
  C5       1.0000 0.45870  0.53270  0.29670  Biso   1.000  C
  C6       1.0000 0.54130  0.03270  0.20330  Biso   1.000  C
  C7       1.0000 0.54130  0.46730  0.70330  Biso   1.000  C
  C8       1.0000 0.45870  0.96730  0.79670  Biso   1.000  C
  C9       1.0000 0.78690  0.80150  0.39100  Biso   1.000  C
  C10      1.0000 0.21310  0.30150  0.10900  Biso   1.000  C
  C11      1.0000 0.21310  0.19850  0.60900  Biso   1.000  C
  C12      1.0000 0.78690  0.69850  0.89100  Biso   1.000  C
  C13      1.0000 0.00630  0.88350  0.16670  Biso   1.000  C
  C14      1.0000 0.99370  0.38350  0.33330  Biso   1.000  C
  C15      1.0000 0.99370  0.11650  0.83330  Biso   1.000  C
  C16      1.0000 0.00630  0.61650  0.66670  Biso   1.000  C
  C17      1.0000 0.59130  0.54110  0.44150  Biso   1.000  C
  C18      1.0000 0.40870  0.04110  0.05850  Biso   1.000  C
  C19      1.0000 0.40870  0.45890  0.55850  Biso   1.000  C
  C20      1.0000 0.59130  0.95890  0.94150  Biso   1.000  C
  H1       1.0000 0.54770  0.48560  0.45240  Biso   1.000  H
  H2       1.0000 0.45230  0.98560  0.04760  Biso   1.000  H
  H3       1.0000 0.45230  0.51440  0.54760  Biso   1.000  H
  H4       1.0000 0.54770  0.01440  0.95240  Biso   1.000  H
  C21      1.0000 0.71920  0.70980  0.41070  Biso   1.000  C
  C22      1.0000 0.28080  0.20980  0.08930  Biso   1.000  C
  C23      1.0000 0.28080  0.29020  0.58930  Biso   1.000  C
  C24      1.0000 0.71920  0.79020  0.91070  Biso   1.000  C
  C25      1.0000 0.05860  0.78210  0.17040  Biso   1.000  C
  C26      1.0000 0.94140  0.28210  0.32960  Biso   1.000  C
  C27      1.0000 0.94140  0.21790  0.82960  Biso   1.000  C
  C28      1.0000 0.05860  0.71790  0.67040  Biso   1.000  C
  H5       1.0000 0.03910  0.72430  0.19660  Biso   1.000  H
  H6       1.0000 0.96090  0.22430  0.30340  Biso   1.000  H
  H7       1.0000 0.96090  0.27570  0.80340  Biso   1.000  H
  H8       1.0000 0.03910  0.77570  0.69660  Biso   1.000  H
  C29      1.0000 0.91790  0.90000  0.20360  Biso   1.000  C
  C30      1.0000 0.08210  0.40000  0.29640  Biso   1.000  C
  C31      1.0000 0.08210  0.10000  0.79640  Biso   1.000  C
  C32      1.0000 0.91790  0.60000  0.70360  Biso   1.000  C
  C33      1.0000 0.03460  0.96830  0.12680  Biso   1.000  C
  C34      1.0000 0.96540  0.46830  0.37320  Biso   1.000  C
  C35      1.0000 0.96540  0.03170  0.87320  Biso   1.000  C
  C36      1.0000 0.03460  0.53170  0.62680  Biso   1.000  C
  H9       1.0000 0.99870  0.03630  0.12340  Biso   1.000  H
  H10      1.0000 0.00130  0.53630  0.37660  Biso   1.000  H
  H11      1.0000 0.00130  0.96370  0.87660  Biso   1.000  H
  H12      1.0000 0.99870  0.46370  0.62340  Biso   1.000  H
  C37      1.0000 0.75240  0.66720  0.48600  Biso   1.000  C
  C38      1.0000 0.24760  0.16720  0.01400  Biso   1.000  C
  C39      1.0000 0.24760  0.33280  0.51400  Biso   1.000  C
  C40      1.0000 0.75240  0.83280  0.98600  Biso   1.000  C
  H13      1.0000 0.81840  0.69440  0.52620  Biso   1.000  H
  H14      1.0000 0.18160  0.19440  0.97380  Biso   1.000  H
  H15      1.0000 0.18160  0.30560  0.47380  Biso   1.000  H
  H16      1.0000 0.81840  0.80560  0.02620  Biso   1.000  H
  C41      1.0000 0.17540  0.50670  0.96130  Biso   1.000  C
  C42      1.0000 0.82460  0.00670  0.53870  Biso   1.000  C
  C43      1.0000 0.82460  0.49330  0.03870  Biso   1.000  C
  C44      1.0000 0.17540  0.99330  0.46130  Biso   1.000  C
  H17      1.0000 0.13080  0.55020  0.98140  Biso   1.000  H
  H18      1.0000 0.86920  0.05020  0.51860  Biso   1.000  H
  H19      1.0000 0.86920  0.44980  0.01860  Biso   1.000  H
  H20      1.0000 0.13080  0.94980  0.48140  Biso   1.000  H
  C45      1.0000 0.68800  0.58370  0.50230  Biso   1.000  C
  C46      1.0000 0.31200  0.08370  0.99770  Biso   1.000  C
  C47      1.0000 0.31200  0.41630  0.49770  Biso   1.000  C
  C48      1.0000 0.68800  0.91630  0.00230  Biso   1.000  C
  H21      1.0000 0.70920  0.55640  0.55360  Biso   1.000  H
  H22      1.0000 0.29080  0.05640  0.94640  Biso   1.000  H
  H23      1.0000 0.29080  0.44360  0.44640  Biso   1.000  H
  H24      1.0000 0.70920  0.94360  0.05360  Biso   1.000  H
  C49      1.0000 0.13980  0.76580  0.13520  Biso   1.000  C
  C50      1.0000 0.86020  0.26580  0.36480  Biso   1.000  C
  C51      1.0000 0.86020  0.23420  0.86480  Biso   1.000  C
  C52      1.0000 0.13980  0.73420  0.63520  Biso   1.000  C
  C53      1.0000 0.55960  0.58030  0.36510  Biso   1.000  C
  C54      1.0000 0.44040  0.08030  0.13490  Biso   1.000  C
  C55      1.0000 0.44040  0.41970  0.63490  Biso   1.000  C
  C56      1.0000 0.55960  0.91970  0.86510  Biso   1.000  C
  C57      1.0000 0.34430  0.41320  0.97790  Biso   1.000  C
  C58      1.0000 0.65570  0.91320  0.52210  Biso   1.000  C
  C59      1.0000 0.65570  0.58680  0.02210  Biso   1.000  C
  C60      1.0000 0.34430  0.08680  0.47790  Biso   1.000  C
  C61      1.0000 0.62300  0.66610  0.34960  Biso   1.000  C
  C62      1.0000 0.37700  0.16610  0.15040  Biso   1.000  C
  C63      1.0000 0.37700  0.33390  0.65040  Biso   1.000  C
  C64      1.0000 0.62300  0.83390  0.84960  Biso   1.000  C
  H25      1.0000 0.60120  0.69430  0.29860  Biso   1.000  H
  H26      1.0000 0.39880  0.19430  0.20140  Biso   1.000  H
  H27      1.0000 0.39880  0.30570  0.70140  Biso   1.000  H
  H28      1.0000 0.60120  0.80570  0.79860  Biso   1.000  H
  C65      1.0000 0.11500  0.95340  0.09220  Biso   1.000  C
  C66      1.0000 0.88500  0.45340  0.40780  Biso   1.000  C
  C67      1.0000 0.88500  0.04660  0.90780  Biso   1.000  C
  C68      1.0000 0.11500  0.54660  0.59220  Biso   1.000  C
  H29      1.0000 0.13450  0.01160  0.06630  Biso   1.000  H
  H30      1.0000 0.86550  0.51160  0.43370  Biso   1.000  H
  H31      1.0000 0.86550  0.98840  0.93370  Biso   1.000  H
  H32      1.0000 0.13450  0.48840  0.56630  Biso   1.000  H
  C69      1.0000 0.19480  0.65390  0.14050  Biso   1.000  C
  C70      1.0000 0.80520  0.15390  0.35950  Biso   1.000  C
  C71      1.0000 0.80520  0.34610  0.85950  Biso   1.000  C
  C72      1.0000 0.19480  0.84610  0.64050  Biso   1.000  C
  C73      1.0000 0.12820  0.47420  0.88150  Biso   1.000  C
  C74      1.0000 0.87180  0.97420  0.61850  Biso   1.000  C
  C75      1.0000 0.87180  0.52580  0.11850  Biso   1.000  C
  C76      1.0000 0.12820  0.02580  0.38150  Biso   1.000  C
  H33      1.0000 0.05320  0.49580  0.84970  Biso   1.000  H
  H34      1.0000 0.94680  0.99580  0.65030  Biso   1.000  H
  H35      1.0000 0.94680  0.50420  0.15030  Biso   1.000  H
  H36      1.0000 0.05320  0.00420  0.34970  Biso   1.000  H
  C77      1.0000 0.52670  0.30990  0.00570  Biso   1.000  C
  C78      1.0000 0.47330  0.80990  0.49430  Biso   1.000  C
  C79      1.0000 0.47330  0.69010  0.99430  Biso   1.000  C
  C80      1.0000 0.52670  0.19010  0.50570  Biso   1.000  C
  C81      1.0000 0.30430  0.37770  0.89900  Biso   1.000  C
  C82      1.0000 0.69570  0.87770  0.60100  Biso   1.000  C
  C83      1.0000 0.69570  0.62230  0.10100  Biso   1.000  C
  C84      1.0000 0.30430  0.12230  0.39900  Biso   1.000  C
  C85      1.0000 0.63430  0.27800  0.06280  Biso   1.000  C
  C86      1.0000 0.36570  0.77800  0.43720  Biso   1.000  C
  C87      1.0000 0.36570  0.72200  0.93720  Biso   1.000  C
  C88      1.0000 0.63430  0.22200  0.56280  Biso   1.000  C
  H37      1.0000 0.68410  0.23290  0.04840  Biso   1.000  H
  H38      1.0000 0.31590  0.73290  0.45160  Biso   1.000  H
  H39      1.0000 0.31590  0.76710  0.95160  Biso   1.000  H
  H40      1.0000 0.68410  0.26710  0.54840  Biso   1.000  H
  C89      1.0000 0.66520  0.31230  0.13790  Biso   1.000  C
  C90      1.0000 0.33480  0.81230  0.36210  Biso   1.000  C
  C91      1.0000 0.33480  0.68770  0.86210  Biso   1.000  C
  C92      1.0000 0.66520  0.18770  0.63790  Biso   1.000  C
  H41      1.0000 0.73660  0.29100  0.17550  Biso   1.000  H
  H42      1.0000 0.26340  0.79100  0.32450  Biso   1.000  H
  H43      1.0000 0.26340  0.70900  0.82450  Biso   1.000  H
  H44      1.0000 0.73660  0.20900  0.67550  Biso   1.000  H
  C93      1.0000 0.16720  0.85210  0.09560  Biso   1.000  C
  C94      1.0000 0.83280  0.35210  0.40440  Biso   1.000  C
  C95      1.0000 0.83280  0.14790  0.90440  Biso   1.000  C
  C96      1.0000 0.16720  0.64790  0.59560  Biso   1.000  C
  H45      1.0000 0.22080  0.84180  0.07120  Biso   1.000  H
  H46      1.0000 0.77920  0.34180  0.42880  Biso   1.000  H
  H47      1.0000 0.77920  0.15820  0.92880  Biso   1.000  H
  H48      1.0000 0.22080  0.65820  0.57120  Biso   1.000  H
  C97      1.0000 0.48460  0.27770  0.92440  Biso   1.000  C
  C98      1.0000 0.51540  0.77770  0.57560  Biso   1.000  C
  C99      1.0000 0.51540  0.72230  0.07560  Biso   1.000  C
  C100     1.0000 0.48460  0.22230  0.42440  Biso   1.000  C
  H49      1.0000 0.53100  0.23400  0.90590  Biso   1.000  H
  H50      1.0000 0.46900  0.73400  0.59410  Biso   1.000  H
  H51      1.0000 0.46900  0.76600  0.09410  Biso   1.000  H
  H52      1.0000 0.53100  0.26600  0.40590  Biso   1.000  H
  C101     1.0000 0.59050  0.38030  0.15990  Biso   1.000  C
  C102     1.0000 0.40950  0.88030  0.34010  Biso   1.000  C
  C103     1.0000 0.40950  0.61970  0.84010  Biso   1.000  C
  C104     1.0000 0.59050  0.11970  0.65990  Biso   1.000  C
  H53      1.0000 0.61310  0.40270  0.21240  Biso   1.000  H
  H54      1.0000 0.38690  0.90270  0.28760  Biso   1.000  H
  H55      1.0000 0.38690  0.59730  0.78760  Biso   1.000  H
  H56      1.0000 0.61310  0.09730  0.71240  Biso   1.000  H
  C105     1.0000 0.37810  0.30990  0.87390  Biso   1.000  C
  C106     1.0000 0.62190  0.80990  0.62610  Biso   1.000  C
  C107     1.0000 0.62190  0.69010  0.12610  Biso   1.000  C
  C108     1.0000 0.37810  0.19010  0.37390  Biso   1.000  C
  H57      1.0000 0.35250  0.28720  0.82140  Biso   1.000  H
  H58      1.0000 0.64750  0.78720  0.67860  Biso   1.000  H
  H59      1.0000 0.64750  0.71280  0.17860  Biso   1.000  H
  H60      1.0000 0.35250  0.21280  0.32140  Biso   1.000  H
  C109     1.0000 0.19210  0.41150  0.85110  Biso   1.000  C
  C110     1.0000 0.80790  0.91150  0.64890  Biso   1.000  C
  C111     1.0000 0.80790  0.58850  0.14890  Biso   1.000  C
  C112     1.0000 0.19210  0.08850  0.35110  Biso   1.000  C
  H61      1.0000 0.16120  0.39090  0.79810  Biso   1.000  H
  H62      1.0000 0.83880  0.89090  0.70190  Biso   1.000  H
  H63      1.0000 0.83880  0.60910  0.20190  Biso   1.000  H
  H64      1.0000 0.16120  0.10910  0.29810  Biso   1.000  H
  O33      1.0000 0.91210  0.23250  0.10380  Biso   1.000  O
  O34      1.0000 0.08790  0.73250  0.39620  Biso   1.000  O
  O35      1.0000 0.08790  0.76750  0.89620  Biso   1.000  O
  O36      1.0000 0.91210  0.26750  0.60380  Biso   1.000  O
  H65      1.0000 0.90070  0.23350  0.15200  Biso   1.000  H
  H66      1.0000 0.09930  0.73350  0.34800  Biso   1.000  H
  H67      1.0000 0.09930  0.76650  0.84800  Biso   1.000  H
  H68      1.0000 0.90070  0.26650  0.65200  Biso   1.000  H
  H69      1.0000 0.98080  0.26810  0.10600  Biso   1.000  H
  H70      1.0000 0.01920  0.76810  0.39400  Biso   1.000  H
  H71      1.0000 0.01920  0.73190  0.89400  Biso   1.000  H
  H72      1.0000 0.98080  0.23190  0.60600  Biso   1.000  H
