data_image0
_cell_length_a       9.2777
_cell_length_b       9.9706
_cell_length_c       13.3237
_cell_angle_alpha    79.104
_cell_angle_beta     83.541
_cell_angle_gamma    86.798

_symmetry_space_group_name_H-M    "P 1"
_symmetry_int_tables_number       1

loop_
  _symmetry_equiv_pos_as_xyz
  'x, y, z'

loop_
  _atom_site_label
  _atom_site_occupancy
  _atom_site_fract_x
  _atom_site_fract_y
  _atom_site_fract_z
  _atom_site_thermal_displace_type
  _atom_site_B_iso_or_equiv
  _atom_site_type_symbol
  Cu1      1.0000 0.74799  0.32492  0.22430  Biso   1.000  Cu
  Cu2      1.0000 0.25201  0.67508  0.77570  Biso   1.000  Cu
  V1       1.0000 0.25959  0.67692  0.28384  Biso   1.000  V
  V2       1.0000 0.74041  0.32308  0.71616  Biso   1.000  V
  P1       1.0000 0.99564  0.46857  0.34076  Biso   1.000  P
  P2       1.0000 0.00436  0.53143  0.65924  Biso   1.000  P
  P3       1.0000 0.45532  0.40878  0.36734  Biso   1.000  P
  P4       1.0000 0.54468  0.59122  0.63266  Biso   1.000  P
  O1       1.0000 0.09280  0.58860  0.28960  Biso   1.000  O
  O2       1.0000 0.90720  0.41140  0.71040  Biso   1.000  O
  O3       1.0000 0.08730  0.33330  0.34790  Biso   1.000  O
  O4       1.0000 0.91270  0.66670  0.65210  Biso   1.000  O
  H1       1.0000 0.17270  0.34750  0.35750  Biso   1.000  H
  H2       1.0000 0.82730  0.65250  0.64250  Biso   1.000  H
  O5       1.0000 0.86810  0.46500  0.28210  Biso   1.000  O
  O6       1.0000 0.13190  0.53500  0.71790  Biso   1.000  O
  O7       1.0000 0.56260  0.33360  0.30190  Biso   1.000  O
  O8       1.0000 0.43740  0.66640  0.69810  Biso   1.000  O
  O9       1.0000 0.32630  0.32590  0.41680  Biso   1.000  O
  O10      1.0000 0.67370  0.67410  0.58320  Biso   1.000  O
  O11      1.0000 0.40370  0.54470  0.29860  Biso   1.000  O
  O12      1.0000 0.59630  0.45530  0.70140  Biso   1.000  O
  O13      1.0000 0.24890  0.76060  0.37750  Biso   1.000  O
  O14      1.0000 0.75110  0.23940  0.62250  Biso   1.000  O
  O15      1.0000 0.27930  0.78690  0.17350  Biso   1.000  O
  O16      1.0000 0.72070  0.21310  0.82650  Biso   1.000  O
  N1       1.0000 0.70760  0.46080  0.09560  Biso   1.000  N
  N2       1.0000 0.29240  0.53920  0.90440  Biso   1.000  N
  N3       1.0000 0.89240  0.26300  0.12410  Biso   1.000  N
  N4       1.0000 0.10760  0.73700  0.87590  Biso   1.000  N
  N5       1.0000 0.82050  0.14890  0.30990  Biso   1.000  N
  N6       1.0000 0.17950  0.85110  0.69010  Biso   1.000  N
  C1       1.0000 0.60860  0.56390  0.09030  Biso   1.000  C
  C2       1.0000 0.39140  0.43610  0.90970  Biso   1.000  C
  H3       1.0000 0.54710  0.57490  0.15030  Biso   1.000  H
  H4       1.0000 0.45290  0.42510  0.84970  Biso   1.000  H
  C3       1.0000 0.59330  0.65540  0.99900  Biso   1.000  C
  C4       1.0000 0.40670  0.34460  0.00100  Biso   1.000  C
  H5       1.0000 0.52300  0.72860  0.99710  Biso   1.000  H
  H6       1.0000 0.47700  0.27140  0.00290  Biso   1.000  H
  C5       1.0000 0.68150  0.63870  0.91160  Biso   1.000  C
  C6       1.0000 0.31850  0.36130  0.08840  Biso   1.000  C
  H7       1.0000 0.67070  0.69860  0.84810  Biso   1.000  H
  H8       1.0000 0.32930  0.30140  0.15190  Biso   1.000  H
  C7       1.0000 0.78660  0.53300  0.91720  Biso   1.000  C
  C8       1.0000 0.21340  0.46700  0.08280  Biso   1.000  C
  H9       1.0000 0.85030  0.52110  0.85830  Biso   1.000  H
  H10      1.0000 0.14970  0.47890  0.14170  Biso   1.000  H
  C9       1.0000 0.79620  0.44600  0.00980  Biso   1.000  C
  C10      1.0000 0.20380  0.55400  0.99020  Biso   1.000  C
  C11      1.0000 0.90230  0.32940  0.02630  Biso   1.000  C
  C12      1.0000 0.09770  0.67060  0.97370  Biso   1.000  C
  C13      1.0000 0.00370  0.28520  0.95290  Biso   1.000  C
  C14      1.0000 0.99630  0.71480  0.04710  Biso   1.000  C
  H11      1.0000 0.00950  0.33140  0.88340  Biso   1.000  H
  H12      1.0000 0.99050  0.66860  0.11660  Biso   1.000  H
  C15      1.0000 0.09680  0.17270  0.98180  Biso   1.000  C
  C16      1.0000 0.90320  0.82730  0.01820  Biso   1.000  C
  C17      1.0000 0.20930  0.12780  0.90570  Biso   1.000  C
  C18      1.0000 0.79070  0.87220  0.09430  Biso   1.000  C
  C19      1.0000 0.23890  0.20740  0.80850  Biso   1.000  C
  C20      1.0000 0.76110  0.79260  0.19150  Biso   1.000  C
  H13      1.0000 0.18600  0.29130  0.79060  Biso   1.000  H
  H14      1.0000 0.81400  0.70870  0.20940  Biso   1.000  H
  C21      1.0000 0.34520  0.16560  0.73700  Biso   1.000  C
  C22      1.0000 0.65480  0.83440  0.26300  Biso   1.000  C
  H15      1.0000 0.36310  0.22170  0.67110  Biso   1.000  H
  H16      1.0000 0.63690  0.77830  0.32890  Biso   1.000  H
  C23      1.0000 0.42500  0.04480  0.75970  Biso   1.000  C
  C24      1.0000 0.57500  0.95520  0.24030  Biso   1.000  C
  C25      1.0000 0.54110  0.99850  0.68350  Biso   1.000  C
  C26      1.0000 0.45890  0.00150  0.31650  Biso   1.000  C
  H17      1.0000 0.63700  0.01390  0.70260  Biso   1.000  H
  H18      1.0000 0.36300  0.98610  0.29740  Biso   1.000  H
  H19      1.0000 0.52960  0.05070  0.61460  Biso   1.000  H
  H20      1.0000 0.47040  0.94930  0.38540  Biso   1.000  H
  H21      1.0000 0.53200  0.90100  0.68390  Biso   1.000  H
  H22      1.0000 0.46800  0.09900  0.31610  Biso   1.000  H
  C27      1.0000 0.39390  0.96510  0.85580  Biso   1.000  C
  C28      1.0000 0.60610  0.03490  0.14420  Biso   1.000  C
  H23      1.0000 0.44600  0.88050  0.87270  Biso   1.000  H
  H24      1.0000 0.55400  0.11950  0.12730  Biso   1.000  H
  C29      1.0000 0.28890  0.00460  0.92860  Biso   1.000  C
  C30      1.0000 0.71110  0.99540  0.07140  Biso   1.000  C
  H25      1.0000 0.27120  0.94770  0.99410  Biso   1.000  H
  H26      1.0000 0.72880  0.05230  0.00590  Biso   1.000  H
  C31      1.0000 0.08020  0.10400  0.08460  Biso   1.000  C
  C32      1.0000 0.91980  0.89600  0.91540  Biso   1.000  C
  H27      1.0000 0.14090  0.02650  0.10660  Biso   1.000  H
  H28      1.0000 0.85910  0.97350  0.89340  Biso   1.000  H
  C33      1.0000 0.97500  0.15000  0.15330  Biso   1.000  C
  C34      1.0000 0.02500  0.85000  0.84670  Biso   1.000  C
  C35      1.0000 0.93330  0.08500  0.26200  Biso   1.000  C
  C36      1.0000 0.06670  0.91500  0.73800  Biso   1.000  C
  C37      1.0000 0.99730  0.96630  0.30980  Biso   1.000  C
  C38      1.0000 0.00270  0.03370  0.69020  Biso   1.000  C
  H29      1.0000 0.07820  0.92440  0.27590  Biso   1.000  H
  H30      1.0000 0.92180  0.07560  0.72410  Biso   1.000  H
  C39      1.0000 0.94180  0.90830  0.40880  Biso   1.000  C
  C40      1.0000 0.05820  0.09170  0.59120  Biso   1.000  C
  H31      1.0000 0.98300  0.82500  0.44280  Biso   1.000  H
  H32      1.0000 0.01700  0.17500  0.55720  Biso   1.000  H
  C41      1.0000 0.82650  0.97260  0.45710  Biso   1.000  C
  C42      1.0000 0.17350  0.02740  0.54290  Biso   1.000  C
  H33      1.0000 0.78660  0.93450  0.52470  Biso   1.000  H
  H34      1.0000 0.21340  0.06550  0.47530  Biso   1.000  H
  C43      1.0000 0.76990  0.09450  0.40490  Biso   1.000  C
  C44      1.0000 0.23010  0.90550  0.59510  Biso   1.000  C
  H35      1.0000 0.69210  0.14060  0.43870  Biso   1.000  H
  H36      1.0000 0.30790  0.85940  0.56130  Biso   1.000  H
  C45      1.0000 0.54830  0.45980  0.46440  Biso   1.000  C
  C46      1.0000 0.45170  0.54020  0.53560  Biso   1.000  C
  H37      1.0000 0.58940  0.37700  0.50660  Biso   1.000  H
  H38      1.0000 0.41060  0.62300  0.49340  Biso   1.000  H
  H39      1.0000 0.63030  0.51680  0.43040  Biso   1.000  H
  H40      1.0000 0.36970  0.48320  0.56960  Biso   1.000  H
  C47      1.0000 0.93730  0.49470  0.46820  Biso   1.000  C
  C48      1.0000 0.06270  0.50530  0.53180  Biso   1.000  C
  H41      1.0000 0.87600  0.57970  0.46430  Biso   1.000  H
  H42      1.0000 0.12400  0.42030  0.53570  Biso   1.000  H
  H43      1.0000 0.87650  0.41800  0.50400  Biso   1.000  H
  H44      1.0000 0.12350  0.58200  0.49600  Biso   1.000  H
