data_image0
_cell_length_a       8.9849
_cell_length_b       11.2108
_cell_length_c       13.6744
_cell_angle_alpha    74.024
_cell_angle_beta     81.549
_cell_angle_gamma    80.035

_symmetry_space_group_name_H-M    "P 1"
_symmetry_int_tables_number       1

loop_
  _symmetry_equiv_pos_as_xyz
  'x, y, z'

loop_
  _atom_site_label
  _atom_site_occupancy
  _atom_site_fract_x
  _atom_site_fract_y
  _atom_site_fract_z
  _atom_site_thermal_displace_type
  _atom_site_B_iso_or_equiv
  _atom_site_type_symbol
  Cu1      1.0000 0.62347  0.78206  0.83378  Biso   1.000  Cu
  Cu2      1.0000 0.37653  0.21794  0.16622  Biso   1.000  Cu
  V1       1.0000 0.98985  0.95520  0.78379  Biso   1.000  V
  V2       1.0000 0.01015  0.04480  0.21621  Biso   1.000  V
  P1       1.0000 0.30053  0.79662  0.71859  Biso   1.000  P
  P2       1.0000 0.69947  0.20338  0.28141  Biso   1.000  P
  P3       1.0000 0.16155  0.11815  0.37230  Biso   1.000  P
  P4       1.0000 0.83845  0.88185  0.62770  Biso   1.000  P
  O1       1.0000 0.41090  0.73156  0.79443  Biso   1.000  O
  O2       1.0000 0.58910  0.26844  0.20557  Biso   1.000  O
  O3       1.0000 0.19980  0.70144  0.70888  Biso   1.000  O
  O4       1.0000 0.80020  0.29856  0.29112  Biso   1.000  O
  O5       1.0000 0.19560  0.91055  0.74679  Biso   1.000  O
  O6       1.0000 0.80440  0.08945  0.25321  Biso   1.000  O
  O7       1.0000 0.96050  0.08117  0.82407  Biso   1.000  O
  O8       1.0000 0.03950  0.91883  0.17593  Biso   1.000  O
  O9       1.0000 0.30330  0.16011  0.30598  Biso   1.000  O
  O10      1.0000 0.69670  0.83989  0.69402  Biso   1.000  O
  O11      1.0000 0.91580  0.84505  0.87133  Biso   1.000  O
  O12      1.0000 0.08420  0.15495  0.12867  Biso   1.000  O
  O13      1.0000 0.10800  0.01484  0.33240  Biso   1.000  O
  O14      1.0000 0.89200  0.98516  0.66760  Biso   1.000  O
  O15      1.0000 0.03290  0.22146  0.38136  Biso   1.000  O
  O16      1.0000 0.96710  0.77854  0.61864  Biso   1.000  O
  N1       1.0000 0.49070  0.94430  0.85342  Biso   1.000  N
  N2       1.0000 0.50930  0.05570  0.14658  Biso   1.000  N
  N3       1.0000 0.54780  0.73030  0.97650  Biso   1.000  N
  N4       1.0000 0.45220  0.26970  0.02350  Biso   1.000  N
  N5       1.0000 0.75230  0.61140  0.87499  Biso   1.000  N
  N6       1.0000 0.24770  0.38860  0.12501  Biso   1.000  N
  C1       1.0000 0.46940  0.05360  0.78240  Biso   1.000  C
  C2       1.0000 0.53060  0.94640  0.21760  Biso   1.000  C
  H1       1.0000 0.53650  0.06650  0.72110  Biso   1.000  H
  H2       1.0000 0.46350  0.93350  0.27890  Biso   1.000  H
  C3       1.0000 0.35310  0.14840  0.79540  Biso   1.000  C
  C4       1.0000 0.64690  0.85160  0.20460  Biso   1.000  C
  H3       1.0000 0.33990  0.22470  0.74370  Biso   1.000  H
  H4       1.0000 0.66010  0.77530  0.25630  Biso   1.000  H
  C5       1.0000 0.25670  0.12970  0.88500  Biso   1.000  C
  C6       1.0000 0.74330  0.87030  0.11500  Biso   1.000  C
  H5       1.0000 0.17600  0.19330  0.89560  Biso   1.000  H
  H6       1.0000 0.82400  0.80670  0.10440  Biso   1.000  H
  C7       1.0000 0.27850  0.01710  0.95990  Biso   1.000  C
  C8       1.0000 0.72150  0.98290  0.04010  Biso   1.000  C
  H7       1.0000 0.21360  0.00290  0.02220  Biso   1.000  H
  H8       1.0000 0.78640  0.99710  0.97780  Biso   1.000  H
  C9       1.0000 0.39620  0.92670  0.94150  Biso   1.000  C
  C10      1.0000 0.60380  0.07330  0.05850  Biso   1.000  C
  C11      1.0000 0.43420  0.80400  0.01455  Biso   1.000  C
  C12      1.0000 0.56580  0.19600  0.98545  Biso   1.000  C
  C13      1.0000 0.36690  0.76450  0.11380  Biso   1.000  C
  C14      1.0000 0.63310  0.23550  0.88620  Biso   1.000  C
  H9       1.0000 0.28450  0.81660  0.13980  Biso   1.000  H
  H10      1.0000 0.71550  0.18340  0.86020  Biso   1.000  H
  C15      1.0000 0.42160  0.64650  0.17590  Biso   1.000  C
  C16      1.0000 0.57840  0.35350  0.82410  Biso   1.000  C
  C17      1.0000 0.53950  0.57190  0.13269  Biso   1.000  C
  C18      1.0000 0.46050  0.42810  0.86731  Biso   1.000  C
  H11      1.0000 0.57820  0.49130  0.17180  Biso   1.000  H
  H12      1.0000 0.42180  0.50870  0.82820  Biso   1.000  H
  C19      1.0000 0.59990  0.61620  0.03214  Biso   1.000  C
  C20      1.0000 0.40010  0.38380  0.96786  Biso   1.000  C
  C21      1.0000 0.72200  0.54890  0.97460  Biso   1.000  C
  C22      1.0000 0.27800  0.45110  0.02540  Biso   1.000  C
  C23      1.0000 0.80090  0.43360  0.01710  Biso   1.000  C
  C24      1.0000 0.19910  0.56640  0.98290  Biso   1.000  C
  H13      1.0000 0.77810  0.39180  0.08690  Biso   1.000  H
  H14      1.0000 0.22190  0.60820  0.91310  Biso   1.000  H
  C25      1.0000 0.91490  0.37980  0.95530  Biso   1.000  C
  C26      1.0000 0.08510  0.62020  0.04470  Biso   1.000  C
  H15      1.0000 0.97060  0.30020  0.98240  Biso   1.000  H
  H16      1.0000 0.02940  0.69980  0.01760  Biso   1.000  H
  C27      1.0000 0.94600  0.44330  0.85460  Biso   1.000  C
  C28      1.0000 0.05400  0.55670  0.14540  Biso   1.000  C
  H17      1.0000 0.02390  0.40820  0.81150  Biso   1.000  H
  H18      1.0000 0.97610  0.59180  0.18850  Biso   1.000  H
  C29      1.0000 0.86190  0.55940  0.81660  Biso   1.000  C
  C30      1.0000 0.13810  0.44060  0.18340  Biso   1.000  C
  H19      1.0000 0.88340  0.60280  0.74710  Biso   1.000  H
  H20      1.0000 0.11660  0.39720  0.25290  Biso   1.000  H
  C31      1.0000 0.35630  0.60360  0.28330  Biso   1.000  C
  C32      1.0000 0.64370  0.39640  0.71670  Biso   1.000  C
  C33      1.0000 0.25010  0.67760  0.33130  Biso   1.000  C
  C34      1.0000 0.74990  0.32240  0.66870  Biso   1.000  C
  H21      1.0000 0.21640  0.76070  0.29450  Biso   1.000  H
  H22      1.0000 0.78360  0.23930  0.70550  Biso   1.000  H
  C35      1.0000 0.19020  0.63490  0.43190  Biso   1.000  C
  C36      1.0000 0.80980  0.36510  0.56810  Biso   1.000  C
  H23      1.0000 0.11600  0.68940  0.46190  Biso   1.000  H
  H24      1.0000 0.88400  0.31060  0.53810  Biso   1.000  H
  C37      1.0000 0.23440  0.51780  0.48880  Biso   1.000  C
  C38      1.0000 0.76560  0.48220  0.51120  Biso   1.000  C
  C39      1.0000 0.33560  0.44430  0.44080  Biso   1.000  C
  C40      1.0000 0.66440  0.55570  0.55920  Biso   1.000  C
  H25      1.0000 0.36750  0.36070  0.47750  Biso   1.000  H
  H26      1.0000 0.63250  0.63930  0.52250  Biso   1.000  H
  C41      1.0000 0.39570  0.48510  0.33980  Biso   1.000  C
  C42      1.0000 0.60430  0.51490  0.66020  Biso   1.000  C
  H27      1.0000 0.46620  0.42860  0.30950  Biso   1.000  H
  H28      1.0000 0.53380  0.57140  0.69050  Biso   1.000  H
  C43      1.0000 0.16980  0.47140  0.59860  Biso   1.000  C
  C44      1.0000 0.83020  0.52860  0.40140  Biso   1.000  C
  H29      1.0000 0.15150  0.38450  0.61110  Biso   1.000  H
  H30      1.0000 0.84850  0.61550  0.38890  Biso   1.000  H
  H31      1.0000 0.07380  0.52410  0.61170  Biso   1.000  H
  H32      1.0000 0.92620  0.47590  0.38830  Biso   1.000  H
  H33      1.0000 0.24210  0.47560  0.64430  Biso   1.000  H
  H34      1.0000 0.75790  0.52440  0.35570  Biso   1.000  H
  C45      1.0000 0.30950  0.90910  0.50300  Biso   1.000  C
  C46      1.0000 0.69050  0.09090  0.49700  Biso   1.000  C
  H35      1.0000 0.38140  0.91500  0.44010  Biso   1.000  H
  H36      1.0000 0.61860  0.08500  0.55990  Biso   1.000  H
  H37      1.0000 0.24010  0.84930  0.50340  Biso   1.000  H
  H38      1.0000 0.75990  0.15070  0.49660  Biso   1.000  H
  C47      1.0000 0.21600  0.03770  0.49800  Biso   1.000  C
  C48      1.0000 0.78400  0.96230  0.50200  Biso   1.000  C
  H39      1.0000 0.27590  0.09020  0.52010  Biso   1.000  H
  H40      1.0000 0.72410  0.90980  0.47990  Biso   1.000  H
  H41      1.0000 0.12320  0.02740  0.54670  Biso   1.000  H
  H42      1.0000 0.87680  0.97260  0.45330  Biso   1.000  H
  C49      1.0000 0.39990  0.85610  0.59600  Biso   1.000  C
  C50      1.0000 0.60010  0.14390  0.40400  Biso   1.000  C
  H43      1.0000 0.45440  0.92310  0.60180  Biso   1.000  H
  H44      1.0000 0.54560  0.07690  0.39820  Biso   1.000  H
  H45      1.0000 0.47800  0.78770  0.58110  Biso   1.000  H
  H46      1.0000 0.52200  0.21230  0.41890  Biso   1.000  H
  H47      1.0000 0.10800  0.73500  0.66800  Biso   1.000  H
  H48      1.0000 0.89200  0.26500  0.33200  Biso   1.000  H
