data_image0
_cell_length_a       14.6527
_cell_length_b       25.481
_cell_length_c       13.7823
_cell_angle_alpha    90
_cell_angle_beta     106.866
_cell_angle_gamma    90

_symmetry_space_group_name_H-M    "P 1"
_symmetry_int_tables_number       1

loop_
  _symmetry_equiv_pos_as_xyz
  'x, y, z'

loop_
  _atom_site_label
  _atom_site_occupancy
  _atom_site_fract_x
  _atom_site_fract_y
  _atom_site_fract_z
  _atom_site_thermal_displace_type
  _atom_site_B_iso_or_equiv
  _atom_site_type_symbol
  Cu1      1.0000 0.24173  0.12292  0.73357  Biso   1.000  Cu
  Cu2      1.0000 0.74173  0.62292  0.73357  Biso   1.000  Cu
  Cu3      1.0000 0.75827  0.12292  0.76643  Biso   1.000  Cu
  Cu4      1.0000 0.25827  0.62292  0.76643  Biso   1.000  Cu
  Cu5      1.0000 0.75827  0.87708  0.26643  Biso   1.000  Cu
  Cu6      1.0000 0.25827  0.37708  0.26643  Biso   1.000  Cu
  Cu7      1.0000 0.24173  0.87708  0.23357  Biso   1.000  Cu
  Cu8      1.0000 0.74173  0.37708  0.23357  Biso   1.000  Cu
  V1       1.0000 0.33127  0.13243  0.99661  Biso   1.000  V
  V2       1.0000 0.83127  0.63243  0.99661  Biso   1.000  V
  V3       1.0000 0.66873  0.13243  0.50339  Biso   1.000  V
  V4       1.0000 0.16873  0.63243  0.50339  Biso   1.000  V
  V5       1.0000 0.66873  0.86757  0.00339  Biso   1.000  V
  V6       1.0000 0.16873  0.36757  0.00339  Biso   1.000  V
  V7       1.0000 0.33127  0.86757  0.49661  Biso   1.000  V
  V8       1.0000 0.83127  0.36757  0.49661  Biso   1.000  V
  V9       1.0000 0.29010  0.32090  0.84561  Biso   1.000  V
  V10      1.0000 0.79010  0.82090  0.84561  Biso   1.000  V
  V11      1.0000 0.70990  0.32090  0.65439  Biso   1.000  V
  V12      1.0000 0.20990  0.82090  0.65439  Biso   1.000  V
  V13      1.0000 0.70990  0.67910  0.15439  Biso   1.000  V
  V14      1.0000 0.20990  0.17910  0.15439  Biso   1.000  V
  V15      1.0000 0.29010  0.67910  0.34561  Biso   1.000  V
  V16      1.0000 0.79010  0.17910  0.34561  Biso   1.000  V
  P1       1.0000 0.39378  0.20469  0.85014  Biso   1.000  P
  P2       1.0000 0.89378  0.70469  0.85014  Biso   1.000  P
  P3       1.0000 0.60622  0.20469  0.64986  Biso   1.000  P
  P4       1.0000 0.10622  0.70469  0.64986  Biso   1.000  P
  P5       1.0000 0.60622  0.79531  0.14986  Biso   1.000  P
  P6       1.0000 0.10622  0.29531  0.14986  Biso   1.000  P
  P7       1.0000 0.39378  0.79531  0.35014  Biso   1.000  P
  P8       1.0000 0.89378  0.29531  0.35014  Biso   1.000  P
  O1       1.0000 0.34807  0.17134  0.75733  Biso   1.000  O
  O2       1.0000 0.84807  0.67134  0.75733  Biso   1.000  O
  O3       1.0000 0.65193  0.17134  0.74267  Biso   1.000  O
  O4       1.0000 0.15193  0.67134  0.74267  Biso   1.000  O
  O5       1.0000 0.65193  0.82866  0.24267  Biso   1.000  O
  O6       1.0000 0.15193  0.32866  0.24267  Biso   1.000  O
  O7       1.0000 0.34807  0.82866  0.25733  Biso   1.000  O
  O8       1.0000 0.84807  0.32866  0.25733  Biso   1.000  O
  O9       1.0000 0.23769  0.12249  0.89725  Biso   1.000  O
  O10      1.0000 0.73769  0.62249  0.89725  Biso   1.000  O
  O11      1.0000 0.76231  0.12249  0.60275  Biso   1.000  O
  O12      1.0000 0.26231  0.62249  0.60275  Biso   1.000  O
  O13      1.0000 0.76231  0.87751  0.10275  Biso   1.000  O
  O14      1.0000 0.26231  0.37751  0.10275  Biso   1.000  O
  O15      1.0000 0.23769  0.87751  0.39725  Biso   1.000  O
  O16      1.0000 0.73769  0.37751  0.39725  Biso   1.000  O
  O17      1.0000 0.30134  0.16973  0.09237  Biso   1.000  O
  O18      1.0000 0.80134  0.66973  0.09237  Biso   1.000  O
  O19      1.0000 0.69866  0.16973  0.40763  Biso   1.000  O
  O20      1.0000 0.19866  0.66973  0.40763  Biso   1.000  O
  O21      1.0000 0.69866  0.83027  0.90763  Biso   1.000  O
  O22      1.0000 0.19866  0.33027  0.90763  Biso   1.000  O
  O23      1.0000 0.30134  0.83027  0.59237  Biso   1.000  O
  O24      1.0000 0.80134  0.33027  0.59237  Biso   1.000  O
  O25      1.0000 0.37867  0.07696  0.03992  Biso   1.000  O
  O26      1.0000 0.87867  0.57696  0.03992  Biso   1.000  O
  O27      1.0000 0.62133  0.07696  0.46008  Biso   1.000  O
  O28      1.0000 0.12133  0.57696  0.46008  Biso   1.000  O
  O29      1.0000 0.62133  0.92304  0.96008  Biso   1.000  O
  O30      1.0000 0.12133  0.42304  0.96008  Biso   1.000  O
  O31      1.0000 0.37867  0.92304  0.53992  Biso   1.000  O
  O32      1.0000 0.87867  0.42304  0.53992  Biso   1.000  O
  O33      1.0000 0.41879  0.17097  0.94791  Biso   1.000  O
  O34      1.0000 0.91879  0.67097  0.94791  Biso   1.000  O
  O35      1.0000 0.58121  0.17097  0.55209  Biso   1.000  O
  O36      1.0000 0.08121  0.67097  0.55209  Biso   1.000  O
  O37      1.0000 0.58121  0.82903  0.05209  Biso   1.000  O
  O38      1.0000 0.08121  0.32903  0.05209  Biso   1.000  O
  O39      1.0000 0.41879  0.82903  0.44791  Biso   1.000  O
  O40      1.0000 0.91879  0.32903  0.44791  Biso   1.000  O
  O41      1.0000 0.32938  0.25018  0.86235  Biso   1.000  O
  O42      1.0000 0.82938  0.75018  0.86235  Biso   1.000  O
  O43      1.0000 0.67062  0.25018  0.63765  Biso   1.000  O
  O44      1.0000 0.17062  0.75018  0.63765  Biso   1.000  O
  O45      1.0000 0.67062  0.74982  0.13765  Biso   1.000  O
  O46      1.0000 0.17062  0.24982  0.13765  Biso   1.000  O
  O47      1.0000 0.32938  0.74982  0.36235  Biso   1.000  O
  O48      1.0000 0.82938  0.24982  0.36235  Biso   1.000  O
  O49      1.0000 0.37838  0.36077  0.88939  Biso   1.000  O
  O50      1.0000 0.87838  0.86077  0.88939  Biso   1.000  O
  O51      1.0000 0.62162  0.36077  0.61061  Biso   1.000  O
  O52      1.0000 0.12162  0.86077  0.61061  Biso   1.000  O
  O53      1.0000 0.62162  0.63923  0.11061  Biso   1.000  O
  O54      1.0000 0.12162  0.13923  0.11061  Biso   1.000  O
  O55      1.0000 0.37838  0.63923  0.38939  Biso   1.000  O
  O56      1.0000 0.87838  0.13923  0.38939  Biso   1.000  O
  O57      1.0000 0.24579  0.33244  0.72574  Biso   1.000  O
  O58      1.0000 0.74579  0.83244  0.72574  Biso   1.000  O
  O59      1.0000 0.75421  0.33244  0.77426  Biso   1.000  O
  O60      1.0000 0.25421  0.83244  0.77426  Biso   1.000  O
  O61      1.0000 0.75421  0.66756  0.27426  Biso   1.000  O
  O62      1.0000 0.25421  0.16756  0.27426  Biso   1.000  O
  O63      1.0000 0.24579  0.66756  0.22574  Biso   1.000  O
  O64      1.0000 0.74579  0.16756  0.22574  Biso   1.000  O
  N1       1.0000 0.13482  0.17451  0.67237  Biso   1.000  N
  N2       1.0000 0.63482  0.67451  0.67237  Biso   1.000  N
  N3       1.0000 0.86518  0.17451  0.82763  Biso   1.000  N
  N4       1.0000 0.36518  0.67451  0.82763  Biso   1.000  N
  N5       1.0000 0.86518  0.82549  0.32763  Biso   1.000  N
  N6       1.0000 0.36518  0.32549  0.32763  Biso   1.000  N
  N7       1.0000 0.13482  0.82549  0.17237  Biso   1.000  N
  N8       1.0000 0.63482  0.32549  0.17237  Biso   1.000  N
  N9       1.0000 0.13676  0.07476  0.68430  Biso   1.000  N
  N10      1.0000 0.63676  0.57476  0.68430  Biso   1.000  N
  N11      1.0000 0.86324  0.07476  0.81570  Biso   1.000  N
  N12      1.0000 0.36324  0.57476  0.81570  Biso   1.000  N
  N13      1.0000 0.86324  0.92524  0.31570  Biso   1.000  N
  N14      1.0000 0.36324  0.42524  0.31570  Biso   1.000  N
  N15      1.0000 0.13676  0.92524  0.18430  Biso   1.000  N
  N16      1.0000 0.63676  0.42524  0.18430  Biso   1.000  N
  N17      1.0000 0.31185  0.05280  0.76237  Biso   1.000  N
  N18      1.0000 0.81185  0.55280  0.76237  Biso   1.000  N
  N19      1.0000 0.68815  0.05280  0.73763  Biso   1.000  N
  N20      1.0000 0.18815  0.55280  0.73763  Biso   1.000  N
  N21      1.0000 0.68815  0.94720  0.23763  Biso   1.000  N
  N22      1.0000 0.18815  0.44720  0.23763  Biso   1.000  N
  N23      1.0000 0.31185  0.94720  0.26237  Biso   1.000  N
  N24      1.0000 0.81185  0.44720  0.26237  Biso   1.000  N
  C1       1.0000 0.14108  0.22688  0.66920  Biso   1.000  C
  C2       1.0000 0.64108  0.72688  0.66920  Biso   1.000  C
  C3       1.0000 0.85892  0.22688  0.83080  Biso   1.000  C
  C4       1.0000 0.35892  0.72688  0.83080  Biso   1.000  C
  C5       1.0000 0.85892  0.77312  0.33080  Biso   1.000  C
  C6       1.0000 0.35892  0.27312  0.33080  Biso   1.000  C
  C7       1.0000 0.14108  0.77312  0.16920  Biso   1.000  C
  C8       1.0000 0.64108  0.27312  0.16920  Biso   1.000  C
  H1       1.0000 0.20250  0.24260  0.68660  Biso   1.000  H
  H2       1.0000 0.70250  0.74260  0.68660  Biso   1.000  H
  H3       1.0000 0.79750  0.24260  0.81340  Biso   1.000  H
  H4       1.0000 0.29750  0.74260  0.81340  Biso   1.000  H
  H5       1.0000 0.79750  0.75740  0.31340  Biso   1.000  H
  H6       1.0000 0.29750  0.25740  0.31340  Biso   1.000  H
  H7       1.0000 0.20250  0.75740  0.18660  Biso   1.000  H
  H8       1.0000 0.70250  0.25740  0.18660  Biso   1.000  H
  C9       1.0000 0.06127  0.25892  0.64150  Biso   1.000  C
  C10      1.0000 0.56127  0.75892  0.64150  Biso   1.000  C
  C11      1.0000 0.93873  0.25892  0.85850  Biso   1.000  C
  C12      1.0000 0.43873  0.75892  0.85850  Biso   1.000  C
  C13      1.0000 0.93873  0.74108  0.35850  Biso   1.000  C
  C14      1.0000 0.43873  0.24108  0.35850  Biso   1.000  C
  C15      1.0000 0.06127  0.74108  0.14150  Biso   1.000  C
  C16      1.0000 0.56127  0.24108  0.14150  Biso   1.000  C
  H9       1.0000 0.06800  0.29600  0.64020  Biso   1.000  H
  H10      1.0000 0.56800  0.79600  0.64020  Biso   1.000  H
  H11      1.0000 0.93200  0.29600  0.85980  Biso   1.000  H
  H12      1.0000 0.43200  0.79600  0.85980  Biso   1.000  H
  H13      1.0000 0.93200  0.70400  0.35980  Biso   1.000  H
  H14      1.0000 0.43200  0.20400  0.35980  Biso   1.000  H
  H15      1.0000 0.06800  0.70400  0.14020  Biso   1.000  H
  H16      1.0000 0.56800  0.20400  0.14020  Biso   1.000  H
  C17      1.0000 0.97146  0.23620  0.61580  Biso   1.000  C
  C18      1.0000 0.47146  0.73620  0.61580  Biso   1.000  C
  C19      1.0000 0.02854  0.23620  0.88420  Biso   1.000  C
  C20      1.0000 0.52854  0.73620  0.88420  Biso   1.000  C
  C21      1.0000 0.02854  0.76380  0.38420  Biso   1.000  C
  C22      1.0000 0.52854  0.26380  0.38420  Biso   1.000  C
  C23      1.0000 0.97146  0.76380  0.11580  Biso   1.000  C
  C24      1.0000 0.47146  0.26380  0.11580  Biso   1.000  C
  H17      1.0000 0.91580  0.25750  0.59850  Biso   1.000  H
  H18      1.0000 0.41580  0.75750  0.59850  Biso   1.000  H
  H19      1.0000 0.08420  0.25750  0.90150  Biso   1.000  H
  H20      1.0000 0.58420  0.75750  0.90150  Biso   1.000  H
  H21      1.0000 0.08420  0.74250  0.40150  Biso   1.000  H
  H22      1.0000 0.58420  0.24250  0.40150  Biso   1.000  H
  H23      1.0000 0.91580  0.74250  0.09850  Biso   1.000  H
  H24      1.0000 0.41580  0.24250  0.09850  Biso   1.000  H
  C25      1.0000 0.96419  0.18195  0.61569  Biso   1.000  C
  C26      1.0000 0.46419  0.68195  0.61569  Biso   1.000  C
  C27      1.0000 0.03581  0.18195  0.88431  Biso   1.000  C
  C28      1.0000 0.53581  0.68195  0.88431  Biso   1.000  C
  C29      1.0000 0.03581  0.81805  0.38431  Biso   1.000  C
  C30      1.0000 0.53581  0.31805  0.38431  Biso   1.000  C
  C31      1.0000 0.96419  0.81805  0.11569  Biso   1.000  C
  C32      1.0000 0.46419  0.31805  0.11569  Biso   1.000  C
  H25      1.0000 0.90340  0.16540  0.59670  Biso   1.000  H
  H26      1.0000 0.40340  0.66540  0.59670  Biso   1.000  H
  H27      1.0000 0.09660  0.16540  0.90330  Biso   1.000  H
  H28      1.0000 0.59660  0.66540  0.90330  Biso   1.000  H
  H29      1.0000 0.09660  0.83460  0.40330  Biso   1.000  H
  H30      1.0000 0.59660  0.33460  0.40330  Biso   1.000  H
  H31      1.0000 0.90340  0.83460  0.09670  Biso   1.000  H
  H32      1.0000 0.40340  0.33460  0.09670  Biso   1.000  H
  C33      1.0000 0.04695  0.15210  0.64375  Biso   1.000  C
  C34      1.0000 0.54695  0.65210  0.64375  Biso   1.000  C
  C35      1.0000 0.95305  0.15210  0.85625  Biso   1.000  C
  C36      1.0000 0.45305  0.65210  0.85625  Biso   1.000  C
  C37      1.0000 0.95305  0.84790  0.35625  Biso   1.000  C
  C38      1.0000 0.45305  0.34790  0.35625  Biso   1.000  C
  C39      1.0000 0.04695  0.84790  0.14375  Biso   1.000  C
  C40      1.0000 0.54695  0.34790  0.14375  Biso   1.000  C
  C41      1.0000 0.04861  0.09444  0.64601  Biso   1.000  C
  C42      1.0000 0.54861  0.59444  0.64601  Biso   1.000  C
  C43      1.0000 0.95139  0.09444  0.85399  Biso   1.000  C
  C44      1.0000 0.45139  0.59444  0.85399  Biso   1.000  C
  C45      1.0000 0.95139  0.90556  0.35399  Biso   1.000  C
  C46      1.0000 0.45139  0.40556  0.35399  Biso   1.000  C
  C47      1.0000 0.04861  0.90556  0.14601  Biso   1.000  C
  C48      1.0000 0.54861  0.40556  0.14601  Biso   1.000  C
  C49      1.0000 0.97090  0.06163  0.61282  Biso   1.000  C
  C50      1.0000 0.47090  0.56163  0.61282  Biso   1.000  C
  C51      1.0000 0.02910  0.06163  0.88718  Biso   1.000  C
  C52      1.0000 0.52910  0.56163  0.88718  Biso   1.000  C
  C53      1.0000 0.02910  0.93837  0.38718  Biso   1.000  C
  C54      1.0000 0.52910  0.43837  0.38718  Biso   1.000  C
  C55      1.0000 0.97090  0.93837  0.11282  Biso   1.000  C
  C56      1.0000 0.47090  0.43837  0.11282  Biso   1.000  C
  H33      1.0000 0.90870  0.07600  0.58680  Biso   1.000  H
  H34      1.0000 0.40870  0.57600  0.58680  Biso   1.000  H
  H35      1.0000 0.09130  0.07600  0.91320  Biso   1.000  H
  H36      1.0000 0.59130  0.57600  0.91320  Biso   1.000  H
  H37      1.0000 0.09130  0.92400  0.41320  Biso   1.000  H
  H38      1.0000 0.59130  0.42400  0.41320  Biso   1.000  H
  H39      1.0000 0.90870  0.92400  0.08680  Biso   1.000  H
  H40      1.0000 0.40870  0.42400  0.08680  Biso   1.000  H
  C57      1.0000 0.98389  0.00694  0.61753  Biso   1.000  C
  C58      1.0000 0.48389  0.50694  0.61753  Biso   1.000  C
  C59      1.0000 0.01611  0.00694  0.88247  Biso   1.000  C
  C60      1.0000 0.51611  0.50694  0.88247  Biso   1.000  C
  C61      1.0000 0.01611  0.99306  0.38247  Biso   1.000  C
  C62      1.0000 0.51611  0.49306  0.38247  Biso   1.000  C
  C63      1.0000 0.98389  0.99306  0.11753  Biso   1.000  C
  C64      1.0000 0.48389  0.49306  0.11753  Biso   1.000  C
  C65      1.0000 0.90135  0.97105  0.58211  Biso   1.000  C
  C66      1.0000 0.40135  0.47105  0.58211  Biso   1.000  C
  C67      1.0000 0.09865  0.97105  0.91789  Biso   1.000  C
  C68      1.0000 0.59865  0.47105  0.91789  Biso   1.000  C
  C69      1.0000 0.09865  0.02895  0.41789  Biso   1.000  C
  C70      1.0000 0.59865  0.52895  0.41789  Biso   1.000  C
  C71      1.0000 0.90135  0.02895  0.08211  Biso   1.000  C
  C72      1.0000 0.40135  0.52895  0.08211  Biso   1.000  C
  C73      1.0000 0.80948  0.99100  0.53670  Biso   1.000  C
  C74      1.0000 0.30948  0.49100  0.53670  Biso   1.000  C
  C75      1.0000 0.19052  0.99100  0.96330  Biso   1.000  C
  C76      1.0000 0.69052  0.49100  0.96330  Biso   1.000  C
  C77      1.0000 0.19052  0.00900  0.46330  Biso   1.000  C
  C78      1.0000 0.69052  0.50900  0.46330  Biso   1.000  C
  C79      1.0000 0.80948  0.00900  0.03670  Biso   1.000  C
  C80      1.0000 0.30948  0.50900  0.03670  Biso   1.000  C
  H41      1.0000 0.80030  0.02780  0.52840  Biso   1.000  H
  H42      1.0000 0.30030  0.52780  0.52840  Biso   1.000  H
  H43      1.0000 0.19970  0.02780  0.97160  Biso   1.000  H
  H44      1.0000 0.69970  0.52780  0.97160  Biso   1.000  H
  H45      1.0000 0.19970  0.97220  0.47160  Biso   1.000  H
  H46      1.0000 0.69970  0.47220  0.47160  Biso   1.000  H
  H47      1.0000 0.80030  0.97220  0.02840  Biso   1.000  H
  H48      1.0000 0.30030  0.47220  0.02840  Biso   1.000  H
  C81      1.0000 0.73220  0.95757  0.50380  Biso   1.000  C
  C82      1.0000 0.23220  0.45757  0.50380  Biso   1.000  C
  C83      1.0000 0.26780  0.95757  0.99620  Biso   1.000  C
  C84      1.0000 0.76780  0.45757  0.99620  Biso   1.000  C
  C85      1.0000 0.26780  0.04243  0.49620  Biso   1.000  C
  C86      1.0000 0.76780  0.54243  0.49620  Biso   1.000  C
  C87      1.0000 0.73220  0.04243  0.00380  Biso   1.000  C
  C88      1.0000 0.23220  0.54243  0.00380  Biso   1.000  C
  H49      1.0000 0.67090  0.97190  0.47230  Biso   1.000  H
  H50      1.0000 0.17090  0.47190  0.47230  Biso   1.000  H
  H51      1.0000 0.32910  0.97190  0.02770  Biso   1.000  H
  H52      1.0000 0.82910  0.47190  0.02770  Biso   1.000  H
  H53      1.0000 0.32910  0.02810  0.52770  Biso   1.000  H
  H54      1.0000 0.82910  0.52810  0.52770  Biso   1.000  H
  H55      1.0000 0.67090  0.02810  0.97230  Biso   1.000  H
  H56      1.0000 0.17090  0.52810  0.97230  Biso   1.000  H
  C89      1.0000 0.74242  0.90380  0.51600  Biso   1.000  C
  C90      1.0000 0.24242  0.40380  0.51600  Biso   1.000  C
  C91      1.0000 0.25758  0.90380  0.98400  Biso   1.000  C
  C92      1.0000 0.75758  0.40380  0.98400  Biso   1.000  C
  C93      1.0000 0.25758  0.09620  0.48400  Biso   1.000  C
  C94      1.0000 0.75758  0.59620  0.48400  Biso   1.000  C
  C95      1.0000 0.74242  0.09620  0.01600  Biso   1.000  C
  C96      1.0000 0.24242  0.59620  0.01600  Biso   1.000  C
  C97      1.0000 0.83370  0.88377  0.56060  Biso   1.000  C
  C98      1.0000 0.33370  0.38377  0.56060  Biso   1.000  C
  C99      1.0000 0.16630  0.88377  0.93940  Biso   1.000  C
  C100     1.0000 0.66630  0.38377  0.93940  Biso   1.000  C
  C101     1.0000 0.16630  0.11623  0.43940  Biso   1.000  C
  C102     1.0000 0.66630  0.61623  0.43940  Biso   1.000  C
  C103     1.0000 0.83370  0.11623  0.06060  Biso   1.000  C
  C104     1.0000 0.33370  0.61623  0.06060  Biso   1.000  C
  H57      1.0000 0.84230  0.84690  0.56880  Biso   1.000  H
  H58      1.0000 0.34230  0.34690  0.56880  Biso   1.000  H
  H59      1.0000 0.15770  0.84690  0.93120  Biso   1.000  H
  H60      1.0000 0.65770  0.34690  0.93120  Biso   1.000  H
  H61      1.0000 0.15770  0.15310  0.43120  Biso   1.000  H
  H62      1.0000 0.65770  0.65310  0.43120  Biso   1.000  H
  H63      1.0000 0.84230  0.15310  0.06880  Biso   1.000  H
  H64      1.0000 0.34230  0.65310  0.06880  Biso   1.000  H
  C105     1.0000 0.91191  0.91676  0.59310  Biso   1.000  C
  C106     1.0000 0.41191  0.41676  0.59310  Biso   1.000  C
  C107     1.0000 0.08809  0.91676  0.90690  Biso   1.000  C
  C108     1.0000 0.58809  0.41676  0.90690  Biso   1.000  C
  C109     1.0000 0.08809  0.08324  0.40690  Biso   1.000  C
  C110     1.0000 0.58809  0.58324  0.40690  Biso   1.000  C
  C111     1.0000 0.91191  0.08324  0.09310  Biso   1.000  C
  C112     1.0000 0.41191  0.58324  0.09310  Biso   1.000  C
  H65      1.0000 0.97330  0.90220  0.62320  Biso   1.000  H
  H66      1.0000 0.47330  0.40220  0.62320  Biso   1.000  H
  H67      1.0000 0.02670  0.90220  0.87680  Biso   1.000  H
  H68      1.0000 0.52670  0.40220  0.87680  Biso   1.000  H
  H69      1.0000 0.02670  0.09780  0.37680  Biso   1.000  H
  H70      1.0000 0.52670  0.59780  0.37680  Biso   1.000  H
  H71      1.0000 0.97330  0.09780  0.12320  Biso   1.000  H
  H72      1.0000 0.47330  0.59780  0.12320  Biso   1.000  H
  C113     1.0000 0.07748  0.98790  0.65705  Biso   1.000  C
  C114     1.0000 0.57748  0.48790  0.65705  Biso   1.000  C
  C115     1.0000 0.92252  0.98790  0.84295  Biso   1.000  C
  C116     1.0000 0.42252  0.48790  0.84295  Biso   1.000  C
  C117     1.0000 0.92252  0.01210  0.34295  Biso   1.000  C
  C118     1.0000 0.42252  0.51210  0.34295  Biso   1.000  C
  C119     1.0000 0.07748  0.01210  0.15705  Biso   1.000  C
  C120     1.0000 0.57748  0.51210  0.15705  Biso   1.000  C
  H73      1.0000 0.08940  0.95120  0.66070  Biso   1.000  H
  H74      1.0000 0.58940  0.45120  0.66070  Biso   1.000  H
  H75      1.0000 0.91060  0.95120  0.83930  Biso   1.000  H
  H76      1.0000 0.41060  0.45120  0.83930  Biso   1.000  H
  H77      1.0000 0.91060  0.04880  0.33930  Biso   1.000  H
  H78      1.0000 0.41060  0.54880  0.33930  Biso   1.000  H
  H79      1.0000 0.08940  0.04880  0.16070  Biso   1.000  H
  H80      1.0000 0.58940  0.54880  0.16070  Biso   1.000  H
  C121     1.0000 0.15229  0.02312  0.69061  Biso   1.000  C
  C122     1.0000 0.65229  0.52312  0.69061  Biso   1.000  C
  C123     1.0000 0.84771  0.02312  0.80939  Biso   1.000  C
  C124     1.0000 0.34771  0.52312  0.80939  Biso   1.000  C
  C125     1.0000 0.84771  0.97688  0.30939  Biso   1.000  C
  C126     1.0000 0.34771  0.47688  0.30939  Biso   1.000  C
  C127     1.0000 0.15229  0.97688  0.19061  Biso   1.000  C
  C128     1.0000 0.65229  0.47688  0.19061  Biso   1.000  C
  C129     1.0000 0.25421  0.01015  0.73692  Biso   1.000  C
  C130     1.0000 0.75421  0.51015  0.73692  Biso   1.000  C
  C131     1.0000 0.74579  0.01015  0.76308  Biso   1.000  C
  C132     1.0000 0.24579  0.51015  0.76308  Biso   1.000  C
  C133     1.0000 0.74579  0.98985  0.26308  Biso   1.000  C
  C134     1.0000 0.24579  0.48985  0.26308  Biso   1.000  C
  C135     1.0000 0.25421  0.98985  0.23692  Biso   1.000  C
  C136     1.0000 0.75421  0.48985  0.23692  Biso   1.000  C
  C137     1.0000 0.28816  0.95947  0.75630  Biso   1.000  C
  C138     1.0000 0.78816  0.45947  0.75630  Biso   1.000  C
  C139     1.0000 0.71184  0.95947  0.74370  Biso   1.000  C
  C140     1.0000 0.21184  0.45947  0.74370  Biso   1.000  C
  C141     1.0000 0.71184  0.04053  0.24370  Biso   1.000  C
  C142     1.0000 0.21184  0.54053  0.24370  Biso   1.000  C
  C143     1.0000 0.28816  0.04053  0.25630  Biso   1.000  C
  C144     1.0000 0.78816  0.54053  0.25630  Biso   1.000  C
  H81      1.0000 0.24660  0.93030  0.73640  Biso   1.000  H
  H82      1.0000 0.74660  0.43030  0.73640  Biso   1.000  H
  H83      1.0000 0.75340  0.93030  0.76360  Biso   1.000  H
  H84      1.0000 0.25340  0.43030  0.76360  Biso   1.000  H
  H85      1.0000 0.75340  0.06970  0.26360  Biso   1.000  H
  H86      1.0000 0.25340  0.56970  0.26360  Biso   1.000  H
  H87      1.0000 0.24660  0.06970  0.23640  Biso   1.000  H
  H88      1.0000 0.74660  0.56970  0.23640  Biso   1.000  H
  C145     1.0000 0.38450  0.95210  0.80550  Biso   1.000  C
  C146     1.0000 0.88450  0.45210  0.80550  Biso   1.000  C
  C147     1.0000 0.61550  0.95210  0.69450  Biso   1.000  C
  C148     1.0000 0.11550  0.45210  0.69450  Biso   1.000  C
  C149     1.0000 0.61550  0.04790  0.19450  Biso   1.000  C
  C150     1.0000 0.11550  0.54790  0.19450  Biso   1.000  C
  C151     1.0000 0.38450  0.04790  0.30550  Biso   1.000  C
  C152     1.0000 0.88450  0.54790  0.30550  Biso   1.000  C
  H89      1.0000 0.41000  0.91770  0.81880  Biso   1.000  H
  H90      1.0000 0.91000  0.41770  0.81880  Biso   1.000  H
  H91      1.0000 0.59000  0.91770  0.68120  Biso   1.000  H
  H92      1.0000 0.09000  0.41770  0.68120  Biso   1.000  H
  H93      1.0000 0.59000  0.08230  0.18120  Biso   1.000  H
  H94      1.0000 0.09000  0.58230  0.18120  Biso   1.000  H
  H95      1.0000 0.41000  0.08230  0.31880  Biso   1.000  H
  H96      1.0000 0.91000  0.58230  0.31880  Biso   1.000  H
  C153     1.0000 0.44268  0.99539  0.83490  Biso   1.000  C
  C154     1.0000 0.94268  0.49539  0.83490  Biso   1.000  C
  C155     1.0000 0.55732  0.99539  0.66510  Biso   1.000  C
  C156     1.0000 0.05732  0.49539  0.66510  Biso   1.000  C
  C157     1.0000 0.55732  0.00461  0.16510  Biso   1.000  C
  C158     1.0000 0.05732  0.50461  0.16510  Biso   1.000  C
  C159     1.0000 0.44268  0.00461  0.33490  Biso   1.000  C
  C160     1.0000 0.94268  0.50461  0.33490  Biso   1.000  C
  H97      1.0000 0.50820  0.99110  0.87080  Biso   1.000  H
  H98      1.0000 0.00820  0.49110  0.87080  Biso   1.000  H
  H99      1.0000 0.49180  0.99110  0.62920  Biso   1.000  H
  H100     1.0000 0.99180  0.49110  0.62920  Biso   1.000  H
  H101     1.0000 0.49180  0.00890  0.12920  Biso   1.000  H
  H102     1.0000 0.99180  0.50890  0.12920  Biso   1.000  H
  H103     1.0000 0.50820  0.00890  0.37080  Biso   1.000  H
  H104     1.0000 0.00820  0.50890  0.37080  Biso   1.000  H
  C161     1.0000 0.40443  0.04514  0.81140  Biso   1.000  C
  C162     1.0000 0.90443  0.54514  0.81140  Biso   1.000  C
  C163     1.0000 0.59557  0.04514  0.68860  Biso   1.000  C
  C164     1.0000 0.09557  0.54514  0.68860  Biso   1.000  C
  C165     1.0000 0.59557  0.95486  0.18860  Biso   1.000  C
  C166     1.0000 0.09557  0.45486  0.18860  Biso   1.000  C
  C167     1.0000 0.40443  0.95486  0.31140  Biso   1.000  C
  C168     1.0000 0.90443  0.45486  0.31140  Biso   1.000  C
  H105     1.0000 0.44500  0.07480  0.83050  Biso   1.000  H
  H106     1.0000 0.94500  0.57480  0.83050  Biso   1.000  H
  H107     1.0000 0.55500  0.07480  0.66950  Biso   1.000  H
  H108     1.0000 0.05500  0.57480  0.66950  Biso   1.000  H
  H109     1.0000 0.55500  0.92520  0.16950  Biso   1.000  H
  H110     1.0000 0.05500  0.42520  0.16950  Biso   1.000  H
  H111     1.0000 0.44500  0.92520  0.33050  Biso   1.000  H
  H112     1.0000 0.94500  0.42520  0.33050  Biso   1.000  H
  C169     1.0000 0.65710  0.86807  0.48290  Biso   1.000  C
  C170     1.0000 0.15710  0.36807  0.48290  Biso   1.000  C
  C171     1.0000 0.34290  0.86807  0.01710  Biso   1.000  C
  C172     1.0000 0.84290  0.36807  0.01710  Biso   1.000  C
  C173     1.0000 0.34290  0.13193  0.51710  Biso   1.000  C
  C174     1.0000 0.84290  0.63193  0.51710  Biso   1.000  C
  C175     1.0000 0.65710  0.13193  0.98290  Biso   1.000  C
  C176     1.0000 0.15710  0.63193  0.98290  Biso   1.000  C
  H113     1.0000 0.60770  0.88000  0.51290  Biso   1.000  H
  H114     1.0000 0.10770  0.38000  0.51290  Biso   1.000  H
  H115     1.0000 0.39230  0.88000  0.98710  Biso   1.000  H
  H116     1.0000 0.89230  0.38000  0.98710  Biso   1.000  H
  H117     1.0000 0.39230  0.12000  0.48710  Biso   1.000  H
  H118     1.0000 0.89230  0.62000  0.48710  Biso   1.000  H
  H119     1.0000 0.60770  0.12000  0.01290  Biso   1.000  H
  H120     1.0000 0.10770  0.62000  0.01290  Biso   1.000  H
  H121     1.0000 0.67610  0.83220  0.50540  Biso   1.000  H
  H122     1.0000 0.17610  0.33220  0.50540  Biso   1.000  H
  H123     1.0000 0.32390  0.83220  0.99460  Biso   1.000  H
  H124     1.0000 0.82390  0.33220  0.99460  Biso   1.000  H
  H125     1.0000 0.32390  0.16780  0.49460  Biso   1.000  H
  H126     1.0000 0.82390  0.66780  0.49460  Biso   1.000  H
  H127     1.0000 0.67610  0.16780  0.00540  Biso   1.000  H
  H128     1.0000 0.17610  0.66780  0.00540  Biso   1.000  H
  H129     1.0000 0.63190  0.86880  0.40880  Biso   1.000  H
  H130     1.0000 0.13190  0.36880  0.40880  Biso   1.000  H
  H131     1.0000 0.36810  0.86880  0.09120  Biso   1.000  H
  H132     1.0000 0.86810  0.36880  0.09120  Biso   1.000  H
  H133     1.0000 0.36810  0.13120  0.59120  Biso   1.000  H
  H134     1.0000 0.86810  0.63120  0.59120  Biso   1.000  H
  H135     1.0000 0.63190  0.13120  0.90880  Biso   1.000  H
  H136     1.0000 0.13190  0.63120  0.90880  Biso   1.000  H
  C177     1.0000 0.50452  0.23242  0.84390  Biso   1.000  C
  C178     1.0000 0.00452  0.73242  0.84390  Biso   1.000  C
  C179     1.0000 0.49548  0.23242  0.65610  Biso   1.000  C
  C180     1.0000 0.99548  0.73242  0.65610  Biso   1.000  C
  C181     1.0000 0.49548  0.76758  0.15610  Biso   1.000  C
  C182     1.0000 0.99548  0.26758  0.15610  Biso   1.000  C
  C183     1.0000 0.50452  0.76758  0.34390  Biso   1.000  C
  C184     1.0000 0.00452  0.26758  0.34390  Biso   1.000  C
  H137     1.0000 0.53050  0.25450  0.90480  Biso   1.000  H
  H138     1.0000 0.03050  0.75450  0.90480  Biso   1.000  H
  H139     1.0000 0.46950  0.25450  0.59520  Biso   1.000  H
  H140     1.0000 0.96950  0.75450  0.59520  Biso   1.000  H
  H141     1.0000 0.46950  0.74550  0.09520  Biso   1.000  H
  H142     1.0000 0.96950  0.24550  0.09520  Biso   1.000  H
  H143     1.0000 0.53050  0.74550  0.40480  Biso   1.000  H
  H144     1.0000 0.03050  0.24550  0.40480  Biso   1.000  H
  H145     1.0000 0.55020  0.20340  0.84710  Biso   1.000  H
  H146     1.0000 0.05020  0.70340  0.84710  Biso   1.000  H
  H147     1.0000 0.44980  0.20340  0.65290  Biso   1.000  H
  H148     1.0000 0.94980  0.70340  0.65290  Biso   1.000  H
  H149     1.0000 0.44980  0.79660  0.15290  Biso   1.000  H
  H150     1.0000 0.94980  0.29660  0.15290  Biso   1.000  H
  H151     1.0000 0.55020  0.79660  0.34710  Biso   1.000  H
  H152     1.0000 0.05020  0.29660  0.34710  Biso   1.000  H
  C185     1.0000 0.50000  0.26567  0.75000  Biso   1.000  C
  C186     1.0000 0.00000  0.76567  0.75000  Biso   1.000  C
  C187     1.0000 0.50000  0.73433  0.25000  Biso   1.000  C
  C188     1.0000 0.00000  0.23433  0.25000  Biso   1.000  C
  H153     1.0000 0.55700  0.28860  0.76470  Biso   1.000  H
  H154     1.0000 0.05700  0.78860  0.76470  Biso   1.000  H
  H155     1.0000 0.44300  0.28860  0.73530  Biso   1.000  H
  H156     1.0000 0.94300  0.78860  0.73530  Biso   1.000  H
  H157     1.0000 0.44300  0.71140  0.23530  Biso   1.000  H
  H158     1.0000 0.94300  0.21140  0.23530  Biso   1.000  H
  H159     1.0000 0.55700  0.71140  0.26470  Biso   1.000  H
  H160     1.0000 0.05700  0.21140  0.26470  Biso   1.000  H
