data_image0
_cell_length_a       27.7564
_cell_length_b       12.7861
_cell_length_c       17.638
_cell_angle_alpha    90
_cell_angle_beta     125.301
_cell_angle_gamma    90

_symmetry_space_group_name_H-M    "P 1"
_symmetry_int_tables_number       1

loop_
  _symmetry_equiv_pos_as_xyz
  'x, y, z'

loop_
  _atom_site_label
  _atom_site_occupancy
  _atom_site_fract_x
  _atom_site_fract_y
  _atom_site_fract_z
  _atom_site_thermal_displace_type
  _atom_site_B_iso_or_equiv
  _atom_site_type_symbol
  Cu1      1.0000 0.07116  0.36793  0.50247  Biso   1.000  Cu
  Cu2      1.0000 0.57116  0.86793  0.50247  Biso   1.000  Cu
  Cu3      1.0000 0.92884  0.36793  0.99753  Biso   1.000  Cu
  Cu4      1.0000 0.42884  0.86793  0.99753  Biso   1.000  Cu
  Cu5      1.0000 0.92884  0.63207  0.49753  Biso   1.000  Cu
  Cu6      1.0000 0.42884  0.13207  0.49753  Biso   1.000  Cu
  Cu7      1.0000 0.07116  0.63207  0.00247  Biso   1.000  Cu
  Cu8      1.0000 0.57116  0.13207  0.00247  Biso   1.000  Cu
  P1       1.0000 0.19102  0.33905  0.50435  Biso   1.000  P
  P2       1.0000 0.69102  0.83905  0.50435  Biso   1.000  P
  P3       1.0000 0.80898  0.33905  0.99565  Biso   1.000  P
  P4       1.0000 0.30898  0.83905  0.99565  Biso   1.000  P
  P5       1.0000 0.80898  0.66095  0.49565  Biso   1.000  P
  P6       1.0000 0.30898  0.16095  0.49565  Biso   1.000  P
  P7       1.0000 0.19102  0.66095  0.00435  Biso   1.000  P
  P8       1.0000 0.69102  0.16095  0.00435  Biso   1.000  P
  P9       1.0000 0.37630  0.66591  0.87067  Biso   1.000  P
  P10      1.0000 0.87630  0.16591  0.87067  Biso   1.000  P
  P11      1.0000 0.62370  0.66591  0.62933  Biso   1.000  P
  P12      1.0000 0.12370  0.16591  0.62933  Biso   1.000  P
  P13      1.0000 0.62370  0.33409  0.12933  Biso   1.000  P
  P14      1.0000 0.12370  0.83409  0.12933  Biso   1.000  P
  P15      1.0000 0.37630  0.33409  0.37067  Biso   1.000  P
  P16      1.0000 0.87630  0.83409  0.37067  Biso   1.000  P
  O1       1.0000 0.13238  0.39002  0.46502  Biso   1.000  O
  O2       1.0000 0.63238  0.89002  0.46502  Biso   1.000  O
  O3       1.0000 0.86762  0.39002  0.03498  Biso   1.000  O
  O4       1.0000 0.36762  0.89002  0.03498  Biso   1.000  O
  O5       1.0000 0.86762  0.60998  0.53498  Biso   1.000  O
  O6       1.0000 0.36762  0.10998  0.53498  Biso   1.000  O
  O7       1.0000 0.13238  0.60998  0.96502  Biso   1.000  O
  O8       1.0000 0.63238  0.10998  0.96502  Biso   1.000  O
  O9       1.0000 0.38315  0.78353  0.88875  Biso   1.000  O
  O10      1.0000 0.88315  0.28353  0.88875  Biso   1.000  O
  O11      1.0000 0.61685  0.78353  0.61125  Biso   1.000  O
  O12      1.0000 0.11685  0.28353  0.61125  Biso   1.000  O
  O13      1.0000 0.61685  0.21647  0.11125  Biso   1.000  O
  O14      1.0000 0.11685  0.71647  0.11125  Biso   1.000  O
  O15      1.0000 0.38315  0.21647  0.38875  Biso   1.000  O
  O16      1.0000 0.88315  0.71647  0.38875  Biso   1.000  O
  O17      1.0000 0.21312  0.37898  0.44441  Biso   1.000  O
  O18      1.0000 0.71312  0.87898  0.44441  Biso   1.000  O
  O19      1.0000 0.78688  0.37898  0.05559  Biso   1.000  O
  O20      1.0000 0.28688  0.87898  0.05559  Biso   1.000  O
  O21      1.0000 0.78688  0.62102  0.55559  Biso   1.000  O
  O22      1.0000 0.28688  0.12102  0.55559  Biso   1.000  O
  O23      1.0000 0.21312  0.62102  0.94441  Biso   1.000  O
  O24      1.0000 0.71312  0.12102  0.94441  Biso   1.000  O
  O25      1.0000 0.19098  0.21971  0.50532  Biso   1.000  O
  O26      1.0000 0.69098  0.71971  0.50532  Biso   1.000  O
  O27      1.0000 0.80902  0.21971  0.99468  Biso   1.000  O
  O28      1.0000 0.30902  0.71971  0.99468  Biso   1.000  O
  O29      1.0000 0.80902  0.78029  0.49468  Biso   1.000  O
  O30      1.0000 0.30902  0.28029  0.49468  Biso   1.000  O
  O31      1.0000 0.19098  0.78029  0.00532  Biso   1.000  O
  O32      1.0000 0.69098  0.28029  0.00532  Biso   1.000  O
  O33      1.0000 0.35723  0.61349  0.93048  Biso   1.000  O
  O34      1.0000 0.85723  0.11349  0.93048  Biso   1.000  O
  O35      1.0000 0.64277  0.61349  0.56952  Biso   1.000  O
  O36      1.0000 0.14277  0.11349  0.56952  Biso   1.000  O
  O37      1.0000 0.64277  0.38651  0.06952  Biso   1.000  O
  O38      1.0000 0.14277  0.88651  0.06952  Biso   1.000  O
  O39      1.0000 0.35723  0.38651  0.43048  Biso   1.000  O
  O40      1.0000 0.85723  0.88651  0.43048  Biso   1.000  O
  O41      1.0000 0.42907  0.60802  0.88995  Biso   1.000  O
  O42      1.0000 0.92907  0.10802  0.88995  Biso   1.000  O
  O43      1.0000 0.57093  0.60802  0.61005  Biso   1.000  O
  O44      1.0000 0.07093  0.10802  0.61005  Biso   1.000  O
  O45      1.0000 0.57093  0.39198  0.11005  Biso   1.000  O
  O46      1.0000 0.07093  0.89198  0.11005  Biso   1.000  O
  O47      1.0000 0.42907  0.39198  0.38995  Biso   1.000  O
  O48      1.0000 0.92907  0.89198  0.38995  Biso   1.000  O
  O49      1.0000 0.95121  0.07976  0.51146  Biso   1.000  O
  O50      1.0000 0.45121  0.57976  0.51146  Biso   1.000  O
  O51      1.0000 0.04879  0.07976  0.98854  Biso   1.000  O
  O52      1.0000 0.54879  0.57976  0.98854  Biso   1.000  O
  O53      1.0000 0.04879  0.92024  0.48854  Biso   1.000  O
  O54      1.0000 0.54879  0.42024  0.48854  Biso   1.000  O
  O55      1.0000 0.95121  0.92024  0.01146  Biso   1.000  O
  O56      1.0000 0.45121  0.42024  0.01146  Biso   1.000  O
  N1       1.0000 0.01119  0.26791  0.39463  Biso   1.000  N
  N2       1.0000 0.51119  0.76791  0.39463  Biso   1.000  N
  N3       1.0000 0.98881  0.26791  0.10537  Biso   1.000  N
  N4       1.0000 0.48881  0.76791  0.10537  Biso   1.000  N
  N5       1.0000 0.98881  0.73209  0.60537  Biso   1.000  N
  N6       1.0000 0.48881  0.23209  0.60537  Biso   1.000  N
  N7       1.0000 0.01119  0.73209  0.89463  Biso   1.000  N
  N8       1.0000 0.51119  0.23209  0.89463  Biso   1.000  N
  N9       1.0000 0.01748  0.46907  0.40908  Biso   1.000  N
  N10      1.0000 0.51748  0.96907  0.40908  Biso   1.000  N
  N11      1.0000 0.98252  0.46907  0.09092  Biso   1.000  N
  N12      1.0000 0.48252  0.96907  0.09092  Biso   1.000  N
  N13      1.0000 0.98252  0.53093  0.59092  Biso   1.000  N
  N14      1.0000 0.48252  0.03093  0.59092  Biso   1.000  N
  N15      1.0000 0.01748  0.53093  0.90908  Biso   1.000  N
  N16      1.0000 0.51748  0.03093  0.90908  Biso   1.000  N
  N17      1.0000 0.09961  0.50411  0.57918  Biso   1.000  N
  N18      1.0000 0.59961  0.00411  0.57918  Biso   1.000  N
  N19      1.0000 0.90039  0.50411  0.92082  Biso   1.000  N
  N20      1.0000 0.40039  0.00411  0.92082  Biso   1.000  N
  N21      1.0000 0.90039  0.49589  0.42082  Biso   1.000  N
  N22      1.0000 0.40039  0.99589  0.42082  Biso   1.000  N
  N23      1.0000 0.09961  0.49589  0.07918  Biso   1.000  N
  N24      1.0000 0.59961  0.99589  0.07918  Biso   1.000  N
  C1       1.0000 0.00819  0.16322  0.39245  Biso   1.000  C
  C2       1.0000 0.50819  0.66322  0.39245  Biso   1.000  C
  C3       1.0000 0.99181  0.16322  0.10755  Biso   1.000  C
  C4       1.0000 0.49181  0.66322  0.10755  Biso   1.000  C
  C5       1.0000 0.99181  0.83678  0.60755  Biso   1.000  C
  C6       1.0000 0.49181  0.33678  0.60755  Biso   1.000  C
  C7       1.0000 0.00819  0.83678  0.89245  Biso   1.000  C
  C8       1.0000 0.50819  0.33678  0.89245  Biso   1.000  C
  H1       1.0000 0.03630  0.12550  0.44720  Biso   1.000  H
  H2       1.0000 0.53630  0.62550  0.44720  Biso   1.000  H
  H3       1.0000 0.96370  0.12550  0.05280  Biso   1.000  H
  H4       1.0000 0.46370  0.62550  0.05280  Biso   1.000  H
  H5       1.0000 0.96370  0.87450  0.55280  Biso   1.000  H
  H6       1.0000 0.46370  0.37450  0.55280  Biso   1.000  H
  H7       1.0000 0.03630  0.87450  0.94720  Biso   1.000  H
  H8       1.0000 0.53630  0.37450  0.94720  Biso   1.000  H
  C9       1.0000 0.96578  0.10724  0.31370  Biso   1.000  C
  C10      1.0000 0.46578  0.60724  0.31370  Biso   1.000  C
  C11      1.0000 0.03422  0.10724  0.18630  Biso   1.000  C
  C12      1.0000 0.53422  0.60724  0.18630  Biso   1.000  C
  C13      1.0000 0.03422  0.89276  0.68630  Biso   1.000  C
  C14      1.0000 0.53422  0.39276  0.68630  Biso   1.000  C
  C15      1.0000 0.96578  0.89276  0.81370  Biso   1.000  C
  C16      1.0000 0.46578  0.39276  0.81370  Biso   1.000  C
  H9       1.0000 0.96400  0.03320  0.31550  Biso   1.000  H
  H10      1.0000 0.46400  0.53320  0.31550  Biso   1.000  H
  H11      1.0000 0.03600  0.03320  0.18450  Biso   1.000  H
  H12      1.0000 0.53600  0.53320  0.18450  Biso   1.000  H
  H13      1.0000 0.03600  0.96680  0.68450  Biso   1.000  H
  H14      1.0000 0.53600  0.46680  0.68450  Biso   1.000  H
  H15      1.0000 0.96400  0.96680  0.81550  Biso   1.000  H
  H16      1.0000 0.46400  0.46680  0.81550  Biso   1.000  H
  C17      1.0000 0.92635  0.16131  0.23300  Biso   1.000  C
  C18      1.0000 0.42635  0.66131  0.23300  Biso   1.000  C
  C19      1.0000 0.07365  0.16131  0.26700  Biso   1.000  C
  C20      1.0000 0.57365  0.66131  0.26700  Biso   1.000  C
  C21      1.0000 0.07365  0.83869  0.76700  Biso   1.000  C
  C22      1.0000 0.57365  0.33869  0.76700  Biso   1.000  C
  C23      1.0000 0.92635  0.83869  0.73300  Biso   1.000  C
  C24      1.0000 0.42635  0.33869  0.73300  Biso   1.000  C
  H17      1.0000 0.89770  0.12500  0.17770  Biso   1.000  H
  H18      1.0000 0.39770  0.62500  0.17770  Biso   1.000  H
  H19      1.0000 0.10230  0.12500  0.32230  Biso   1.000  H
  H20      1.0000 0.60230  0.62500  0.32230  Biso   1.000  H
  H21      1.0000 0.10230  0.87500  0.82230  Biso   1.000  H
  H22      1.0000 0.60230  0.37500  0.82230  Biso   1.000  H
  H23      1.0000 0.89770  0.87500  0.67770  Biso   1.000  H
  H24      1.0000 0.39770  0.37500  0.67770  Biso   1.000  H
  C25      1.0000 0.92928  0.26968  0.23392  Biso   1.000  C
  C26      1.0000 0.42928  0.76968  0.23392  Biso   1.000  C
  C27      1.0000 0.07072  0.26968  0.26608  Biso   1.000  C
  C28      1.0000 0.57072  0.76968  0.26608  Biso   1.000  C
  C29      1.0000 0.07072  0.73032  0.76608  Biso   1.000  C
  C30      1.0000 0.57072  0.23032  0.76608  Biso   1.000  C
  C31      1.0000 0.92928  0.73032  0.73392  Biso   1.000  C
  C32      1.0000 0.42928  0.23032  0.73392  Biso   1.000  C
  H25      1.0000 0.90270  0.30860  0.17910  Biso   1.000  H
  H26      1.0000 0.40270  0.80860  0.17910  Biso   1.000  H
  H27      1.0000 0.09730  0.30860  0.32090  Biso   1.000  H
  H28      1.0000 0.59730  0.80860  0.32090  Biso   1.000  H
  H29      1.0000 0.09730  0.69140  0.82090  Biso   1.000  H
  H30      1.0000 0.59730  0.19140  0.82090  Biso   1.000  H
  H31      1.0000 0.90270  0.69140  0.67910  Biso   1.000  H
  H32      1.0000 0.40270  0.19140  0.67910  Biso   1.000  H
  C33      1.0000 0.97136  0.32045  0.31550  Biso   1.000  C
  C34      1.0000 0.47136  0.82045  0.31550  Biso   1.000  C
  C35      1.0000 0.02864  0.32045  0.18450  Biso   1.000  C
  C36      1.0000 0.52864  0.82045  0.18450  Biso   1.000  C
  C37      1.0000 0.02864  0.67955  0.68450  Biso   1.000  C
  C38      1.0000 0.52864  0.17955  0.68450  Biso   1.000  C
  C39      1.0000 0.97136  0.67955  0.81550  Biso   1.000  C
  C40      1.0000 0.47136  0.17955  0.81550  Biso   1.000  C
  C41      1.0000 0.97534  0.43554  0.32381  Biso   1.000  C
  C42      1.0000 0.47534  0.93554  0.32381  Biso   1.000  C
  C43      1.0000 0.02466  0.43554  0.17619  Biso   1.000  C
  C44      1.0000 0.52466  0.93554  0.17619  Biso   1.000  C
  C45      1.0000 0.02466  0.56446  0.67619  Biso   1.000  C
  C46      1.0000 0.52466  0.06446  0.67619  Biso   1.000  C
  C47      1.0000 0.97534  0.56446  0.82381  Biso   1.000  C
  C48      1.0000 0.47534  0.06446  0.82381  Biso   1.000  C
  C49      1.0000 0.93955  0.50545  0.25282  Biso   1.000  C
  C50      1.0000 0.43955  0.00545  0.25282  Biso   1.000  C
  C51      1.0000 0.06045  0.50545  0.24718  Biso   1.000  C
  C52      1.0000 0.56045  0.00545  0.24718  Biso   1.000  C
  C53      1.0000 0.06045  0.49455  0.74718  Biso   1.000  C
  C54      1.0000 0.56045  0.99455  0.74718  Biso   1.000  C
  C55      1.0000 0.93955  0.49455  0.75282  Biso   1.000  C
  C56      1.0000 0.43955  0.99455  0.75282  Biso   1.000  C
  H33      1.0000 0.91080  0.48060  0.19190  Biso   1.000  H
  H34      1.0000 0.41080  0.98060  0.19190  Biso   1.000  H
  H35      1.0000 0.08920  0.48060  0.30810  Biso   1.000  H
  H36      1.0000 0.58920  0.98060  0.30810  Biso   1.000  H
  H37      1.0000 0.08920  0.51940  0.80810  Biso   1.000  H
  H38      1.0000 0.58920  0.01940  0.80810  Biso   1.000  H
  H39      1.0000 0.91080  0.51940  0.69190  Biso   1.000  H
  H40      1.0000 0.41080  0.01940  0.69190  Biso   1.000  H
  C57      1.0000 0.94599  0.61297  0.27135  Biso   1.000  C
  C58      1.0000 0.44599  0.11297  0.27135  Biso   1.000  C
  C59      1.0000 0.05401  0.61297  0.22865  Biso   1.000  C
  C60      1.0000 0.55401  0.11297  0.22865  Biso   1.000  C
  C61      1.0000 0.05401  0.38703  0.72865  Biso   1.000  C
  C62      1.0000 0.55401  0.88703  0.72865  Biso   1.000  C
  C63      1.0000 0.94599  0.38703  0.77135  Biso   1.000  C
  C64      1.0000 0.44599  0.88703  0.77135  Biso   1.000  C
  C65      1.0000 0.90796  0.68812  0.19533  Biso   1.000  C
  C66      1.0000 0.40796  0.18812  0.19533  Biso   1.000  C
  C67      1.0000 0.09204  0.68812  0.30467  Biso   1.000  C
  C68      1.0000 0.59204  0.18812  0.30467  Biso   1.000  C
  C69      1.0000 0.09204  0.31188  0.80467  Biso   1.000  C
  C70      1.0000 0.59204  0.81188  0.80467  Biso   1.000  C
  C71      1.0000 0.90796  0.31188  0.69533  Biso   1.000  C
  C72      1.0000 0.40796  0.81188  0.69533  Biso   1.000  C
  C73      1.0000 0.85592  0.65410  0.11279  Biso   1.000  C
  C74      1.0000 0.35592  0.15410  0.11279  Biso   1.000  C
  C75      1.0000 0.14408  0.65410  0.38721  Biso   1.000  C
  C76      1.0000 0.64408  0.15410  0.38721  Biso   1.000  C
  C77      1.0000 0.14408  0.34590  0.88721  Biso   1.000  C
  C78      1.0000 0.64408  0.84590  0.88721  Biso   1.000  C
  C79      1.0000 0.85592  0.34590  0.61279  Biso   1.000  C
  C80      1.0000 0.35592  0.84590  0.61279  Biso   1.000  C
  H41      1.0000 0.84330  0.58380  0.10760  Biso   1.000  H
  H42      1.0000 0.34330  0.08380  0.10760  Biso   1.000  H
  H43      1.0000 0.15670  0.58380  0.39240  Biso   1.000  H
  H44      1.0000 0.65670  0.08380  0.39240  Biso   1.000  H
  H45      1.0000 0.15670  0.41620  0.89240  Biso   1.000  H
  H46      1.0000 0.65670  0.91620  0.89240  Biso   1.000  H
  H47      1.0000 0.84330  0.41620  0.60760  Biso   1.000  H
  H48      1.0000 0.34330  0.91620  0.60760  Biso   1.000  H
  C81      1.0000 0.82271  0.72223  0.03861  Biso   1.000  C
  C82      1.0000 0.32271  0.22223  0.03861  Biso   1.000  C
  C83      1.0000 0.17729  0.72223  0.46139  Biso   1.000  C
  C84      1.0000 0.67729  0.22223  0.46139  Biso   1.000  C
  C85      1.0000 0.17729  0.27777  0.96139  Biso   1.000  C
  C86      1.0000 0.67729  0.77777  0.96139  Biso   1.000  C
  C87      1.0000 0.82271  0.27777  0.53861  Biso   1.000  C
  C88      1.0000 0.32271  0.77777  0.53861  Biso   1.000  C
  H49      1.0000 0.78730  0.69780  0.98360  Biso   1.000  H
  H50      1.0000 0.28730  0.19780  0.98360  Biso   1.000  H
  H51      1.0000 0.21270  0.69780  0.51640  Biso   1.000  H
  H52      1.0000 0.71270  0.19780  0.51640  Biso   1.000  H
  H53      1.0000 0.21270  0.30220  0.01640  Biso   1.000  H
  H54      1.0000 0.71270  0.80220  0.01640  Biso   1.000  H
  H55      1.0000 0.78730  0.30220  0.48360  Biso   1.000  H
  H56      1.0000 0.28730  0.80220  0.48360  Biso   1.000  H
  C89      1.0000 0.84007  0.82550  0.04282  Biso   1.000  C
  C90      1.0000 0.34007  0.32550  0.04282  Biso   1.000  C
  C91      1.0000 0.15993  0.82550  0.45718  Biso   1.000  C
  C92      1.0000 0.65993  0.32550  0.45718  Biso   1.000  C
  C93      1.0000 0.15993  0.17450  0.95718  Biso   1.000  C
  C94      1.0000 0.65993  0.67450  0.95718  Biso   1.000  C
  C95      1.0000 0.84007  0.17450  0.54282  Biso   1.000  C
  C96      1.0000 0.34007  0.67450  0.54282  Biso   1.000  C
  C97      1.0000 0.89110  0.85972  0.12605  Biso   1.000  C
  C98      1.0000 0.39110  0.35972  0.12605  Biso   1.000  C
  C99      1.0000 0.10890  0.85972  0.37395  Biso   1.000  C
  C100     1.0000 0.60890  0.35972  0.37395  Biso   1.000  C
  C101     1.0000 0.10890  0.14028  0.87395  Biso   1.000  C
  C102     1.0000 0.60890  0.64028  0.87395  Biso   1.000  C
  C103     1.0000 0.89110  0.14028  0.62605  Biso   1.000  C
  C104     1.0000 0.39110  0.64028  0.62605  Biso   1.000  C
  H57      1.0000 0.90340  0.93030  0.13130  Biso   1.000  H
  H58      1.0000 0.40340  0.43030  0.13130  Biso   1.000  H
  H59      1.0000 0.09660  0.93030  0.36870  Biso   1.000  H
  H60      1.0000 0.59660  0.43030  0.36870  Biso   1.000  H
  H61      1.0000 0.09660  0.06970  0.86870  Biso   1.000  H
  H62      1.0000 0.59660  0.56970  0.86870  Biso   1.000  H
  H63      1.0000 0.90340  0.06970  0.63130  Biso   1.000  H
  H64      1.0000 0.40340  0.56970  0.63130  Biso   1.000  H
  C105     1.0000 0.92415  0.79308  0.20117  Biso   1.000  C
  C106     1.0000 0.42415  0.29308  0.20117  Biso   1.000  C
  C107     1.0000 0.07585  0.79308  0.29883  Biso   1.000  C
  C108     1.0000 0.57585  0.29308  0.29883  Biso   1.000  C
  C109     1.0000 0.07585  0.20692  0.79883  Biso   1.000  C
  C110     1.0000 0.57585  0.70692  0.79883  Biso   1.000  C
  C111     1.0000 0.92415  0.20692  0.70117  Biso   1.000  C
  C112     1.0000 0.42415  0.70692  0.70117  Biso   1.000  C
  H65      1.0000 0.95820  0.81890  0.25740  Biso   1.000  H
  H66      1.0000 0.45820  0.31890  0.25740  Biso   1.000  H
  H67      1.0000 0.04180  0.81890  0.24260  Biso   1.000  H
  H68      1.0000 0.54180  0.31890  0.24260  Biso   1.000  H
  H69      1.0000 0.04180  0.18110  0.74260  Biso   1.000  H
  H70      1.0000 0.54180  0.68110  0.74260  Biso   1.000  H
  H71      1.0000 0.95820  0.18110  0.75740  Biso   1.000  H
  H72      1.0000 0.45820  0.68110  0.75740  Biso   1.000  H
  C113     1.0000 0.99007  0.64593  0.36228  Biso   1.000  C
  C114     1.0000 0.49007  0.14593  0.36228  Biso   1.000  C
  C115     1.0000 0.00993  0.64593  0.13772  Biso   1.000  C
  C116     1.0000 0.50993  0.14593  0.13772  Biso   1.000  C
  C117     1.0000 0.00993  0.35407  0.63772  Biso   1.000  C
  C118     1.0000 0.50993  0.85407  0.63772  Biso   1.000  C
  C119     1.0000 0.99007  0.35407  0.86228  Biso   1.000  C
  C120     1.0000 0.49007  0.85407  0.86228  Biso   1.000  C
  H73      1.0000 0.99520  0.71820  0.37760  Biso   1.000  H
  H74      1.0000 0.49520  0.21820  0.37760  Biso   1.000  H
  H75      1.0000 0.00480  0.71820  0.12240  Biso   1.000  H
  H76      1.0000 0.50480  0.21820  0.12240  Biso   1.000  H
  H77      1.0000 0.00480  0.28180  0.62240  Biso   1.000  H
  H78      1.0000 0.50480  0.78180  0.62240  Biso   1.000  H
  H79      1.0000 0.99520  0.28180  0.87760  Biso   1.000  H
  H80      1.0000 0.49520  0.78180  0.87760  Biso   1.000  H
  C121     1.0000 0.02595  0.57179  0.42937  Biso   1.000  C
  C122     1.0000 0.52595  0.07179  0.42937  Biso   1.000  C
  C123     1.0000 0.97405  0.57179  0.07063  Biso   1.000  C
  C124     1.0000 0.47405  0.07179  0.07063  Biso   1.000  C
  C125     1.0000 0.97405  0.42821  0.57063  Biso   1.000  C
  C126     1.0000 0.47405  0.92821  0.57063  Biso   1.000  C
  C127     1.0000 0.02595  0.42821  0.92937  Biso   1.000  C
  C128     1.0000 0.52595  0.92821  0.92937  Biso   1.000  C
  C129     1.0000 0.07540  0.59202  0.52772  Biso   1.000  C
  C130     1.0000 0.57540  0.09202  0.52772  Biso   1.000  C
  C131     1.0000 0.92460  0.59202  0.97228  Biso   1.000  C
  C132     1.0000 0.42460  0.09202  0.97228  Biso   1.000  C
  C133     1.0000 0.92460  0.40798  0.47228  Biso   1.000  C
  C134     1.0000 0.42460  0.90798  0.47228  Biso   1.000  C
  C135     1.0000 0.07540  0.40798  0.02772  Biso   1.000  C
  C136     1.0000 0.57540  0.90798  0.02772  Biso   1.000  C
  C137     1.0000 0.09589  0.69134  0.56496  Biso   1.000  C
  C138     1.0000 0.59589  0.19134  0.56496  Biso   1.000  C
  C139     1.0000 0.90411  0.69134  0.93504  Biso   1.000  C
  C140     1.0000 0.40411  0.19134  0.93504  Biso   1.000  C
  C141     1.0000 0.90411  0.30866  0.43504  Biso   1.000  C
  C142     1.0000 0.40411  0.80866  0.43504  Biso   1.000  C
  C143     1.0000 0.09589  0.30866  0.06496  Biso   1.000  C
  C144     1.0000 0.59589  0.80866  0.06496  Biso   1.000  C
  H81      1.0000 0.07880  0.75210  0.52750  Biso   1.000  H
  H82      1.0000 0.57880  0.25210  0.52750  Biso   1.000  H
  H83      1.0000 0.92120  0.75210  0.97250  Biso   1.000  H
  H84      1.0000 0.42120  0.25210  0.97250  Biso   1.000  H
  H85      1.0000 0.92120  0.24790  0.47250  Biso   1.000  H
  H86      1.0000 0.42120  0.74790  0.47250  Biso   1.000  H
  H87      1.0000 0.07880  0.24790  0.02750  Biso   1.000  H
  H88      1.0000 0.57880  0.74790  0.02750  Biso   1.000  H
  C145     1.0000 0.14212  0.69905  0.65872  Biso   1.000  C
  C146     1.0000 0.64212  0.19905  0.65872  Biso   1.000  C
  C147     1.0000 0.85788  0.69905  0.84128  Biso   1.000  C
  C148     1.0000 0.35788  0.19905  0.84128  Biso   1.000  C
  C149     1.0000 0.85788  0.30095  0.34128  Biso   1.000  C
  C150     1.0000 0.35788  0.80095  0.34128  Biso   1.000  C
  C151     1.0000 0.14212  0.30095  0.15872  Biso   1.000  C
  C152     1.0000 0.64212  0.80095  0.15872  Biso   1.000  C
  H89      1.0000 0.15720  0.76580  0.68610  Biso   1.000  H
  H90      1.0000 0.65720  0.26580  0.68610  Biso   1.000  H
  H91      1.0000 0.84280  0.76580  0.81390  Biso   1.000  H
  H92      1.0000 0.34280  0.26580  0.81390  Biso   1.000  H
  H93      1.0000 0.84280  0.23420  0.31390  Biso   1.000  H
  H94      1.0000 0.34280  0.73420  0.31390  Biso   1.000  H
  H95      1.0000 0.15720  0.23420  0.18610  Biso   1.000  H
  H96      1.0000 0.65720  0.73420  0.18610  Biso   1.000  H
  C153     1.0000 0.16596  0.60968  0.71185  Biso   1.000  C
  C154     1.0000 0.66596  0.10968  0.71185  Biso   1.000  C
  C155     1.0000 0.83404  0.60968  0.78815  Biso   1.000  C
  C156     1.0000 0.33404  0.10968  0.78815  Biso   1.000  C
  C157     1.0000 0.83404  0.39032  0.28815  Biso   1.000  C
  C158     1.0000 0.33404  0.89032  0.28815  Biso   1.000  C
  C159     1.0000 0.16596  0.39032  0.21185  Biso   1.000  C
  C160     1.0000 0.66596  0.89032  0.21185  Biso   1.000  C
  H97      1.0000 0.19700  0.61400  0.77620  Biso   1.000  H
  H98      1.0000 0.69700  0.11400  0.77620  Biso   1.000  H
  H99      1.0000 0.80300  0.61400  0.72380  Biso   1.000  H
  H100     1.0000 0.30300  0.11400  0.72380  Biso   1.000  H
  H101     1.0000 0.80300  0.38600  0.22380  Biso   1.000  H
  H102     1.0000 0.30300  0.88600  0.22380  Biso   1.000  H
  H103     1.0000 0.19700  0.38600  0.27620  Biso   1.000  H
  H104     1.0000 0.69700  0.88600  0.27620  Biso   1.000  H
  C161     1.0000 0.14363  0.51332  0.66922  Biso   1.000  C
  C162     1.0000 0.64363  0.01332  0.66922  Biso   1.000  C
  C163     1.0000 0.85637  0.51332  0.83078  Biso   1.000  C
  C164     1.0000 0.35637  0.01332  0.83078  Biso   1.000  C
  C165     1.0000 0.85637  0.48668  0.33078  Biso   1.000  C
  C166     1.0000 0.35637  0.98668  0.33078  Biso   1.000  C
  C167     1.0000 0.14363  0.48668  0.16922  Biso   1.000  C
  C168     1.0000 0.64363  0.98668  0.16922  Biso   1.000  C
  H105     1.0000 0.16030  0.45160  0.70540  Biso   1.000  H
  H106     1.0000 0.66030  0.95160  0.70540  Biso   1.000  H
  H107     1.0000 0.83970  0.45160  0.79460  Biso   1.000  H
  H108     1.0000 0.33970  0.95160  0.79460  Biso   1.000  H
  H109     1.0000 0.83970  0.54840  0.29460  Biso   1.000  H
  H110     1.0000 0.33970  0.04840  0.29460  Biso   1.000  H
  H111     1.0000 0.16030  0.54840  0.20540  Biso   1.000  H
  H112     1.0000 0.66030  0.04840  0.20540  Biso   1.000  H
  C169     1.0000 0.80548  0.89694  0.96044  Biso   1.000  C
  C170     1.0000 0.30548  0.39694  0.96044  Biso   1.000  C
  C171     1.0000 0.19452  0.89694  0.53956  Biso   1.000  C
  C172     1.0000 0.69452  0.39694  0.53956  Biso   1.000  C
  C173     1.0000 0.19452  0.10306  0.03956  Biso   1.000  C
  C174     1.0000 0.69452  0.60306  0.03956  Biso   1.000  C
  C175     1.0000 0.80548  0.10306  0.46044  Biso   1.000  C
  C176     1.0000 0.30548  0.60306  0.46044  Biso   1.000  C
  H113     1.0000 0.78690  0.95200  0.97400  Biso   1.000  H
  H114     1.0000 0.28690  0.45200  0.97400  Biso   1.000  H
  H115     1.0000 0.21310  0.95200  0.52600  Biso   1.000  H
  H116     1.0000 0.71310  0.45200  0.52600  Biso   1.000  H
  H117     1.0000 0.21310  0.04800  0.02600  Biso   1.000  H
  H118     1.0000 0.71310  0.54800  0.02600  Biso   1.000  H
  H119     1.0000 0.78690  0.04800  0.47400  Biso   1.000  H
  H120     1.0000 0.28690  0.54800  0.47400  Biso   1.000  H
  H121     1.0000 0.77490  0.85670  0.90630  Biso   1.000  H
  H122     1.0000 0.27490  0.35670  0.90630  Biso   1.000  H
  H123     1.0000 0.22510  0.85670  0.59370  Biso   1.000  H
  H124     1.0000 0.72510  0.35670  0.59370  Biso   1.000  H
  H125     1.0000 0.22510  0.14330  0.09370  Biso   1.000  H
  H126     1.0000 0.72510  0.64330  0.09370  Biso   1.000  H
  H127     1.0000 0.77490  0.14330  0.40630  Biso   1.000  H
  H128     1.0000 0.27490  0.64330  0.40630  Biso   1.000  H
  H129     1.0000 0.83210  0.92870  0.94730  Biso   1.000  H
  H130     1.0000 0.33210  0.42870  0.94730  Biso   1.000  H
  H131     1.0000 0.16790  0.92870  0.55270  Biso   1.000  H
  H132     1.0000 0.66790  0.42870  0.55270  Biso   1.000  H
  H133     1.0000 0.16790  0.07130  0.05270  Biso   1.000  H
  H134     1.0000 0.66790  0.57130  0.05270  Biso   1.000  H
  H135     1.0000 0.83210  0.07130  0.44730  Biso   1.000  H
  H136     1.0000 0.33210  0.57130  0.44730  Biso   1.000  H
  C177     1.0000 0.24538  0.38181  0.62119  Biso   1.000  C
  C178     1.0000 0.74538  0.88181  0.62119  Biso   1.000  C
  C179     1.0000 0.75462  0.38181  0.87881  Biso   1.000  C
  C180     1.0000 0.25462  0.88181  0.87881  Biso   1.000  C
  C181     1.0000 0.75462  0.61819  0.37881  Biso   1.000  C
  C182     1.0000 0.25462  0.11819  0.37881  Biso   1.000  C
  C183     1.0000 0.24538  0.61819  0.12119  Biso   1.000  C
  C184     1.0000 0.74538  0.11819  0.12119  Biso   1.000  C
  H137     1.0000 0.23270  0.35960  0.66090  Biso   1.000  H
  H138     1.0000 0.73270  0.85960  0.66090  Biso   1.000  H
  H139     1.0000 0.76730  0.35960  0.83910  Biso   1.000  H
  H140     1.0000 0.26730  0.85960  0.83910  Biso   1.000  H
  H141     1.0000 0.76730  0.64040  0.33910  Biso   1.000  H
  H142     1.0000 0.26730  0.14040  0.33910  Biso   1.000  H
  H143     1.0000 0.23270  0.64040  0.16090  Biso   1.000  H
  H144     1.0000 0.73270  0.14040  0.16090  Biso   1.000  H
  H145     1.0000 0.28310  0.34590  0.64420  Biso   1.000  H
  H146     1.0000 0.78310  0.84590  0.64420  Biso   1.000  H
  H147     1.0000 0.71690  0.34590  0.85580  Biso   1.000  H
  H148     1.0000 0.21690  0.84590  0.85580  Biso   1.000  H
  H149     1.0000 0.71690  0.65410  0.35580  Biso   1.000  H
  H150     1.0000 0.21690  0.15410  0.35580  Biso   1.000  H
  H151     1.0000 0.28310  0.65410  0.14420  Biso   1.000  H
  H152     1.0000 0.78310  0.15410  0.14420  Biso   1.000  H
  C185     1.0000 0.25643  0.49976  0.63238  Biso   1.000  C
  C186     1.0000 0.75643  0.99976  0.63238  Biso   1.000  C
  C187     1.0000 0.74357  0.49976  0.86762  Biso   1.000  C
  C188     1.0000 0.24357  0.99976  0.86762  Biso   1.000  C
  C189     1.0000 0.74357  0.50024  0.36762  Biso   1.000  C
  C190     1.0000 0.24357  0.00024  0.36762  Biso   1.000  C
  C191     1.0000 0.25643  0.50024  0.13238  Biso   1.000  C
  C192     1.0000 0.75643  0.00024  0.13238  Biso   1.000  C
  H153     1.0000 0.27010  0.52290  0.59420  Biso   1.000  H
  H154     1.0000 0.77010  0.02290  0.59420  Biso   1.000  H
  H155     1.0000 0.72990  0.52290  0.90580  Biso   1.000  H
  H156     1.0000 0.22990  0.02290  0.90580  Biso   1.000  H
  H157     1.0000 0.72990  0.47710  0.40580  Biso   1.000  H
  H158     1.0000 0.22990  0.97710  0.40580  Biso   1.000  H
  H159     1.0000 0.27010  0.47710  0.09420  Biso   1.000  H
  H160     1.0000 0.77010  0.97710  0.09420  Biso   1.000  H
  H161     1.0000 0.21910  0.53670  0.61000  Biso   1.000  H
  H162     1.0000 0.71910  0.03670  0.61000  Biso   1.000  H
  H163     1.0000 0.78090  0.53670  0.89000  Biso   1.000  H
  H164     1.0000 0.28090  0.03670  0.89000  Biso   1.000  H
  H165     1.0000 0.78090  0.46330  0.39000  Biso   1.000  H
  H166     1.0000 0.28090  0.96330  0.39000  Biso   1.000  H
  H167     1.0000 0.21910  0.46330  0.11000  Biso   1.000  H
  H168     1.0000 0.71910  0.96330  0.11000  Biso   1.000  H
  C193     1.0000 0.30251  0.52766  0.73343  Biso   1.000  C
  C194     1.0000 0.80251  0.02766  0.73343  Biso   1.000  C
  C195     1.0000 0.69749  0.52766  0.76657  Biso   1.000  C
  C196     1.0000 0.19749  0.02766  0.76657  Biso   1.000  C
  C197     1.0000 0.69749  0.47234  0.26657  Biso   1.000  C
  C198     1.0000 0.19749  0.97234  0.26657  Biso   1.000  C
  C199     1.0000 0.30251  0.47234  0.23343  Biso   1.000  C
  C200     1.0000 0.80251  0.97234  0.23343  Biso   1.000  C
  H169     1.0000 0.33970  0.49100  0.75470  Biso   1.000  H
  H170     1.0000 0.83970  0.99100  0.75470  Biso   1.000  H
  H171     1.0000 0.66030  0.49100  0.74530  Biso   1.000  H
  H172     1.0000 0.16030  0.99100  0.74530  Biso   1.000  H
  H173     1.0000 0.66030  0.50900  0.24530  Biso   1.000  H
  H174     1.0000 0.16030  0.00900  0.24530  Biso   1.000  H
  H175     1.0000 0.33970  0.50900  0.25470  Biso   1.000  H
  H176     1.0000 0.83970  0.00900  0.25470  Biso   1.000  H
  H177     1.0000 0.28910  0.50150  0.77110  Biso   1.000  H
  H178     1.0000 0.78910  0.00150  0.77110  Biso   1.000  H
  H179     1.0000 0.71090  0.50150  0.72890  Biso   1.000  H
  H180     1.0000 0.21090  0.00150  0.72890  Biso   1.000  H
  H181     1.0000 0.71090  0.49850  0.22890  Biso   1.000  H
  H182     1.0000 0.21090  0.99850  0.22890  Biso   1.000  H
  H183     1.0000 0.28910  0.49850  0.27110  Biso   1.000  H
  H184     1.0000 0.78910  0.99850  0.27110  Biso   1.000  H
  C201     1.0000 0.31530  0.64530  0.75183  Biso   1.000  C
  C202     1.0000 0.81530  0.14530  0.75183  Biso   1.000  C
  C203     1.0000 0.68470  0.64530  0.74817  Biso   1.000  C
  C204     1.0000 0.18470  0.14530  0.74817  Biso   1.000  C
  C205     1.0000 0.68470  0.35470  0.24817  Biso   1.000  C
  C206     1.0000 0.18470  0.85470  0.24817  Biso   1.000  C
  C207     1.0000 0.31530  0.35470  0.25183  Biso   1.000  C
  C208     1.0000 0.81530  0.85470  0.25183  Biso   1.000  C
  H185     1.0000 0.27990  0.68190  0.73910  Biso   1.000  H
  H186     1.0000 0.77990  0.18190  0.73910  Biso   1.000  H
  H187     1.0000 0.72010  0.68190  0.76090  Biso   1.000  H
  H188     1.0000 0.22010  0.18190  0.76090  Biso   1.000  H
  H189     1.0000 0.72010  0.31810  0.26090  Biso   1.000  H
  H190     1.0000 0.22010  0.81810  0.26090  Biso   1.000  H
  H191     1.0000 0.27990  0.31810  0.23910  Biso   1.000  H
  H192     1.0000 0.77990  0.81810  0.23910  Biso   1.000  H
  H193     1.0000 0.32490  0.67430  0.70990  Biso   1.000  H
  H194     1.0000 0.82490  0.17430  0.70990  Biso   1.000  H
  H195     1.0000 0.67510  0.67430  0.79010  Biso   1.000  H
  H196     1.0000 0.17510  0.17430  0.79010  Biso   1.000  H
  H197     1.0000 0.67510  0.32570  0.29010  Biso   1.000  H
  H198     1.0000 0.17510  0.82570  0.29010  Biso   1.000  H
  H199     1.0000 0.32490  0.32570  0.20990  Biso   1.000  H
  H200     1.0000 0.82490  0.82570  0.20990  Biso   1.000  H
  H201     1.0000 0.98890  0.08600  0.53860  Biso   1.000  H
  H202     1.0000 0.48890  0.58600  0.53860  Biso   1.000  H
  H203     1.0000 0.01110  0.08600  0.96140  Biso   1.000  H
  H204     1.0000 0.51110  0.58600  0.96140  Biso   1.000  H
  H205     1.0000 0.01110  0.91400  0.46140  Biso   1.000  H
  H206     1.0000 0.51110  0.41400  0.46140  Biso   1.000  H
  H207     1.0000 0.98890  0.91400  0.03860  Biso   1.000  H
  H208     1.0000 0.48890  0.41400  0.03860  Biso   1.000  H
  H209     1.0000 0.93970  0.03700  0.47200  Biso   1.000  H
  H210     1.0000 0.43970  0.53700  0.47200  Biso   1.000  H
  H211     1.0000 0.06030  0.03700  0.02800  Biso   1.000  H
  H212     1.0000 0.56030  0.53700  0.02800  Biso   1.000  H
  H213     1.0000 0.06030  0.96300  0.52800  Biso   1.000  H
  H214     1.0000 0.56030  0.46300  0.52800  Biso   1.000  H
  H215     1.0000 0.93970  0.96300  0.97200  Biso   1.000  H
  H216     1.0000 0.43970  0.46300  0.97200  Biso   1.000  H
  H217     1.0000 0.23990  0.35100  0.45550  Biso   1.000  H
  H218     1.0000 0.73990  0.85100  0.45550  Biso   1.000  H
  H219     1.0000 0.76010  0.35100  0.04450  Biso   1.000  H
  H220     1.0000 0.26010  0.85100  0.04450  Biso   1.000  H
  H221     1.0000 0.76010  0.64900  0.54450  Biso   1.000  H
  H222     1.0000 0.26010  0.14900  0.54450  Biso   1.000  H
  H223     1.0000 0.23990  0.64900  0.95550  Biso   1.000  H
  H224     1.0000 0.73990  0.14900  0.95550  Biso   1.000  H
  H225     1.0000 0.34050  0.65200  0.94300  Biso   1.000  H
  H226     1.0000 0.84050  0.15200  0.94300  Biso   1.000  H
  H227     1.0000 0.65950  0.65200  0.55700  Biso   1.000  H
  H228     1.0000 0.15950  0.15200  0.55700  Biso   1.000  H
  H229     1.0000 0.65950  0.34800  0.05700  Biso   1.000  H
  H230     1.0000 0.15950  0.84800  0.05700  Biso   1.000  H
  H231     1.0000 0.34050  0.34800  0.44300  Biso   1.000  H
  H232     1.0000 0.84050  0.84800  0.44300  Biso   1.000  H
