data_image0
_cell_length_a       13.4729
_cell_length_b       14.4371
_cell_length_c       14.7309
_cell_angle_alpha    76.621
_cell_angle_beta     65.738
_cell_angle_gamma    77.775

_symmetry_space_group_name_H-M    "P 1"
_symmetry_int_tables_number       1

loop_
  _symmetry_equiv_pos_as_xyz
  'x, y, z'

loop_
  _atom_site_label
  _atom_site_occupancy
  _atom_site_fract_x
  _atom_site_fract_y
  _atom_site_fract_z
  _atom_site_thermal_displace_type
  _atom_site_B_iso_or_equiv
  _atom_site_type_symbol
  Cu1      1.0000 0.68387  0.12642  0.09594  Biso   1.000  Cu
  Cu2      1.0000 0.31613  0.87358  0.90406  Biso   1.000  Cu
  Cu3      1.0000 0.74133  0.37913  0.04395  Biso   1.000  Cu
  Cu4      1.0000 0.25867  0.62087  0.95605  Biso   1.000  Cu
  V1       1.0000 0.49389  0.34126  0.61520  Biso   1.000  V
  V2       1.0000 0.50611  0.65874  0.38480  Biso   1.000  V
  V3       1.0000 0.16206  0.39771  0.02872  Biso   1.000  V
  V4       1.0000 0.83794  0.60229  0.97128  Biso   1.000  V
  V5       1.0000 0.67994  0.89955  0.25448  Biso   1.000  V
  V6       1.0000 0.32006  0.10045  0.74552  Biso   1.000  V
  P1       1.0000 0.28191  0.31758  0.80834  Biso   1.000  P
  P2       1.0000 0.71809  0.68242  0.19166  Biso   1.000  P
  P3       1.0000 0.98705  0.40603  0.91274  Biso   1.000  P
  P4       1.0000 0.01295  0.59397  0.08726  Biso   1.000  P
  P5       1.0000 0.53934  0.09794  0.32545  Biso   1.000  P
  P6       1.0000 0.46066  0.90206  0.67455  Biso   1.000  P
  P7       1.0000 0.56902  0.14995  0.59960  Biso   1.000  P
  P8       1.0000 0.43098  0.85005  0.40040  Biso   1.000  P
  O1       1.0000 0.74590  0.53290  0.99150  Biso   1.000  O
  O2       1.0000 0.25410  0.46710  0.00850  Biso   1.000  O
  O3       1.0000 0.88890  0.35020  0.95650  Biso   1.000  O
  O4       1.0000 0.11110  0.64980  0.04350  Biso   1.000  O
  O5       1.0000 0.05060  0.38170  0.98170  Biso   1.000  O
  O6       1.0000 0.94940  0.61830  0.01830  Biso   1.000  O
  O7       1.0000 0.95700  0.51450  0.88850  Biso   1.000  O
  O8       1.0000 0.04300  0.48550  0.11150  Biso   1.000  O
  O9       1.0000 0.17100  0.31160  0.11710  Biso   1.000  O
  O10      1.0000 0.82900  0.68840  0.88290  Biso   1.000  O
  O11      1.0000 0.26850  0.35940  0.89560  Biso   1.000  O
  O12      1.0000 0.73150  0.64060  0.10440  Biso   1.000  O
  O13      1.0000 0.39720  0.34360  0.73810  Biso   1.000  O
  O14      1.0000 0.60280  0.65640  0.26190  Biso   1.000  O
  O15      1.0000 0.27420  0.21450  0.81340  Biso   1.000  O
  O16      1.0000 0.72580  0.78550  0.18660  Biso   1.000  O
  O17      1.0000 0.68590  0.97300  0.15020  Biso   1.000  O
  O18      1.0000 0.31410  0.02700  0.84980  Biso   1.000  O
  O19      1.0000 0.60570  0.15990  0.22940  Biso   1.000  O
  O20      1.0000 0.39430  0.84010  0.77060  Biso   1.000  O
  O21      1.0000 0.79290  0.89080  0.27040  Biso   1.000  O
  O22      1.0000 0.20710  0.10920  0.72960  Biso   1.000  O
  O23      1.0000 0.59610  0.99690  0.34320  Biso   1.000  O
  O24      1.0000 0.40390  0.00310  0.65680  Biso   1.000  O
  O25      1.0000 0.42460  0.09470  0.32720  Biso   1.000  O
  O26      1.0000 0.57540  0.90530  0.67280  Biso   1.000  O
  H1       1.0000 0.41440  0.03730  0.33640  Biso   1.000  H
  H2       1.0000 0.58560  0.96270  0.66360  Biso   1.000  H
  O27      1.0000 0.44310  0.17130  0.65250  Biso   1.000  O
  O28      1.0000 0.55690  0.82870  0.34750  Biso   1.000  O
  O29      1.0000 0.62080  0.06910  0.66010  Biso   1.000  O
  O30      1.0000 0.37920  0.93090  0.33990  Biso   1.000  O
  O31      1.0000 0.61330  0.24430  0.58210  Biso   1.000  O
  O32      1.0000 0.38670  0.75570  0.41790  Biso   1.000  O
  O33      1.0000 0.42620  0.36930  0.53810  Biso   1.000  O
  O34      1.0000 0.57380  0.63070  0.46190  Biso   1.000  O
  O35      1.0000 0.56560  0.43150  0.59270  Biso   1.000  O
  O36      1.0000 0.43440  0.56850  0.40730  Biso   1.000  O
  O37      1.0000 0.74950  0.68260  0.07660  Biso   1.000  O
  O38      1.0000 0.25050  0.31740  0.92340  Biso   1.000  O
  N1       1.0000 0.67340  0.36560  0.94820  Biso   1.000  N
  N2       1.0000 0.32660  0.63440  0.05180  Biso   1.000  N
  N3       1.0000 0.58900  0.38210  0.13410  Biso   1.000  N
  N4       1.0000 0.41100  0.61790  0.86590  Biso   1.000  N
  N5       1.0000 0.75680  0.36660  0.17820  Biso   1.000  N
  N6       1.0000 0.24320  0.63340  0.82180  Biso   1.000  N
  N7       1.0000 0.83830  0.12990  0.08710  Biso   1.000  N
  N8       1.0000 0.16170  0.87010  0.91290  Biso   1.000  N
  N9       1.0000 0.76650  0.12170  0.95420  Biso   1.000  N
  N10      1.0000 0.23350  0.87830  0.04580  Biso   1.000  N
  N11      1.0000 0.55980  0.13630  0.04710  Biso   1.000  N
  N12      1.0000 0.44020  0.86370  0.95290  Biso   1.000  N
  C1       1.0000 0.07410  0.36510  0.79470  Biso   1.000  C
  C2       1.0000 0.92590  0.63490  0.20530  Biso   1.000  C
  H3       1.0000 0.04000  0.39320  0.74470  Biso   1.000  H
  H4       1.0000 0.96000  0.60680  0.25530  Biso   1.000  H
  H5       1.0000 0.07780  0.29440  0.80470  Biso   1.000  H
  H6       1.0000 0.92220  0.70560  0.19530  Biso   1.000  H
  C3       1.0000 0.19110  0.39090  0.75160  Biso   1.000  C
  C4       1.0000 0.80890  0.60910  0.24840  Biso   1.000  C
  H7       1.0000 0.22360  0.38730  0.67860  Biso   1.000  H
  H8       1.0000 0.77640  0.61270  0.32140  Biso   1.000  H
  H9       1.0000 0.18690  0.45840  0.75850  Biso   1.000  H
  H10      1.0000 0.81310  0.54160  0.24150  Biso   1.000  H
  C5       1.0000 0.72730  0.36040  0.85010  Biso   1.000  C
  C6       1.0000 0.27270  0.63960  0.14990  Biso   1.000  C
  H11      1.0000 0.80530  0.35370  0.82280  Biso   1.000  H
  H12      1.0000 0.19470  0.64630  0.17720  Biso   1.000  H
  C7       1.0000 0.67290  0.36450  0.78680  Biso   1.000  C
  C8       1.0000 0.32710  0.63550  0.21320  Biso   1.000  C
  H13      1.0000 0.71240  0.36110  0.71710  Biso   1.000  H
  H14      1.0000 0.28760  0.63890  0.28290  Biso   1.000  H
  C9       1.0000 0.55860  0.37360  0.82850  Biso   1.000  C
  C10      1.0000 0.44140  0.62640  0.17150  Biso   1.000  C
  H15      1.0000 0.51880  0.37740  0.78710  Biso   1.000  H
  H16      1.0000 0.48120  0.62260  0.21290  Biso   1.000  H
  C11      1.0000 0.50320  0.37700  0.93080  Biso   1.000  C
  C12      1.0000 0.49680  0.62300  0.06920  Biso   1.000  C
  H17      1.0000 0.42530  0.38190  0.96040  Biso   1.000  H
  H18      1.0000 0.57470  0.61810  0.03960  Biso   1.000  H
  C13      1.0000 0.56230  0.37310  0.98890  Biso   1.000  C
  C14      1.0000 0.43770  0.62690  0.01110  Biso   1.000  C
  C15      1.0000 0.51380  0.37960  0.09780  Biso   1.000  C
  C16      1.0000 0.48620  0.62040  0.90220  Biso   1.000  C
  C17      1.0000 0.40350  0.37930  0.16140  Biso   1.000  C
  C18      1.0000 0.59650  0.62070  0.83860  Biso   1.000  C
  H19      1.0000 0.35030  0.37580  0.13590  Biso   1.000  H
  H20      1.0000 0.64970  0.62420  0.86410  Biso   1.000  H
  C19      1.0000 0.37210  0.38430  0.26380  Biso   1.000  C
  C20      1.0000 0.62790  0.61570  0.73620  Biso   1.000  C
  C21      1.0000 0.25650  0.38280  0.33380  Biso   1.000  C
  C22      1.0000 0.74350  0.61720  0.66620  Biso   1.000  C
  C23      1.0000 0.16950  0.41570  0.30040  Biso   1.000  C
  C24      1.0000 0.83050  0.58430  0.69960  Biso   1.000  C
  H21      1.0000 0.18470  0.43930  0.23090  Biso   1.000  H
  H22      1.0000 0.81530  0.56070  0.76910  Biso   1.000  H
  C25      1.0000 0.06170  0.41410  0.36820  Biso   1.000  C
  C26      1.0000 0.93830  0.58590  0.63180  Biso   1.000  C
  H23      1.0000 0.00400  0.43730  0.34420  Biso   1.000  H
  H24      1.0000 0.99600  0.56270  0.65580  Biso   1.000  H
  C27      1.0000 0.03580  0.37930  0.47010  Biso   1.000  C
  C28      1.0000 0.96420  0.62070  0.52990  Biso   1.000  C
  C29      1.0000 0.12200  0.34570  0.50390  Biso   1.000  C
  C30      1.0000 0.87800  0.65430  0.49610  Biso   1.000  C
  H25      1.0000 0.10630  0.32120  0.57340  Biso   1.000  H
  H26      1.0000 0.89370  0.67880  0.42660  Biso   1.000  H
  C31      1.0000 0.23010  0.34780  0.43700  Biso   1.000  C
  C32      1.0000 0.76990  0.65220  0.56300  Biso   1.000  C
  H27      1.0000 0.28760  0.32510  0.46140  Biso   1.000  H
  H28      1.0000 0.71240  0.67490  0.53860  Biso   1.000  H
  C33      1.0000 0.45330  0.38930  0.29810  Biso   1.000  C
  C34      1.0000 0.54670  0.61070  0.70190  Biso   1.000  C
  H29      1.0000 0.43380  0.39510  0.36650  Biso   1.000  H
  H30      1.0000 0.56620  0.60490  0.63350  Biso   1.000  H
  C35      1.0000 0.56210  0.38560  0.23190  Biso   1.000  C
  C36      1.0000 0.43790  0.61440  0.76810  Biso   1.000  C
  C37      1.0000 0.65970  0.37900  0.25660  Biso   1.000  C
  C38      1.0000 0.34030  0.62100  0.74340  Biso   1.000  C
  C39      1.0000 0.65370  0.37860  0.35230  Biso   1.000  C
  C40      1.0000 0.34630  0.62140  0.64770  Biso   1.000  C
  H31      1.0000 0.58500  0.39090  0.40560  Biso   1.000  H
  H32      1.0000 0.41500  0.60910  0.59440  Biso   1.000  H
  C41      1.0000 0.75190  0.35960  0.36870  Biso   1.000  C
  C42      1.0000 0.24810  0.64040  0.63130  Biso   1.000  C
  H33      1.0000 0.75060  0.35660  0.43430  Biso   1.000  H
  H34      1.0000 0.24940  0.64340  0.56570  Biso   1.000  H
  C43      1.0000 0.85060  0.34530  0.28880  Biso   1.000  C
  C44      1.0000 0.14940  0.65470  0.71120  Biso   1.000  C
  H35      1.0000 0.91780  0.33170  0.29890  Biso   1.000  H
  H36      1.0000 0.08220  0.66830  0.70110  Biso   1.000  H
  C45      1.0000 0.85030  0.35090  0.19440  Biso   1.000  C
  C46      1.0000 0.14970  0.64910  0.80560  Biso   1.000  C
  H37      1.0000 0.91840  0.34340  0.13910  Biso   1.000  H
  H38      1.0000 0.08160  0.65660  0.86090  Biso   1.000  H
  C47      1.0000 0.91760  0.37930  0.54400  Biso   1.000  C
  C48      1.0000 0.08240  0.62070  0.45600  Biso   1.000  C
  H39      1.0000 0.91580  0.35680  0.61260  Biso   1.000  H
  H40      1.0000 0.08420  0.64320  0.38740  Biso   1.000  H
  H41      1.0000 0.87850  0.44460  0.53960  Biso   1.000  H
  H42      1.0000 0.12150  0.55540  0.46040  Biso   1.000  H
  H43      1.0000 0.88220  0.33640  0.52740  Biso   1.000  H
  H44      1.0000 0.11780  0.66360  0.47260  Biso   1.000  H
  C49      1.0000 0.86720  0.13040  0.16340  Biso   1.000  C
  C50      1.0000 0.13280  0.86960  0.83660  Biso   1.000  C
  H45      1.0000 0.81160  0.13160  0.22900  Biso   1.000  H
  H46      1.0000 0.18840  0.86840  0.77100  Biso   1.000  H
  C51      1.0000 0.97500  0.12930  0.15090  Biso   1.000  C
  C52      1.0000 0.02500  0.87070  0.84910  Biso   1.000  C
  H47      1.0000 0.99310  0.12900  0.20690  Biso   1.000  H
  H48      1.0000 0.00690  0.87100  0.79310  Biso   1.000  H
  C53      1.0000 0.05620  0.12870  0.05470  Biso   1.000  C
  C54      1.0000 0.94380  0.87130  0.94530  Biso   1.000  C
  H49      1.0000 0.13050  0.13060  0.04350  Biso   1.000  H
  H50      1.0000 0.86950  0.86940  0.95650  Biso   1.000  H
  C55      1.0000 0.02770  0.12520  0.97500  Biso   1.000  C
  C56      1.0000 0.97230  0.87480  0.02500  Biso   1.000  C
  H51      1.0000 0.08230  0.12190  0.90920  Biso   1.000  H
  H52      1.0000 0.91770  0.87810  0.09080  Biso   1.000  H
  C57      1.0000 0.91750  0.12660  0.99380  Biso   1.000  C
  C58      1.0000 0.08250  0.87340  0.00620  Biso   1.000  C
  C59      1.0000 0.87510  0.12300  0.91640  Biso   1.000  C
  C60      1.0000 0.12490  0.87700  0.08360  Biso   1.000  C
  C61      1.0000 0.93750  0.11990  0.81480  Biso   1.000  C
  C62      1.0000 0.06250  0.88010  0.18520  Biso   1.000  C
  H53      1.0000 0.01430  0.12240  0.78850  Biso   1.000  H
  H54      1.0000 0.98570  0.87760  0.21150  Biso   1.000  H
  C63      1.0000 0.88590  0.11290  0.75090  Biso   1.000  C
  C64      1.0000 0.11410  0.88710  0.24910  Biso   1.000  C
  C65      1.0000 0.95100  0.11020  0.64190  Biso   1.000  C
  C66      1.0000 0.04900  0.88980  0.35810  Biso   1.000  C
  C67      1.0000 0.06640  0.09000  0.60500  Biso   1.000  C
  C68      1.0000 0.93360  0.91000  0.39500  Biso   1.000  C
  H55      1.0000 0.10250  0.07340  0.65100  Biso   1.000  H
  H56      1.0000 0.89750  0.92660  0.34900  Biso   1.000  H
  C69      1.0000 0.12810  0.09380  0.50240  Biso   1.000  C
  C70      1.0000 0.87190  0.90620  0.49760  Biso   1.000  C
  H57      1.0000 0.20570  0.07890  0.47940  Biso   1.000  H
  H58      1.0000 0.79430  0.92110  0.52060  Biso   1.000  H
  C71      1.0000 0.07780  0.11900  0.43300  Biso   1.000  C
  C72      1.0000 0.92220  0.88100  0.56700  Biso   1.000  C
  C73      1.0000 0.96360  0.13540  0.46940  Biso   1.000  C
  C74      1.0000 0.03640  0.86460  0.53060  Biso   1.000  C
  H59      1.0000 0.92780  0.14930  0.42330  Biso   1.000  H
  H60      1.0000 0.07220  0.85070  0.57670  Biso   1.000  H
  C75      1.0000 0.90120  0.13180  0.57150  Biso   1.000  C
  C76      1.0000 0.09880  0.86820  0.42850  Biso   1.000  C
  H61      1.0000 0.82340  0.14430  0.59410  Biso   1.000  H
  H62      1.0000 0.17660  0.85570  0.40590  Biso   1.000  H
  C77      1.0000 0.77300  0.10990  0.79270  Biso   1.000  C
  C78      1.0000 0.22700  0.89010  0.20730  Biso   1.000  C
  H63      1.0000 0.73590  0.10350  0.75230  Biso   1.000  H
  H64      1.0000 0.26410  0.89650  0.24770  Biso   1.000  H
  C79      1.0000 0.71530  0.11630  0.89480  Biso   1.000  C
  C80      1.0000 0.28470  0.88370  0.10520  Biso   1.000  C
  C81      1.0000 0.59430  0.12230  0.95030  Biso   1.000  C
  C82      1.0000 0.40570  0.87770  0.04970  Biso   1.000  C
  C83      1.0000 0.52220  0.11640  0.90780  Biso   1.000  C
  C84      1.0000 0.47780  0.88360  0.09220  Biso   1.000  C
  H65      1.0000 0.54860  0.10460  0.84050  Biso   1.000  H
  H66      1.0000 0.45140  0.89540  0.15950  Biso   1.000  H
  C85      1.0000 0.41000  0.12800  0.96530  Biso   1.000  C
  C86      1.0000 0.59000  0.87200  0.03470  Biso   1.000  C
  H67      1.0000 0.35860  0.12430  0.93780  Biso   1.000  H
  H68      1.0000 0.64140  0.87570  0.06220  Biso   1.000  H
  C87      1.0000 0.37420  0.14490  0.06350  Biso   1.000  C
  C88      1.0000 0.62580  0.85510  0.93650  Biso   1.000  C
  H69      1.0000 0.29800  0.15440  0.10360  Biso   1.000  H
  H70      1.0000 0.70200  0.84560  0.89640  Biso   1.000  H
  C89      1.0000 0.45160  0.14790  0.10240  Biso   1.000  C
  C90      1.0000 0.54840  0.85210  0.89760  Biso   1.000  C
  H71      1.0000 0.42710  0.15840  0.17000  Biso   1.000  H
  H72      1.0000 0.57290  0.84160  0.83000  Biso   1.000  H
  C91      1.0000 0.14690  0.12720  0.32160  Biso   1.000  C
  C92      1.0000 0.85310  0.87280  0.67840  Biso   1.000  C
  H73      1.0000 0.22470  0.11050  0.31160  Biso   1.000  H
  H74      1.0000 0.77530  0.88950  0.68840  Biso   1.000  H
  H75      1.0000 0.13430  0.19320  0.28840  Biso   1.000  H
  H76      1.0000 0.86570  0.80680  0.71160  Biso   1.000  H
  H77      1.0000 0.12660  0.08310  0.29240  Biso   1.000  H
  H78      1.0000 0.87340  0.91690  0.70760  Biso   1.000  H
  C93      1.0000 0.60280  0.11650  0.47820  Biso   1.000  C
  C94      1.0000 0.39720  0.88350  0.52180  Biso   1.000  C
  H79      1.0000 0.61860  0.04560  0.48500  Biso   1.000  H
  H80      1.0000 0.38140  0.95440  0.51500  Biso   1.000  H
  H81      1.0000 0.67090  0.14280  0.42980  Biso   1.000  H
  H82      1.0000 0.32910  0.85720  0.57020  Biso   1.000  H
  C95      1.0000 0.51450  0.15030  0.43400  Biso   1.000  C
  C96      1.0000 0.48550  0.84970  0.56600  Biso   1.000  C
  H83      1.0000 0.44300  0.13460  0.48700  Biso   1.000  H
  H84      1.0000 0.55700  0.86540  0.51300  Biso   1.000  H
  H85      1.0000 0.50880  0.22100  0.41470  Biso   1.000  H
  H86      1.0000 0.49120  0.77900  0.58530  Biso   1.000  H
