data_image0
_cell_length_a       7.549
_cell_length_b       16.727
_cell_length_c       20.191
_cell_angle_alpha    90
_cell_angle_beta     90.055
_cell_angle_gamma    90

_symmetry_space_group_name_H-M    "P 1"
_symmetry_int_tables_number       1

loop_
  _symmetry_equiv_pos_as_xyz
  'x, y, z'

loop_
  _atom_site_label
  _atom_site_occupancy
  _atom_site_fract_x
  _atom_site_fract_y
  _atom_site_fract_z
  _atom_site_thermal_displace_type
  _atom_site_B_iso_or_equiv
  _atom_site_type_symbol
  Cu1      1.0000 0.75000  0.25000  0.00000  Biso   1.000  Cu
  Cu2      1.0000 0.25000  0.75000  0.00000  Biso   1.000  Cu
  Cu3      1.0000 0.25000  0.25000  0.50000  Biso   1.000  Cu
  Cu4      1.0000 0.75000  0.75000  0.50000  Biso   1.000  Cu
  Cu5      1.0000 0.00000  0.19188  0.75000  Biso   1.000  Cu
  Cu6      1.0000 0.50000  0.69188  0.75000  Biso   1.000  Cu
  Cu7      1.0000 0.00000  0.80812  0.25000  Biso   1.000  Cu
  Cu8      1.0000 0.50000  0.30812  0.25000  Biso   1.000  Cu
  O1       1.0000 0.44390  0.24730  0.83690  Biso   1.000  O
  O2       1.0000 0.94390  0.74730  0.83690  Biso   1.000  O
  O3       1.0000 0.55610  0.24730  0.66310  Biso   1.000  O
  O4       1.0000 0.05610  0.74730  0.66310  Biso   1.000  O
  O5       1.0000 0.55610  0.75270  0.16310  Biso   1.000  O
  O6       1.0000 0.05610  0.25270  0.16310  Biso   1.000  O
  O7       1.0000 0.44390  0.75270  0.33690  Biso   1.000  O
  O8       1.0000 0.94390  0.25270  0.33690  Biso   1.000  O
  O9       1.0000 0.66090  0.25280  0.90820  Biso   1.000  O
  O10      1.0000 0.16090  0.75280  0.90820  Biso   1.000  O
  O11      1.0000 0.33910  0.25280  0.59180  Biso   1.000  O
  O12      1.0000 0.83910  0.75280  0.59180  Biso   1.000  O
  O13      1.0000 0.33910  0.74720  0.09180  Biso   1.000  O
  O14      1.0000 0.83910  0.24720  0.09180  Biso   1.000  O
  O15      1.0000 0.66090  0.74720  0.40820  Biso   1.000  O
  O16      1.0000 0.16090  0.24720  0.40820  Biso   1.000  O
  O17      1.0000 0.07470  0.32780  0.84790  Biso   1.000  O
  O18      1.0000 0.57470  0.82780  0.84790  Biso   1.000  O
  O19      1.0000 0.92530  0.32780  0.65210  Biso   1.000  O
  O20      1.0000 0.42530  0.82780  0.65210  Biso   1.000  O
  O21      1.0000 0.92530  0.67220  0.15210  Biso   1.000  O
  O22      1.0000 0.42530  0.17220  0.15210  Biso   1.000  O
  O23      1.0000 0.07470  0.67220  0.34790  Biso   1.000  O
  O24      1.0000 0.57470  0.17220  0.34790  Biso   1.000  O
  O25      1.0000 0.06290  0.19500  0.84320  Biso   1.000  O
  O26      1.0000 0.56290  0.69500  0.84320  Biso   1.000  O
  O27      1.0000 0.93710  0.19500  0.65680  Biso   1.000  O
  O28      1.0000 0.43710  0.69500  0.65680  Biso   1.000  O
  O29      1.0000 0.93710  0.80500  0.15680  Biso   1.000  O
  O30      1.0000 0.43710  0.30500  0.15680  Biso   1.000  O
  O31      1.0000 0.06290  0.80500  0.34320  Biso   1.000  O
  O32      1.0000 0.56290  0.30500  0.34320  Biso   1.000  O
  O33      1.0000 0.74780  0.19220  0.77080  Biso   1.000  O
  O34      1.0000 0.24780  0.69220  0.77080  Biso   1.000  O
  O35      1.0000 0.25220  0.19220  0.72920  Biso   1.000  O
  O36      1.0000 0.75220  0.69220  0.72920  Biso   1.000  O
  O37      1.0000 0.25220  0.80780  0.22920  Biso   1.000  O
  O38      1.0000 0.75220  0.30780  0.22920  Biso   1.000  O
  O39      1.0000 0.74780  0.80780  0.27080  Biso   1.000  O
  O40      1.0000 0.24780  0.30780  0.27080  Biso   1.000  O
  O41      1.0000 0.00000  0.04060  0.75000  Biso   1.000  O
  O42      1.0000 0.50000  0.54060  0.75000  Biso   1.000  O
  O43      1.0000 0.00000  0.95940  0.25000  Biso   1.000  O
  O44      1.0000 0.50000  0.45940  0.25000  Biso   1.000  O
  N1       1.0000 0.43100  0.24690  0.01110  Biso   1.000  N
  N2       1.0000 0.93100  0.74690  0.01110  Biso   1.000  N
  N3       1.0000 0.56900  0.24690  0.48890  Biso   1.000  N
  N4       1.0000 0.06900  0.74690  0.48890  Biso   1.000  N
  N5       1.0000 0.56900  0.75310  0.98890  Biso   1.000  N
  N6       1.0000 0.06900  0.25310  0.98890  Biso   1.000  N
  N7       1.0000 0.43100  0.75310  0.51110  Biso   1.000  N
  N8       1.0000 0.93100  0.25310  0.51110  Biso   1.000  N
  N9       1.0000 0.75530  0.12800  0.99550  Biso   1.000  N
  N10      1.0000 0.25530  0.62800  0.99550  Biso   1.000  N
  N11      1.0000 0.24470  0.12800  0.50450  Biso   1.000  N
  N12      1.0000 0.74470  0.62800  0.50450  Biso   1.000  N
  N13      1.0000 0.24470  0.87200  0.00450  Biso   1.000  N
  N14      1.0000 0.74470  0.37200  0.00450  Biso   1.000  N
  N15      1.0000 0.75530  0.87200  0.49550  Biso   1.000  N
  N16      1.0000 0.25530  0.37200  0.49550  Biso   1.000  N
  C1       1.0000 0.10210  0.26100  0.86940  Biso   1.000  C
  C2       1.0000 0.60210  0.76100  0.86940  Biso   1.000  C
  C3       1.0000 0.89790  0.26100  0.63060  Biso   1.000  C
  C4       1.0000 0.39790  0.76100  0.63060  Biso   1.000  C
  C5       1.0000 0.89790  0.73900  0.13060  Biso   1.000  C
  C6       1.0000 0.39790  0.23900  0.13060  Biso   1.000  C
  C7       1.0000 0.10210  0.73900  0.36940  Biso   1.000  C
  C8       1.0000 0.60210  0.23900  0.36940  Biso   1.000  C
  C9       1.0000 0.18350  0.25310  0.93770  Biso   1.000  C
  C10      1.0000 0.68350  0.75310  0.93770  Biso   1.000  C
  C11      1.0000 0.81650  0.25310  0.56230  Biso   1.000  C
  C12      1.0000 0.31650  0.75310  0.56230  Biso   1.000  C
  C13      1.0000 0.81650  0.74690  0.06230  Biso   1.000  C
  C14      1.0000 0.31650  0.24690  0.06230  Biso   1.000  C
  C15      1.0000 0.18350  0.74690  0.43770  Biso   1.000  C
  C16      1.0000 0.68350  0.24690  0.43770  Biso   1.000  C
  C17      1.0000 0.36580  0.25020  0.94990  Biso   1.000  C
  C18      1.0000 0.86580  0.75020  0.94990  Biso   1.000  C
  C19      1.0000 0.63420  0.25020  0.55010  Biso   1.000  C
  C20      1.0000 0.13420  0.75020  0.55010  Biso   1.000  C
  C21      1.0000 0.63420  0.74980  0.05010  Biso   1.000  C
  C22      1.0000 0.13420  0.24980  0.05010  Biso   1.000  C
  C23      1.0000 0.36580  0.74980  0.44990  Biso   1.000  C
  C24      1.0000 0.86580  0.24980  0.44990  Biso   1.000  C
  C25      1.0000 0.50030  0.25020  0.89350  Biso   1.000  C
  C26      1.0000 0.00030  0.75020  0.89350  Biso   1.000  C
  C27      1.0000 0.49970  0.25020  0.60650  Biso   1.000  C
  C28      1.0000 0.99970  0.75020  0.60650  Biso   1.000  C
  C29      1.0000 0.49970  0.74980  0.10650  Biso   1.000  C
  C30      1.0000 0.99970  0.24980  0.10650  Biso   1.000  C
  C31      1.0000 0.50030  0.74980  0.39350  Biso   1.000  C
  C32      1.0000 0.00030  0.24980  0.39350  Biso   1.000  C
  C33      1.0000 0.79490  0.08970  0.93970  Biso   1.000  C
  C34      1.0000 0.29490  0.58970  0.93970  Biso   1.000  C
  C35      1.0000 0.20510  0.08970  0.56030  Biso   1.000  C
  C36      1.0000 0.70510  0.58970  0.56030  Biso   1.000  C
  C37      1.0000 0.20510  0.91030  0.06030  Biso   1.000  C
  C38      1.0000 0.70510  0.41030  0.06030  Biso   1.000  C
  C39      1.0000 0.79490  0.91030  0.43970  Biso   1.000  C
  C40      1.0000 0.29490  0.41030  0.43970  Biso   1.000  C
  H1       1.0000 0.82370  0.11960  0.90240  Biso   1.000  H
  H2       1.0000 0.32370  0.61960  0.90240  Biso   1.000  H
  H3       1.0000 0.17630  0.11960  0.59760  Biso   1.000  H
  H4       1.0000 0.67630  0.61960  0.59760  Biso   1.000  H
  H5       1.0000 0.17630  0.88040  0.09760  Biso   1.000  H
  H6       1.0000 0.67630  0.38040  0.09760  Biso   1.000  H
  H7       1.0000 0.82370  0.88040  0.40240  Biso   1.000  H
  H8       1.0000 0.32370  0.38040  0.40240  Biso   1.000  H
  C41      1.0000 0.79490  0.00730  0.93500  Biso   1.000  C
  C42      1.0000 0.29490  0.50730  0.93500  Biso   1.000  C
  C43      1.0000 0.20510  0.00730  0.56500  Biso   1.000  C
  C44      1.0000 0.70510  0.50730  0.56500  Biso   1.000  C
  C45      1.0000 0.20510  0.99270  0.06500  Biso   1.000  C
  C46      1.0000 0.70510  0.49270  0.06500  Biso   1.000  C
  C47      1.0000 0.79490  0.99270  0.43500  Biso   1.000  C
  C48      1.0000 0.29490  0.49270  0.43500  Biso   1.000  C
  H9       1.0000 0.82240  0.98210  0.89530  Biso   1.000  H
  H10      1.0000 0.32240  0.48210  0.89530  Biso   1.000  H
  H11      1.0000 0.17760  0.98210  0.60470  Biso   1.000  H
  H12      1.0000 0.67760  0.48210  0.60470  Biso   1.000  H
  H13      1.0000 0.17760  0.01790  0.10470  Biso   1.000  H
  H14      1.0000 0.67760  0.51790  0.10470  Biso   1.000  H
  H15      1.0000 0.82240  0.01790  0.39530  Biso   1.000  H
  H16      1.0000 0.32240  0.51790  0.39530  Biso   1.000  H
  C49      1.0000 0.75370  0.96380  0.98980  Biso   1.000  C
  C50      1.0000 0.25370  0.46380  0.98980  Biso   1.000  C
  C51      1.0000 0.24630  0.96380  0.51020  Biso   1.000  C
  C52      1.0000 0.74630  0.46380  0.51020  Biso   1.000  C
  C53      1.0000 0.24630  0.03620  0.01020  Biso   1.000  C
  C54      1.0000 0.74630  0.53620  0.01020  Biso   1.000  C
  C55      1.0000 0.75370  0.03620  0.48980  Biso   1.000  C
  C56      1.0000 0.25370  0.53620  0.48980  Biso   1.000  C
  H17      1.0000 0.75120  0.90830  0.98760  Biso   1.000  H
  H18      1.0000 0.25120  0.40830  0.98760  Biso   1.000  H
  H19      1.0000 0.24880  0.90830  0.51240  Biso   1.000  H
  H20      1.0000 0.74880  0.40830  0.51240  Biso   1.000  H
  H21      1.0000 0.24880  0.09170  0.01240  Biso   1.000  H
  H22      1.0000 0.74880  0.59170  0.01240  Biso   1.000  H
  H23      1.0000 0.75120  0.09170  0.48760  Biso   1.000  H
  H24      1.0000 0.25120  0.59170  0.48760  Biso   1.000  H
  C57      1.0000 0.71600  0.00190  0.04830  Biso   1.000  C
  C58      1.0000 0.21600  0.50190  0.04830  Biso   1.000  C
  C59      1.0000 0.28400  0.00190  0.45170  Biso   1.000  C
  C60      1.0000 0.78400  0.50190  0.45170  Biso   1.000  C
  C61      1.0000 0.28400  0.99810  0.95170  Biso   1.000  C
  C62      1.0000 0.78400  0.49810  0.95170  Biso   1.000  C
  C63      1.0000 0.71600  0.99810  0.54830  Biso   1.000  C
  C64      1.0000 0.21600  0.49810  0.54830  Biso   1.000  C
  H25      1.0000 0.69100  0.97270  0.08640  Biso   1.000  H
  H26      1.0000 0.19100  0.47270  0.08640  Biso   1.000  H
  H27      1.0000 0.30900  0.97270  0.41360  Biso   1.000  H
  H28      1.0000 0.80900  0.47270  0.41360  Biso   1.000  H
  H29      1.0000 0.30900  0.02730  0.91360  Biso   1.000  H
  H30      1.0000 0.80900  0.52730  0.91360  Biso   1.000  H
  H31      1.0000 0.69100  0.02730  0.58640  Biso   1.000  H
  H32      1.0000 0.19100  0.52730  0.58640  Biso   1.000  H
  C65      1.0000 0.71590  0.08520  0.04950  Biso   1.000  C
  C66      1.0000 0.21590  0.58520  0.04950  Biso   1.000  C
  C67      1.0000 0.28410  0.08520  0.45050  Biso   1.000  C
  C68      1.0000 0.78410  0.58520  0.45050  Biso   1.000  C
  C69      1.0000 0.28410  0.91480  0.95050  Biso   1.000  C
  C70      1.0000 0.78410  0.41480  0.95050  Biso   1.000  C
  C71      1.0000 0.71590  0.91480  0.54950  Biso   1.000  C
  C72      1.0000 0.21590  0.41480  0.54950  Biso   1.000  C
  H33      1.0000 0.68790  0.11170  0.08860  Biso   1.000  H
  H34      1.0000 0.18790  0.61170  0.08860  Biso   1.000  H
  H35      1.0000 0.31210  0.11170  0.41140  Biso   1.000  H
  H36      1.0000 0.81210  0.61170  0.41140  Biso   1.000  H
  H37      1.0000 0.31210  0.88830  0.91140  Biso   1.000  H
  H38      1.0000 0.81210  0.38830  0.91140  Biso   1.000  H
  H39      1.0000 0.68790  0.88830  0.58860  Biso   1.000  H
  H40      1.0000 0.18790  0.38830  0.58860  Biso   1.000  H
  O45      1.0000 0.20300  0.07390  0.26960  Biso   1.000  O
  O46      1.0000 0.70300  0.57390  0.26960  Biso   1.000  O
  O47      1.0000 0.79700  0.07390  0.23040  Biso   1.000  O
  O48      1.0000 0.29700  0.57390  0.23040  Biso   1.000  O
  O49      1.0000 0.79700  0.92610  0.73040  Biso   1.000  O
  O50      1.0000 0.29700  0.42610  0.73040  Biso   1.000  O
  O51      1.0000 0.20300  0.92610  0.76960  Biso   1.000  O
  O52      1.0000 0.70300  0.42610  0.76960  Biso   1.000  O
  O53      1.0000 0.82400  0.97800  0.23110  Biso   1.000  O
  O54      1.0000 0.32400  0.47800  0.23110  Biso   1.000  O
  O55      1.0000 0.17600  0.97800  0.26890  Biso   1.000  O
  O56      1.0000 0.67600  0.47800  0.26890  Biso   1.000  O
  O57      1.0000 0.17600  0.02200  0.76890  Biso   1.000  O
  O58      1.0000 0.67600  0.52200  0.76890  Biso   1.000  O
  O59      1.0000 0.82400  0.02200  0.73110  Biso   1.000  O
  O60      1.0000 0.32400  0.52200  0.73110  Biso   1.000  O
  O61      1.0000 0.59400  0.05700  0.23500  Biso   1.000  O
  O62      1.0000 0.09400  0.55700  0.23500  Biso   1.000  O
  O63      1.0000 0.40600  0.05700  0.26500  Biso   1.000  O
  O64      1.0000 0.90600  0.55700  0.26500  Biso   1.000  O
  O65      1.0000 0.40600  0.94300  0.76500  Biso   1.000  O
  O66      1.0000 0.90600  0.44300  0.76500  Biso   1.000  O
  O67      1.0000 0.59400  0.94300  0.73500  Biso   1.000  O
  O68      1.0000 0.09400  0.44300  0.73500  Biso   1.000  O
  O69      1.0000 0.93600  0.91570  0.74490  Biso   1.000  O
  O70      1.0000 0.43600  0.41570  0.74490  Biso   1.000  O
  O71      1.0000 0.06400  0.91570  0.75510  Biso   1.000  O
  O72      1.0000 0.56400  0.41570  0.75510  Biso   1.000  O
  O73      1.0000 0.06400  0.08430  0.25510  Biso   1.000  O
  O74      1.0000 0.56400  0.58430  0.25510  Biso   1.000  O
  O75      1.0000 0.93600  0.08430  0.24490  Biso   1.000  O
  O76      1.0000 0.43600  0.58430  0.24490  Biso   1.000  O
