data_image0
_cell_length_a       7.4264
_cell_length_b       10.434
_cell_length_c       14.864
_cell_angle_alpha    104.58
_cell_angle_beta     92.95
_cell_angle_gamma    90.27

_symmetry_space_group_name_H-M    "P 1"
_symmetry_int_tables_number       1

loop_
  _symmetry_equiv_pos_as_xyz
  'x, y, z'

loop_
  _atom_site_label
  _atom_site_occupancy
  _atom_site_fract_x
  _atom_site_fract_y
  _atom_site_fract_z
  _atom_site_thermal_displace_type
  _atom_site_B_iso_or_equiv
  _atom_site_type_symbol
  Cu1      1.0000 0.14928  0.46978  0.17927  Biso   1.000  Cu
  Cu2      1.0000 0.85072  0.53022  0.82073  Biso   1.000  Cu
  K1       1.0000 0.60917  0.61676  0.29693  Biso   1.000  K
  K2       1.0000 0.39083  0.38324  0.70307  Biso   1.000  K
  K3       1.0000 0.81924  0.65089  0.07522  Biso   1.000  K
  K4       1.0000 0.18076  0.34911  0.92478  Biso   1.000  K
  C1       1.0000 0.14710  0.84290  0.36090  Biso   1.000  C
  C2       1.0000 0.85290  0.15710  0.63910  Biso   1.000  C
  C3       1.0000 0.23470  0.84950  0.44790  Biso   1.000  C
  C4       1.0000 0.76530  0.15050  0.55210  Biso   1.000  C
  C5       1.0000 0.26230  0.97630  0.50710  Biso   1.000  C
  C6       1.0000 0.73770  0.02370  0.49290  Biso   1.000  C
  C7       1.0000 0.21720  0.09080  0.48180  Biso   1.000  C
  C8       1.0000 0.78280  0.90920  0.51820  Biso   1.000  C
  H1       1.0000 0.24400  0.17320  0.52220  Biso   1.000  H
  H2       1.0000 0.75600  0.82680  0.47780  Biso   1.000  H
  C9       1.0000 0.13170  0.08170  0.39560  Biso   1.000  C
  C10      1.0000 0.86830  0.91830  0.60440  Biso   1.000  C
  H3       1.0000 0.10020  0.15820  0.37760  Biso   1.000  H
  H4       1.0000 0.89980  0.84180  0.62240  Biso   1.000  H
  C11      1.0000 0.09300  0.95880  0.33600  Biso   1.000  C
  C12      1.0000 0.90700  0.04120  0.66400  Biso   1.000  C
  H5       1.0000 0.03080  0.95270  0.27910  Biso   1.000  H
  H6       1.0000 0.96920  0.04730  0.72090  Biso   1.000  H
  C13      1.0000 0.10210  0.71270  0.29200  Biso   1.000  C
  C14      1.0000 0.89790  0.28730  0.70800  Biso   1.000  C
  C15      1.0000 0.28450  0.72180  0.47420  Biso   1.000  C
  C16      1.0000 0.71550  0.27820  0.52580  Biso   1.000  C
  C17      1.0000 0.30890  0.78040  0.07190  Biso   1.000  C
  C18      1.0000 0.69110  0.21960  0.92810  Biso   1.000  C
  C19      1.0000 0.22600  0.80010  0.98940  Biso   1.000  C
  C20      1.0000 0.77400  0.19990  0.01060  Biso   1.000  C
  C21      1.0000 0.22480  0.93040  0.98010  Biso   1.000  C
  C22      1.0000 0.77520  0.06960  0.01990  Biso   1.000  C
  C23      1.0000 0.28720  0.03780  0.05000  Biso   1.000  C
  C24      1.0000 0.71280  0.96220  0.95000  Biso   1.000  C
  H7       1.0000 0.27760  0.12340  0.04250  Biso   1.000  H
  H8       1.0000 0.72240  0.87660  0.95750  Biso   1.000  H
  C25      1.0000 0.36420  0.01550  0.13120  Biso   1.000  C
  C26      1.0000 0.63580  0.98450  0.86880  Biso   1.000  C
  H9       1.0000 0.40640  0.08640  0.17920  Biso   1.000  H
  H10      1.0000 0.59360  0.91360  0.82080  Biso   1.000  H
  C27      1.0000 0.37840  0.88830  0.14100  Biso   1.000  C
  C28      1.0000 0.62160  0.11170  0.85900  Biso   1.000  C
  H11      1.0000 0.43550  0.87390  0.19470  Biso   1.000  H
  H12      1.0000 0.56450  0.12610  0.80530  Biso   1.000  H
  C29      1.0000 0.32940  0.64490  0.09120  Biso   1.000  C
  C30      1.0000 0.67060  0.35510  0.90880  Biso   1.000  C
  C31      1.0000 0.13940  0.68110  0.91830  Biso   1.000  C
  C32      1.0000 0.86060  0.31890  0.08170  Biso   1.000  C
  O1       1.0000 0.95010  0.69280  0.25210  Biso   1.000  O
  O2       1.0000 0.04990  0.30720  0.74790  Biso   1.000  O
  O3       1.0000 0.23000  0.62850  0.27640  Biso   1.000  O
  O4       1.0000 0.77000  0.37150  0.72360  Biso   1.000  O
  O5       1.0000 0.44430  0.68530  0.46730  Biso   1.000  O
  O6       1.0000 0.55570  0.31470  0.53270  Biso   1.000  O
  O7       1.0000 0.15620  0.65850  0.49560  Biso   1.000  O
  O8       1.0000 0.84380  0.34150  0.50440  Biso   1.000  O
  O9       1.0000 0.36290  0.89290  0.63200  Biso   1.000  O
  O10      1.0000 0.63710  0.10710  0.36800  Biso   1.000  O
  O11      1.0000 0.38330  0.10290  0.64960  Biso   1.000  O
  O12      1.0000 0.61670  0.89710  0.35040  Biso   1.000  O
  O13      1.0000 0.48080  0.61640  0.11840  Biso   1.000  O
  O14      1.0000 0.51920  0.38360  0.88160  Biso   1.000  O
  O15      1.0000 0.18410  0.57180  0.08242  Biso   1.000  O
  O16      1.0000 0.81590  0.42820  0.91758  Biso   1.000  O
  O17      1.0000 0.23790  0.59530  0.87270  Biso   1.000  O
  O18      1.0000 0.76210  0.40470  0.12730  Biso   1.000  O
  O19      1.0000 0.96970  0.67530  0.91624  Biso   1.000  O
  O20      1.0000 0.03030  0.32470  0.08376  Biso   1.000  O
  O21      1.0000 0.13840  0.86330  0.82310  Biso   1.000  O
  O22      1.0000 0.86160  0.13670  0.17690  Biso   1.000  O
  O23      1.0000 0.13310  0.07190  0.88890  Biso   1.000  O
  O24      1.0000 0.86690  0.92810  0.11110  Biso   1.000  O
  O25      1.0000 0.08380  0.38000  0.27720  Biso   1.000  O
  O26      1.0000 0.91620  0.62000  0.72280  Biso   1.000  O
  O27      1.0000 0.41590  0.35620  0.17740  Biso   1.000  O
  O28      1.0000 0.58410  0.64380  0.82260  Biso   1.000  O
  O29      1.0000 0.40670  0.40340  0.38250  Biso   1.000  O
  O30      1.0000 0.59330  0.59660  0.61750  Biso   1.000  O
  O31      1.0000 0.85430  0.52370  0.40210  Biso   1.000  O
  O32      1.0000 0.14570  0.47630  0.59790  Biso   1.000  O
  N1       1.0000 0.34320  0.99110  0.60290  Biso   1.000  N
  N2       1.0000 0.65680  0.00890  0.39710  Biso   1.000  N
  N3       1.0000 0.16110  0.95590  0.89110  Biso   1.000  N
  N4       1.0000 0.83890  0.04410  0.10890  Biso   1.000  N
  H13      1.0000 0.92400  0.57300  0.43200  Biso   1.000  H
  H14      1.0000 0.07600  0.42700  0.56800  Biso   1.000  H
  H15      1.0000 0.17300  0.38300  0.30800  Biso   1.000  H
  H16      1.0000 0.82700  0.61700  0.69200  Biso   1.000  H
  H17      1.0000 0.00200  0.42800  0.30500  Biso   1.000  H
  H18      1.0000 0.99800  0.57200  0.69500  Biso   1.000  H
  H19      1.0000 0.43700  0.35800  0.41000  Biso   1.000  H
  H20      1.0000 0.56300  0.64200  0.59000  Biso   1.000  H
  H21      1.0000 0.40800  0.47900  0.41200  Biso   1.000  H
  H22      1.0000 0.59200  0.52100  0.58800  Biso   1.000  H
  H23      1.0000 0.83200  0.46900  0.43500  Biso   1.000  H
  H24      1.0000 0.16800  0.53100  0.56500  Biso   1.000  H
  H25      1.0000 0.40900  0.36200  0.11800  Biso   1.000  H
  H26      1.0000 0.59100  0.63800  0.88200  Biso   1.000  H
  H27      1.0000 0.50000  0.33700  0.21800  Biso   1.000  H
  H28      1.0000 0.50000  0.66300  0.78200  Biso   1.000  H
