data_image0
_cell_length_a       11.996
_cell_length_b       14.703
_cell_length_c       15.094
_cell_angle_alpha    90
_cell_angle_beta     111.77
_cell_angle_gamma    90

_symmetry_space_group_name_H-M    "P 1"
_symmetry_int_tables_number       1

loop_
  _symmetry_equiv_pos_as_xyz
  'x, y, z'

loop_
  _atom_site_label
  _atom_site_occupancy
  _atom_site_fract_x
  _atom_site_fract_y
  _atom_site_fract_z
  _atom_site_thermal_displace_type
  _atom_site_B_iso_or_equiv
  _atom_site_type_symbol
  Cu1      1.0000 0.02950  0.04400  0.10770  Biso   1.000  Cu
  Cu2      1.0000 0.47050  0.54400  0.39230  Biso   1.000  Cu
  Cu3      1.0000 0.97050  0.95600  0.89230  Biso   1.000  Cu
  Cu4      1.0000 0.52950  0.45600  0.60770  Biso   1.000  Cu
  Cu5      1.0000 0.50000  0.00000  0.00000  Biso   1.000  Cu
  Cu6      1.0000 0.00000  0.50000  0.50000  Biso   1.000  Cu
  N1       1.0000 0.12310  0.99060  0.00110  Biso   1.000  N
  N2       1.0000 0.37690  0.49060  0.49890  Biso   1.000  N
  N3       1.0000 0.87690  0.00940  0.99890  Biso   1.000  N
  N4       1.0000 0.62310  0.50940  0.50110  Biso   1.000  N
  N5       1.0000 0.20820  0.02950  0.99550  Biso   1.000  N
  N6       1.0000 0.29180  0.52950  0.50450  Biso   1.000  N
  N7       1.0000 0.79180  0.97050  0.00450  Biso   1.000  N
  N8       1.0000 0.70820  0.47050  0.49550  Biso   1.000  N
  N9       1.0000 0.29140  0.06740  0.99320  Biso   1.000  N
  N10      1.0000 0.20860  0.56740  0.50680  Biso   1.000  N
  N11      1.0000 0.70860  0.93260  0.00680  Biso   1.000  N
  N12      1.0000 0.79140  0.43260  0.49320  Biso   1.000  N
  N13      1.0000 0.17910  0.08720  0.20890  Biso   1.000  N
  N14      1.0000 0.32090  0.58720  0.29110  Biso   1.000  N
  N15      1.0000 0.82090  0.91280  0.79110  Biso   1.000  N
  N16      1.0000 0.67910  0.41280  0.70890  Biso   1.000  N
  N17      1.0000 0.25060  0.04120  0.26620  Biso   1.000  N
  N18      1.0000 0.24940  0.54120  0.23380  Biso   1.000  N
  N19      1.0000 0.74940  0.95880  0.73380  Biso   1.000  N
  N20      1.0000 0.75060  0.45880  0.76620  Biso   1.000  N
  N21      1.0000 0.32150  0.99900  0.32460  Biso   1.000  N
  N22      1.0000 0.17850  0.49900  0.17540  Biso   1.000  N
  N23      1.0000 0.67850  0.00100  0.67540  Biso   1.000  N
  N24      1.0000 0.82150  0.50100  0.82460  Biso   1.000  N
  N25      1.0000 0.57970  0.07120  0.11910  Biso   1.000  N
  N26      1.0000 0.92030  0.57120  0.38090  Biso   1.000  N
  N27      1.0000 0.42030  0.92880  0.88090  Biso   1.000  N
  N28      1.0000 0.07970  0.42880  0.61910  Biso   1.000  N
  N29      1.0000 0.68560  0.08350  0.14750  Biso   1.000  N
  N30      1.0000 0.81440  0.58350  0.35250  Biso   1.000  N
  N31      1.0000 0.31440  0.91650  0.85250  Biso   1.000  N
  N32      1.0000 0.18560  0.41650  0.64750  Biso   1.000  N
  N33      1.0000 0.78800  0.09850  0.17590  Biso   1.000  N
  N34      1.0000 0.71200  0.59850  0.32410  Biso   1.000  N
  N35      1.0000 0.21200  0.90150  0.82410  Biso   1.000  N
  N36      1.0000 0.28800  0.40150  0.67590  Biso   1.000  N
  N37      1.0000 0.03500  0.92410  0.17260  Biso   1.000  N
  N38      1.0000 0.46500  0.42410  0.32740  Biso   1.000  N
  N39      1.0000 0.96500  0.07590  0.82740  Biso   1.000  N
  N40      1.0000 0.53500  0.57590  0.67260  Biso   1.000  N
  C1       1.0000 0.95070  0.90430  0.20840  Biso   1.000  C
  C2       1.0000 0.54930  0.40430  0.29160  Biso   1.000  C
  C3       1.0000 0.04930  0.09570  0.79160  Biso   1.000  C
  C4       1.0000 0.45070  0.59570  0.70840  Biso   1.000  C
  C5       1.0000 0.94820  0.82350  0.25510  Biso   1.000  C
  C6       1.0000 0.55180  0.32350  0.24490  Biso   1.000  C
  C7       1.0000 0.05180  0.17650  0.74490  Biso   1.000  C
  C8       1.0000 0.44820  0.67650  0.75510  Biso   1.000  C
  C9       1.0000 0.04050  0.76200  0.26540  Biso   1.000  C
  C10      1.0000 0.45950  0.26200  0.23460  Biso   1.000  C
  C11      1.0000 0.95950  0.23800  0.73460  Biso   1.000  C
  C12      1.0000 0.54050  0.73800  0.76540  Biso   1.000  C
  C13      1.0000 0.12640  0.78180  0.22950  Biso   1.000  C
  C14      1.0000 0.37360  0.28180  0.27050  Biso   1.000  C
  C15      1.0000 0.87360  0.21820  0.77050  Biso   1.000  C
  C16      1.0000 0.62640  0.71820  0.72950  Biso   1.000  C
  C17      1.0000 0.12100  0.86290  0.18260  Biso   1.000  C
  C18      1.0000 0.37900  0.36290  0.31740  Biso   1.000  C
  C19      1.0000 0.87900  0.13710  0.81740  Biso   1.000  C
  C20      1.0000 0.62100  0.63710  0.68260  Biso   1.000  C
  C21      1.0000 0.84830  0.80140  0.29020  Biso   1.000  C
  C22      1.0000 0.65170  0.30140  0.20980  Biso   1.000  C
  C23      1.0000 0.15170  0.19860  0.70980  Biso   1.000  C
  C24      1.0000 0.34830  0.69860  0.79020  Biso   1.000  C
  C25      1.0000 0.77240  0.87150  0.29720  Biso   1.000  C
  C26      1.0000 0.72760  0.37150  0.20280  Biso   1.000  C
  C27      1.0000 0.22760  0.12850  0.70280  Biso   1.000  C
  C28      1.0000 0.27240  0.62850  0.79720  Biso   1.000  C
  N41      1.0000 0.00430  0.17410  0.05920  Biso   1.000  N
  N42      1.0000 0.49570  0.67410  0.44080  Biso   1.000  N
  N43      1.0000 0.99570  0.82590  0.94080  Biso   1.000  N
  N44      1.0000 0.50430  0.32590  0.55920  Biso   1.000  N
  C29      1.0000 0.09410  0.21880  0.04510  Biso   1.000  C
  C30      1.0000 0.40590  0.71880  0.45490  Biso   1.000  C
  C31      1.0000 0.90590  0.78120  0.95490  Biso   1.000  C
  C32      1.0000 0.59410  0.28120  0.54510  Biso   1.000  C
  C33      1.0000 0.08460  0.30610  0.00950  Biso   1.000  C
  C34      1.0000 0.41540  0.80610  0.49050  Biso   1.000  C
  C35      1.0000 0.91540  0.69390  0.99050  Biso   1.000  C
  C36      1.0000 0.58460  0.19390  0.50950  Biso   1.000  C
  C37      1.0000 0.97580  0.34930  0.99000  Biso   1.000  C
  C38      1.0000 0.52420  0.84930  0.51000  Biso   1.000  C
  C39      1.0000 0.02420  0.65070  0.01000  Biso   1.000  C
  C40      1.0000 0.47580  0.15070  0.49000  Biso   1.000  C
  C41      1.0000 0.88350  0.30490  0.00440  Biso   1.000  C
  C42      1.0000 0.61650  0.80490  0.49560  Biso   1.000  C
  C43      1.0000 0.11650  0.69510  0.99560  Biso   1.000  C
  C44      1.0000 0.38350  0.19510  0.50440  Biso   1.000  C
  C45      1.0000 0.90070  0.21680  0.03850  Biso   1.000  C
  C46      1.0000 0.59930  0.71680  0.46150  Biso   1.000  C
  C47      1.0000 0.09930  0.78320  0.96150  Biso   1.000  C
  C48      1.0000 0.40070  0.28320  0.53850  Biso   1.000  C
  C49      1.0000 0.19000  0.34850  0.99350  Biso   1.000  C
  C50      1.0000 0.31000  0.84850  0.50650  Biso   1.000  C
  C51      1.0000 0.81000  0.65150  0.00650  Biso   1.000  C
  C52      1.0000 0.69000  0.15150  0.49350  Biso   1.000  C
  C53      1.0000 0.15980  0.41940  0.91650  Biso   1.000  C
  C54      1.0000 0.34020  0.91940  0.58350  Biso   1.000  C
  C55      1.0000 0.84020  0.58060  0.08350  Biso   1.000  C
  C56      1.0000 0.65980  0.08060  0.41650  Biso   1.000  C
  N45      1.0000 0.52050  0.10430  0.92040  Biso   1.000  N
  N46      1.0000 0.97950  0.60430  0.57960  Biso   1.000  N
  N47      1.0000 0.47950  0.89570  0.07960  Biso   1.000  N
  N48      1.0000 0.02050  0.39570  0.42040  Biso   1.000  N
  C57      1.0000 0.49770  0.18980  0.93930  Biso   1.000  C
  C58      1.0000 0.00230  0.68980  0.56070  Biso   1.000  C
  C59      1.0000 0.50230  0.81020  0.06070  Biso   1.000  C
  C60      1.0000 0.99770  0.31020  0.43930  Biso   1.000  C
  C61      1.0000 0.50570  0.26460  0.88650  Biso   1.000  C
  C62      1.0000 0.99430  0.76460  0.61350  Biso   1.000  C
  C63      1.0000 0.49430  0.73540  0.11350  Biso   1.000  C
  C64      1.0000 0.00570  0.23540  0.38650  Biso   1.000  C
  C65      1.0000 0.54080  0.24790  0.80960  Biso   1.000  C
  C66      1.0000 0.95920  0.74790  0.69040  Biso   1.000  C
  C67      1.0000 0.45920  0.75210  0.19040  Biso   1.000  C
  C68      1.0000 0.04080  0.25210  0.30960  Biso   1.000  C
  C69      1.0000 0.56470  0.16050  0.78930  Biso   1.000  C
  C70      1.0000 0.93530  0.66050  0.71070  Biso   1.000  C
  C71      1.0000 0.43530  0.83950  0.21070  Biso   1.000  C
  C72      1.0000 0.06470  0.33950  0.28930  Biso   1.000  C
  C73      1.0000 0.55260  0.08980  0.84550  Biso   1.000  C
  C74      1.0000 0.94740  0.58980  0.65450  Biso   1.000  C
  C75      1.0000 0.44740  0.91020  0.15450  Biso   1.000  C
  C76      1.0000 0.05260  0.41020  0.34550  Biso   1.000  C
  C77      1.0000 0.47200  0.35780  0.90870  Biso   1.000  C
  C78      1.0000 0.02800  0.85780  0.59130  Biso   1.000  C
  C79      1.0000 0.52800  0.64220  0.09130  Biso   1.000  C
  C80      1.0000 0.97200  0.14220  0.40870  Biso   1.000  C
  C81      1.0000 0.55910  0.43170  0.91250  Biso   1.000  C
  C82      1.0000 0.94090  0.93170  0.58750  Biso   1.000  C
  C83      1.0000 0.44090  0.56830  0.08750  Biso   1.000  C
  C84      1.0000 0.05910  0.06830  0.41250  Biso   1.000  C
  H1       1.0000 0.89080  0.94700  0.20140  Biso   1.000  H
  H2       1.0000 0.60920  0.44700  0.29860  Biso   1.000  H
  H3       1.0000 0.10920  0.05300  0.79860  Biso   1.000  H
  H4       1.0000 0.39080  0.55300  0.70140  Biso   1.000  H
  H5       1.0000 0.04350  0.70730  0.29700  Biso   1.000  H
  H6       1.0000 0.45650  0.20730  0.20300  Biso   1.000  H
  H7       1.0000 0.95650  0.29270  0.70300  Biso   1.000  H
  H8       1.0000 0.54350  0.79270  0.79700  Biso   1.000  H
  H9       1.0000 0.18820  0.74070  0.23650  Biso   1.000  H
  H10      1.0000 0.31180  0.24070  0.26350  Biso   1.000  H
  H11      1.0000 0.81180  0.25930  0.76350  Biso   1.000  H
  H12      1.0000 0.68820  0.75930  0.73650  Biso   1.000  H
  H13      1.0000 0.17910  0.87550  0.15710  Biso   1.000  H
  H14      1.0000 0.32090  0.37550  0.34290  Biso   1.000  H
  H15      1.0000 0.82090  0.12450  0.84290  Biso   1.000  H
  H16      1.0000 0.67910  0.62450  0.65710  Biso   1.000  H
  H17      1.0000 0.79820  0.75520  0.24820  Biso   1.000  H
  H18      1.0000 0.70180  0.25520  0.25180  Biso   1.000  H
  H19      1.0000 0.20180  0.24480  0.75180  Biso   1.000  H
  H20      1.0000 0.29820  0.74480  0.74820  Biso   1.000  H
  H21      1.0000 0.88480  0.77400  0.35280  Biso   1.000  H
  H22      1.0000 0.61520  0.27400  0.14720  Biso   1.000  H
  H23      1.0000 0.11520  0.22600  0.64720  Biso   1.000  H
  H24      1.0000 0.38480  0.72600  0.85280  Biso   1.000  H
  H25      1.0000 0.81930  0.91750  0.34000  Biso   1.000  H
  H26      1.0000 0.68070  0.41750  0.16000  Biso   1.000  H
  H27      1.0000 0.18070  0.08250  0.66000  Biso   1.000  H
  H28      1.0000 0.31930  0.58250  0.84000  Biso   1.000  H
  H29      1.0000 0.71480  0.84720  0.32120  Biso   1.000  H
  H30      1.0000 0.78520  0.34720  0.17880  Biso   1.000  H
  H31      1.0000 0.28520  0.15280  0.67880  Biso   1.000  H
  H32      1.0000 0.21480  0.65280  0.82120  Biso   1.000  H
  H33      1.0000 0.73130  0.89760  0.23530  Biso   1.000  H
  H34      1.0000 0.76870  0.39760  0.26470  Biso   1.000  H
  H35      1.0000 0.26870  0.10240  0.76470  Biso   1.000  H
  H36      1.0000 0.23130  0.60240  0.73530  Biso   1.000  H
  H37      1.0000 0.16720  0.18900  0.06030  Biso   1.000  H
  H38      1.0000 0.33280  0.68900  0.43970  Biso   1.000  H
  H39      1.0000 0.83280  0.81100  0.93970  Biso   1.000  H
  H40      1.0000 0.66720  0.31100  0.56030  Biso   1.000  H
  H41      1.0000 0.96520  0.40870  0.96720  Biso   1.000  H
  H42      1.0000 0.53480  0.90870  0.53280  Biso   1.000  H
  H43      1.0000 0.03480  0.59130  0.03280  Biso   1.000  H
  H44      1.0000 0.46520  0.09130  0.46720  Biso   1.000  H
  H45      1.0000 0.81010  0.33370  0.99130  Biso   1.000  H
  H46      1.0000 0.68990  0.83370  0.50870  Biso   1.000  H
  H47      1.0000 0.18990  0.66630  0.00870  Biso   1.000  H
  H48      1.0000 0.31010  0.16630  0.49130  Biso   1.000  H
  H49      1.0000 0.83740  0.18650  0.04710  Biso   1.000  H
  H50      1.0000 0.66260  0.68650  0.45290  Biso   1.000  H
  H51      1.0000 0.16260  0.81350  0.95290  Biso   1.000  H
  H52      1.0000 0.33740  0.31350  0.54710  Biso   1.000  H
  H53      1.0000 0.24210  0.37600  0.05280  Biso   1.000  H
  H54      1.0000 0.25790  0.87600  0.44720  Biso   1.000  H
  H55      1.0000 0.75790  0.62400  0.94720  Biso   1.000  H
  H56      1.0000 0.74210  0.12400  0.55280  Biso   1.000  H
  H57      1.0000 0.23520  0.30050  0.97800  Biso   1.000  H
  H58      1.0000 0.26480  0.80050  0.52200  Biso   1.000  H
  H59      1.0000 0.76480  0.69950  0.02200  Biso   1.000  H
  H60      1.0000 0.73520  0.19950  0.47800  Biso   1.000  H
  H61      1.0000 0.23100  0.43590  0.90560  Biso   1.000  H
  H62      1.0000 0.26900  0.93590  0.59440  Biso   1.000  H
  H63      1.0000 0.76900  0.56410  0.09440  Biso   1.000  H
  H64      1.0000 0.73100  0.06410  0.40560  Biso   1.000  H
  H65      1.0000 0.12750  0.47210  0.93590  Biso   1.000  H
  H66      1.0000 0.37250  0.97210  0.56410  Biso   1.000  H
  H67      1.0000 0.87250  0.52790  0.06410  Biso   1.000  H
  H68      1.0000 0.62750  0.02790  0.43590  Biso   1.000  H
  H69      1.0000 0.10140  0.39540  0.85870  Biso   1.000  H
  H70      1.0000 0.39860  0.89540  0.64130  Biso   1.000  H
  H71      1.0000 0.89860  0.60460  0.14130  Biso   1.000  H
  H72      1.0000 0.60140  0.10460  0.35870  Biso   1.000  H
  H73      1.0000 0.47510  0.19950  0.99120  Biso   1.000  H
  H74      1.0000 0.02490  0.69950  0.50880  Biso   1.000  H
  H75      1.0000 0.52490  0.80050  0.00880  Biso   1.000  H
  H76      1.0000 0.97510  0.30050  0.49120  Biso   1.000  H
  H77      1.0000 0.54810  0.29590  0.77200  Biso   1.000  H
  H78      1.0000 0.95190  0.79590  0.72800  Biso   1.000  H
  H79      1.0000 0.45190  0.70410  0.22800  Biso   1.000  H
  H80      1.0000 0.04810  0.20410  0.27200  Biso   1.000  H
  H81      1.0000 0.58870  0.14910  0.73840  Biso   1.000  H
  H82      1.0000 0.91130  0.64910  0.76160  Biso   1.000  H
  H83      1.0000 0.41130  0.85090  0.26160  Biso   1.000  H
  H84      1.0000 0.08870  0.35090  0.23840  Biso   1.000  H
  H85      1.0000 0.56720  0.03060  0.83100  Biso   1.000  H
  H86      1.0000 0.93280  0.53060  0.66900  Biso   1.000  H
  H87      1.0000 0.43280  0.96940  0.16900  Biso   1.000  H
  H88      1.0000 0.06720  0.46940  0.33100  Biso   1.000  H
  H89      1.0000 0.39460  0.37370  0.86080  Biso   1.000  H
  H90      1.0000 0.10540  0.87370  0.63920  Biso   1.000  H
  H91      1.0000 0.60540  0.62630  0.13920  Biso   1.000  H
  H92      1.0000 0.89460  0.12630  0.36080  Biso   1.000  H
  H93      1.0000 0.46260  0.35550  0.96980  Biso   1.000  H
  H94      1.0000 0.03740  0.85550  0.53020  Biso   1.000  H
  H95      1.0000 0.53740  0.64450  0.03020  Biso   1.000  H
  H96      1.0000 0.96260  0.14450  0.46980  Biso   1.000  H
  H97      1.0000 0.52820  0.48890  0.92380  Biso   1.000  H
  H98      1.0000 0.97180  0.98890  0.57620  Biso   1.000  H
  H99      1.0000 0.47180  0.51110  0.07620  Biso   1.000  H
  H100     1.0000 0.02820  0.01110  0.42380  Biso   1.000  H
  H101     1.0000 0.57070  0.43410  0.85300  Biso   1.000  H
  H102     1.0000 0.92930  0.93410  0.64700  Biso   1.000  H
  H103     1.0000 0.42930  0.56590  0.14700  Biso   1.000  H
  H104     1.0000 0.07070  0.06590  0.35300  Biso   1.000  H
  H105     1.0000 0.63440  0.41950  0.96330  Biso   1.000  H
  H106     1.0000 0.86560  0.91950  0.53670  Biso   1.000  H
  H107     1.0000 0.36560  0.58050  0.03670  Biso   1.000  H
  H108     1.0000 0.13440  0.08050  0.46330  Biso   1.000  H
