data_image0
_cell_length_a       14.653
_cell_length_b       8.076
_cell_length_c       15.114
_cell_angle_alpha    90
_cell_angle_beta     109.56
_cell_angle_gamma    90

_symmetry_space_group_name_H-M    "P 1"
_symmetry_int_tables_number       1

loop_
  _symmetry_equiv_pos_as_xyz
  'x, y, z'

loop_
  _atom_site_label
  _atom_site_occupancy
  _atom_site_fract_x
  _atom_site_fract_y
  _atom_site_fract_z
  _atom_site_thermal_displace_type
  _atom_site_B_iso_or_equiv
  _atom_site_type_symbol
  Cu1      1.0000 0.60380  0.02420  0.61580  Biso   1.000  Cu
  Cu2      1.0000 0.89620  0.52420  0.88420  Biso   1.000  Cu
  Cu3      1.0000 0.39620  0.97580  0.38420  Biso   1.000  Cu
  Cu4      1.0000 0.10380  0.47580  0.11580  Biso   1.000  Cu
  N1       1.0000 0.60990  0.88350  0.72430  Biso   1.000  N
  N2       1.0000 0.89010  0.38350  0.77570  Biso   1.000  N
  N3       1.0000 0.39010  0.11650  0.27570  Biso   1.000  N
  N4       1.0000 0.10990  0.61650  0.22430  Biso   1.000  N
  N5       1.0000 0.67780  0.79910  0.76430  Biso   1.000  N
  N6       1.0000 0.82220  0.29910  0.73570  Biso   1.000  N
  N7       1.0000 0.32220  0.20090  0.23570  Biso   1.000  N
  N8       1.0000 0.17780  0.70090  0.26430  Biso   1.000  N
  N9       1.0000 0.73990  0.71240  0.80470  Biso   1.000  N
  N10      1.0000 0.76010  0.21240  0.69530  Biso   1.000  N
  N11      1.0000 0.26010  0.28760  0.19530  Biso   1.000  N
  N12      1.0000 0.23990  0.78760  0.30470  Biso   1.000  N
  N13      1.0000 0.57290  0.14720  0.49530  Biso   1.000  N
  N14      1.0000 0.92710  0.64720  0.00470  Biso   1.000  N
  N15      1.0000 0.42710  0.85280  0.50470  Biso   1.000  N
  N16      1.0000 0.07290  0.35280  0.99530  Biso   1.000  N
  N17      1.0000 0.62890  0.15540  0.45430  Biso   1.000  N
  N18      1.0000 0.87110  0.65540  0.04570  Biso   1.000  N
  N19      1.0000 0.37110  0.84460  0.54570  Biso   1.000  N
  N20      1.0000 0.12890  0.34460  0.95430  Biso   1.000  N
  N21      1.0000 0.67980  0.17060  0.41210  Biso   1.000  N
  N22      1.0000 0.82020  0.67060  0.08790  Biso   1.000  N
  N23      1.0000 0.32020  0.82940  0.58790  Biso   1.000  N
  N24      1.0000 0.17980  0.32940  0.91210  Biso   1.000  N
  N25      1.0000 0.52870  0.19130  0.66440  Biso   1.000  N
  N26      1.0000 0.97130  0.69130  0.83560  Biso   1.000  N
  N27      1.0000 0.47130  0.80870  0.33560  Biso   1.000  N
  N28      1.0000 0.02870  0.30870  0.16440  Biso   1.000  N
  C1       1.0000 0.46220  0.14430  0.70020  Biso   1.000  C
  C2       1.0000 0.03780  0.64430  0.79980  Biso   1.000  C
  C3       1.0000 0.53780  0.85570  0.29980  Biso   1.000  C
  C4       1.0000 0.96220  0.35570  0.20020  Biso   1.000  C
  C5       1.0000 0.41140  0.25670  0.73450  Biso   1.000  C
  C6       1.0000 0.08860  0.75670  0.76550  Biso   1.000  C
  C7       1.0000 0.58860  0.74330  0.26550  Biso   1.000  C
  C8       1.0000 0.91140  0.24330  0.23450  Biso   1.000  C
  C9       1.0000 0.42810  0.42300  0.73330  Biso   1.000  C
  C10      1.0000 0.07190  0.92300  0.76670  Biso   1.000  C
  C11      1.0000 0.57190  0.57700  0.26670  Biso   1.000  C
  C12      1.0000 0.92810  0.07700  0.23330  Biso   1.000  C
  C13      1.0000 0.49760  0.47120  0.69660  Biso   1.000  C
  C14      1.0000 0.00240  0.97120  0.80340  Biso   1.000  C
  C15      1.0000 0.50240  0.52880  0.30340  Biso   1.000  C
  C16      1.0000 0.99760  0.02880  0.19660  Biso   1.000  C
  C17      1.0000 0.54530  0.35400  0.66260  Biso   1.000  C
  C18      1.0000 0.95470  0.85400  0.83740  Biso   1.000  C
  C19      1.0000 0.45470  0.64600  0.33740  Biso   1.000  C
  C20      1.0000 0.04530  0.14600  0.16260  Biso   1.000  C
  C21      1.0000 0.37650  0.54500  0.77480  Biso   1.000  C
  C22      1.0000 0.12350  0.04500  0.72520  Biso   1.000  C
  C23      1.0000 0.62350  0.45500  0.22520  Biso   1.000  C
  C24      1.0000 0.87650  0.95500  0.27480  Biso   1.000  C
  C25      1.0000 0.40440  0.56680  0.86260  Biso   1.000  C
  C26      1.0000 0.09560  0.06680  0.63740  Biso   1.000  C
  C27      1.0000 0.59560  0.43320  0.13740  Biso   1.000  C
  C28      1.0000 0.90440  0.93320  0.36260  Biso   1.000  C
  N29      1.0000 0.68580  0.85770  0.57790  Biso   1.000  N
  N30      1.0000 0.81420  0.35770  0.92210  Biso   1.000  N
  N31      1.0000 0.31420  0.14230  0.42210  Biso   1.000  N
  N32      1.0000 0.18580  0.64230  0.07790  Biso   1.000  N
  C29      1.0000 0.65010  0.70860  0.54720  Biso   1.000  C
  C30      1.0000 0.84990  0.20860  0.95280  Biso   1.000  C
  C31      1.0000 0.34990  0.29140  0.45280  Biso   1.000  C
  C32      1.0000 0.15010  0.79140  0.04720  Biso   1.000  C
  C33      1.0000 0.70540  0.58520  0.53020  Biso   1.000  C
  C34      1.0000 0.79460  0.08520  0.96980  Biso   1.000  C
  C35      1.0000 0.29460  0.41480  0.46980  Biso   1.000  C
  C36      1.0000 0.20540  0.91480  0.03020  Biso   1.000  C
  C37      1.0000 0.80120  0.60780  0.54470  Biso   1.000  C
  C38      1.0000 0.69880  0.10780  0.95530  Biso   1.000  C
  C39      1.0000 0.19880  0.39220  0.45530  Biso   1.000  C
  C40      1.0000 0.30120  0.89220  0.04470  Biso   1.000  C
  C41      1.0000 0.83700  0.76180  0.57340  Biso   1.000  C
  C42      1.0000 0.66300  0.26180  0.92660  Biso   1.000  C
  C43      1.0000 0.16300  0.23820  0.42660  Biso   1.000  C
  C44      1.0000 0.33700  0.73820  0.07340  Biso   1.000  C
  C45      1.0000 0.77900  0.88270  0.58960  Biso   1.000  C
  C46      1.0000 0.72100  0.38270  0.91040  Biso   1.000  C
  C47      1.0000 0.22100  0.11730  0.41040  Biso   1.000  C
  C48      1.0000 0.27900  0.61730  0.08960  Biso   1.000  C
  C49      1.0000 0.87210  0.45190  0.54250  Biso   1.000  C
  C50      1.0000 0.62790  0.95190  0.95750  Biso   1.000  C
  C51      1.0000 0.12790  0.54810  0.45750  Biso   1.000  C
  C52      1.0000 0.37210  0.04810  0.04250  Biso   1.000  C
  C53      1.0000 0.86550  0.46000  0.45070  Biso   1.000  C
  C54      1.0000 0.63450  0.96000  0.04930  Biso   1.000  C
  C55      1.0000 0.13450  0.54000  0.54930  Biso   1.000  C
  C56      1.0000 0.36550  0.04000  0.95070  Biso   1.000  C
  H1       1.0000 0.44920  0.03190  0.70250  Biso   1.000  H
  H2       1.0000 0.05080  0.53190  0.79750  Biso   1.000  H
  H3       1.0000 0.55080  0.96810  0.29750  Biso   1.000  H
  H4       1.0000 0.94920  0.46810  0.20250  Biso   1.000  H
  H5       1.0000 0.36490  0.21840  0.75890  Biso   1.000  H
  H6       1.0000 0.13510  0.71840  0.74110  Biso   1.000  H
  H7       1.0000 0.63510  0.78160  0.24110  Biso   1.000  H
  H8       1.0000 0.86490  0.28160  0.25890  Biso   1.000  H
  H9       1.0000 0.51260  0.58280  0.69470  Biso   1.000  H
  H10      1.0000 0.98740  0.08280  0.80530  Biso   1.000  H
  H11      1.0000 0.48740  0.41720  0.30530  Biso   1.000  H
  H12      1.0000 0.01260  0.91720  0.19470  Biso   1.000  H
  H13      1.0000 0.59140  0.38950  0.63700  Biso   1.000  H
  H14      1.0000 0.90860  0.88950  0.86300  Biso   1.000  H
  H15      1.0000 0.40860  0.61050  0.36300  Biso   1.000  H
  H16      1.0000 0.09140  0.11050  0.13700  Biso   1.000  H
  H17      1.0000 0.37890  0.65170  0.74610  Biso   1.000  H
  H18      1.0000 0.12110  0.15170  0.75390  Biso   1.000  H
  H19      1.0000 0.62110  0.34830  0.25390  Biso   1.000  H
  H20      1.0000 0.87890  0.84830  0.24610  Biso   1.000  H
  H21      1.0000 0.30890  0.51230  0.75510  Biso   1.000  H
  H22      1.0000 0.19110  0.01230  0.74490  Biso   1.000  H
  H23      1.0000 0.69110  0.48770  0.24490  Biso   1.000  H
  H24      1.0000 0.80890  0.98770  0.25510  Biso   1.000  H
  H25      1.0000 0.36320  0.50600  0.88870  Biso   1.000  H
  H26      1.0000 0.13680  0.00600  0.61130  Biso   1.000  H
  H27      1.0000 0.63680  0.49400  0.11130  Biso   1.000  H
  H28      1.0000 0.86320  0.99400  0.38870  Biso   1.000  H
  H29      1.0000 0.40100  0.68250  0.87590  Biso   1.000  H
  H30      1.0000 0.09900  0.18250  0.62410  Biso   1.000  H
  H31      1.0000 0.59900  0.31750  0.12410  Biso   1.000  H
  H32      1.0000 0.90100  0.81750  0.37590  Biso   1.000  H
  H33      1.0000 0.46990  0.52900  0.89000  Biso   1.000  H
  H34      1.0000 0.03010  0.02900  0.61000  Biso   1.000  H
  H35      1.0000 0.53010  0.47100  0.11000  Biso   1.000  H
  H36      1.0000 0.96990  0.97100  0.39000  Biso   1.000  H
  H37      1.0000 0.58500  0.68800  0.53710  Biso   1.000  H
  H38      1.0000 0.91500  0.18800  0.96290  Biso   1.000  H
  H39      1.0000 0.41500  0.31200  0.46290  Biso   1.000  H
  H40      1.0000 0.08500  0.81200  0.03710  Biso   1.000  H
  H41      1.0000 0.67710  0.48350  0.50830  Biso   1.000  H
  H42      1.0000 0.82290  0.98350  0.99170  Biso   1.000  H
  H43      1.0000 0.32290  0.51650  0.49170  Biso   1.000  H
  H44      1.0000 0.17710  0.01650  0.00830  Biso   1.000  H
  H45      1.0000 0.90160  0.78500  0.58210  Biso   1.000  H
  H46      1.0000 0.59840  0.28500  0.91790  Biso   1.000  H
  H47      1.0000 0.09840  0.21500  0.41790  Biso   1.000  H
  H48      1.0000 0.40160  0.71500  0.08210  Biso   1.000  H
  H49      1.0000 0.80560  0.98630  0.60950  Biso   1.000  H
  H50      1.0000 0.69440  0.48630  0.89050  Biso   1.000  H
  H51      1.0000 0.19440  0.01370  0.39050  Biso   1.000  H
  H52      1.0000 0.30560  0.51370  0.10950  Biso   1.000  H
  H53      1.0000 0.93790  0.46920  0.58440  Biso   1.000  H
  H54      1.0000 0.56210  0.96920  0.91560  Biso   1.000  H
  H55      1.0000 0.06210  0.53080  0.41560  Biso   1.000  H
  H56      1.0000 0.43790  0.03080  0.08440  Biso   1.000  H
  H57      1.0000 0.84760  0.34790  0.55750  Biso   1.000  H
  H58      1.0000 0.65240  0.84790  0.94250  Biso   1.000  H
  H59      1.0000 0.15240  0.65210  0.44250  Biso   1.000  H
  H60      1.0000 0.34760  0.15210  0.05750  Biso   1.000  H
  H61      1.0000 0.90390  0.37340  0.43730  Biso   1.000  H
  H62      1.0000 0.59610  0.87340  0.06270  Biso   1.000  H
  H63      1.0000 0.09610  0.62660  0.56270  Biso   1.000  H
  H64      1.0000 0.40390  0.12660  0.93730  Biso   1.000  H
  H65      1.0000 0.88900  0.56550  0.43830  Biso   1.000  H
  H66      1.0000 0.61100  0.06550  0.06170  Biso   1.000  H
  H67      1.0000 0.11100  0.43450  0.56170  Biso   1.000  H
  H68      1.0000 0.38900  0.93450  0.93830  Biso   1.000  H
  H69      1.0000 0.79920  0.44680  0.41160  Biso   1.000  H
  H70      1.0000 0.70080  0.94680  0.08840  Biso   1.000  H
  H71      1.0000 0.20080  0.55320  0.58840  Biso   1.000  H
  H72      1.0000 0.29920  0.05320  0.91160  Biso   1.000  H
