data_image0
_cell_length_a       8.16
_cell_length_b       7.4832
_cell_length_c       14.269
_cell_angle_alpha    96.305
_cell_angle_beta     94.278
_cell_angle_gamma    99.22

_symmetry_space_group_name_H-M    "P 1"
_symmetry_int_tables_number       1

loop_
  _symmetry_equiv_pos_as_xyz
  'x, y, z'

loop_
  _atom_site_label
  _atom_site_occupancy
  _atom_site_fract_x
  _atom_site_fract_y
  _atom_site_fract_z
  _atom_site_thermal_displace_type
  _atom_site_B_iso_or_equiv
  _atom_site_type_symbol
  Cu1      1.0000 0.79659  0.26459  0.77466  Biso   1.000  Cu
  Cu2      1.0000 0.20341  0.73541  0.22534  Biso   1.000  Cu
  N1       1.0000 0.62870  0.27140  0.87431  Biso   1.000  N
  N2       1.0000 0.37130  0.72860  0.12569  Biso   1.000  N
  C1       1.0000 0.48890  0.32850  0.84140  Biso   1.000  C
  C2       1.0000 0.51110  0.67150  0.15860  Biso   1.000  C
  C3       1.0000 0.35370  0.33370  0.89340  Biso   1.000  C
  C4       1.0000 0.64630  0.66630  0.10660  Biso   1.000  C
  H1       1.0000 0.25830  0.37210  0.86900  Biso   1.000  H
  H2       1.0000 0.74170  0.62790  0.13100  Biso   1.000  H
  C5       1.0000 0.36420  0.28030  0.98240  Biso   1.000  C
  C6       1.0000 0.63580  0.71970  0.01760  Biso   1.000  C
  H3       1.0000 0.27420  0.28050  0.01870  Biso   1.000  H
  H4       1.0000 0.72580  0.71950  0.98130  Biso   1.000  H
  C7       1.0000 0.50590  0.22730  0.01770  Biso   1.000  C
  C8       1.0000 0.49410  0.77270  0.98230  Biso   1.000  C
  H5       1.0000 0.51460  0.19430  0.07860  Biso   1.000  H
  H6       1.0000 0.48540  0.80570  0.92140  Biso   1.000  H
  C9       1.0000 0.63820  0.22300  0.96120  Biso   1.000  C
  C10      1.0000 0.36180  0.77700  0.03880  Biso   1.000  C
  H7       1.0000 0.73470  0.18560  0.98480  Biso   1.000  H
  H8       1.0000 0.26530  0.81440  0.01520  Biso   1.000  H
  C11      1.0000 0.49410  0.37850  0.74520  Biso   1.000  C
  C12      1.0000 0.50590  0.62150  0.25480  Biso   1.000  C
  H9       1.0000 0.40640  0.42310  0.71550  Biso   1.000  H
  H10      1.0000 0.59360  0.57690  0.28450  Biso   1.000  H
  N3       1.0000 0.62110  0.35870  0.70505  Biso   1.000  N
  N4       1.0000 0.37890  0.64130  0.29495  Biso   1.000  N
  C13      1.0000 0.64450  0.38830  0.60690  Biso   1.000  C
  C14      1.0000 0.35550  0.61170  0.39310  Biso   1.000  C
  H11      1.0000 0.61180  0.50280  0.59380  Biso   1.000  H
  H12      1.0000 0.38820  0.49720  0.40620  Biso   1.000  H
  H13      1.0000 0.57750  0.29030  0.56350  Biso   1.000  H
  H14      1.0000 0.42250  0.70970  0.43650  Biso   1.000  H
  C15      1.0000 0.82730  0.39260  0.59580  Biso   1.000  C
  C16      1.0000 0.17270  0.60740  0.40420  Biso   1.000  C
  H15      1.0000 0.84470  0.37640  0.52910  Biso   1.000  H
  H16      1.0000 0.15530  0.62360  0.47090  Biso   1.000  H
  H17      1.0000 0.89030  0.50980  0.62390  Biso   1.000  H
  H18      1.0000 0.10970  0.49020  0.37610  Biso   1.000  H
  N5       1.0000 0.88620  0.24420  0.64340  Biso   1.000  N
  N6       1.0000 0.11380  0.75580  0.35660  Biso   1.000  N
  C17      1.0000 0.81810  0.06050  0.59220  Biso   1.000  C
  C18      1.0000 0.18190  0.93950  0.40780  Biso   1.000  C
  H19      1.0000 0.69850  0.04070  0.58940  Biso   1.000  H
  H20      1.0000 0.30150  0.95930  0.41060  Biso   1.000  H
  H21      1.0000 0.85960  0.96930  0.62510  Biso   1.000  H
  H22      1.0000 0.14040  0.03070  0.37490  Biso   1.000  H
  H23      1.0000 0.85200  0.05290  0.52910  Biso   1.000  H
  H24      1.0000 0.14800  0.94710  0.47090  Biso   1.000  H
  C19      1.0000 0.07090  0.27400  0.64740  Biso   1.000  C
  C20      1.0000 0.92910  0.72600  0.35260  Biso   1.000  C
  H25      1.0000 0.11550  0.39260  0.68050  Biso   1.000  H
  H26      1.0000 0.88450  0.60740  0.31950  Biso   1.000  H
  H27      1.0000 0.10440  0.26630  0.58420  Biso   1.000  H
  H28      1.0000 0.89560  0.73370  0.41580  Biso   1.000  H
  H29      1.0000 0.11220  0.18250  0.68010  Biso   1.000  H
  H30      1.0000 0.88780  0.81750  0.31990  Biso   1.000  H
  N7       1.0000 0.92120  0.09250  0.82825  Biso   1.000  N
  N8       1.0000 0.07880  0.90750  0.17175  Biso   1.000  N
  C21      1.0000 0.96200  0.96950  0.85720  Biso   1.000  C
  C22      1.0000 0.03800  0.03050  0.14280  Biso   1.000  C
  N9       1.0000 0.01480  0.84230  0.89915  Biso   1.000  N
  N10      1.0000 0.98520  0.15770  0.10085  Biso   1.000  N
  C23      1.0000 0.98160  0.67340  0.85949  Biso   1.000  C
  C24      1.0000 0.01840  0.32660  0.14051  Biso   1.000  C
  N11      1.0000 0.95830  0.52100  0.83326  Biso   1.000  N
  N12      1.0000 0.04170  0.47900  0.16674  Biso   1.000  N
  Cl1      1.0000 0.35674  0.83485  0.68323  Biso   1.000  Cl
  Cl2      1.0000 0.64326  0.16515  0.31677  Biso   1.000  Cl
  O1       1.0000 0.40600  0.71310  0.61710  Biso   1.000  O
  O2       1.0000 0.59400  0.28690  0.38290  Biso   1.000  O
  O3       1.0000 0.30800  0.67390  0.64140  Biso   1.000  O
  O4       1.0000 0.69200  0.32610  0.35860  Biso   1.000  O
  O5       1.0000 0.37840  0.98810  0.63870  Biso   1.000  O
  O6       1.0000 0.62160  0.01190  0.36130  Biso   1.000  O
  O7       1.0000 0.16050  0.80000  0.66510  Biso   1.000  O
  O8       1.0000 0.83950  0.20000  0.33490  Biso   1.000  O
  O9       1.0000 0.52260  0.86130  0.74330  Biso   1.000  O
  O10      1.0000 0.47740  0.13870  0.25670  Biso   1.000  O
  O11      1.0000 0.33300  0.75200  0.76320  Biso   1.000  O
  O12      1.0000 0.66700  0.24800  0.23680  Biso   1.000  O
  O13      1.0000 0.31200  0.91700  0.76240  Biso   1.000  O
  O14      1.0000 0.68800  0.08300  0.23760  Biso   1.000  O
