data_image0
_cell_length_a       7.618
_cell_length_b       8.232
_cell_length_c       12.288
_cell_angle_alpha    87.21
_cell_angle_beta     72.07
_cell_angle_gamma    66.48

_symmetry_space_group_name_H-M    "P 1"
_symmetry_int_tables_number       1

loop_
  _symmetry_equiv_pos_as_xyz
  'x, y, z'

loop_
  _atom_site_label
  _atom_site_occupancy
  _atom_site_fract_x
  _atom_site_fract_y
  _atom_site_fract_z
  _atom_site_thermal_displace_type
  _atom_site_B_iso_or_equiv
  _atom_site_type_symbol
  Cu1      1.0000 0.00000  0.00000  0.00000  Biso   1.000  Cu
  O1       1.0000 0.03793  0.08354  0.84654  Biso   1.000  O
  O2       1.0000 0.96207  0.91646  0.15346  Biso   1.000  O
  O3       1.0000 0.42340  0.04795  0.24578  Biso   1.000  O
  O4       1.0000 0.57660  0.95205  0.75422  Biso   1.000  O
  O5       1.0000 0.99176  0.89108  0.74534  Biso   1.000  O
  O6       1.0000 0.00824  0.10892  0.25466  Biso   1.000  O
  O7       1.0000 0.34600  0.83250  0.32331  Biso   1.000  O
  O8       1.0000 0.65400  0.16750  0.67669  Biso   1.000  O
  N1       1.0000 0.29150  0.81859  0.94999  Biso   1.000  N
  N2       1.0000 0.70850  0.18141  0.05001  Biso   1.000  N
  N3       1.0000 0.35420  0.97801  0.32853  Biso   1.000  N
  N4       1.0000 0.64580  0.02199  0.67147  Biso   1.000  N
  O9       1.0000 0.28070  0.51538  0.66304  Biso   1.000  O
  O10      1.0000 0.71930  0.48462  0.33696  Biso   1.000  O
  C1       1.0000 0.62010  0.69820  0.97405  Biso   1.000  C
  C2       1.0000 0.37990  0.30180  0.02595  Biso   1.000  C
  C3       1.0000 0.35980  0.69070  0.86455  Biso   1.000  C
  C4       1.0000 0.64020  0.30930  0.13545  Biso   1.000  C
  C5       1.0000 0.13640  0.08680  0.64675  Biso   1.000  C
  C6       1.0000 0.86360  0.91320  0.35325  Biso   1.000  C
  O11      1.0000 0.28540  0.56423  0.48696  Biso   1.000  O
  O12      1.0000 0.71460  0.43577  0.51304  Biso   1.000  O
  C7       1.0000 0.19610  0.99990  0.53859  Biso   1.000  C
  C8       1.0000 0.80390  0.00010  0.46141  Biso   1.000  C
  C9       1.0000 0.16590  0.24160  0.65670  Biso   1.000  C
  C10      1.0000 0.83410  0.75840  0.34330  Biso   1.000  C
  C11      1.0000 0.04640  0.01150  0.75442  Biso   1.000  C
  C12      1.0000 0.95360  0.98850  0.24558  Biso   1.000  C
  C13      1.0000 0.42090  0.82090  0.00329  Biso   1.000  C
  C14      1.0000 0.57910  0.17910  0.99671  Biso   1.000  C
  C15      1.0000 0.68610  0.56250  0.88843  Biso   1.000  C
  C16      1.0000 0.31390  0.43750  0.11157  Biso   1.000  C
  C17      1.0000 0.27920  0.07340  0.44310  Biso   1.000  C
  C18      1.0000 0.72080  0.92660  0.55690  Biso   1.000  C
  N5       1.0000 0.27190  0.47690  0.57041  Biso   1.000  N
  N6       1.0000 0.72810  0.52310  0.42959  Biso   1.000  N
  C19      1.0000 0.55430  0.55960  0.83266  Biso   1.000  C
  C20      1.0000 0.44570  0.44040  0.16734  Biso   1.000  C
  C21      1.0000 0.24400  0.31140  0.55835  Biso   1.000  C
  C22      1.0000 0.75600  0.68860  0.44165  Biso   1.000  C
  C23      1.0000 0.30160  0.23200  0.44923  Biso   1.000  C
  C24      1.0000 0.69840  0.76800  0.55077  Biso   1.000  C
  C25      1.0000 0.76010  0.71340  0.03277  Biso   1.000  C
  C26      1.0000 0.23990  0.28660  0.96723  Biso   1.000  C
  O13      1.0000 0.91908  0.75443  0.95556  Biso   1.000  O
  O14      1.0000 0.08092  0.24557  0.04444  Biso   1.000  O
  H1       1.0000 0.59400  0.47300  0.77560  Biso   1.000  H
  H2       1.0000 0.40600  0.52700  0.22440  Biso   1.000  H
  H3       1.0000 0.68500  0.80800  0.09430  Biso   1.000  H
  H4       1.0000 0.31500  0.19200  0.90570  Biso   1.000  H
  H5       1.0000 0.36700  0.91200  0.06450  Biso   1.000  H
  H6       1.0000 0.63300  0.08800  0.93550  Biso   1.000  H
  H7       1.0000 0.81700  0.47300  0.86960  Biso   1.000  H
  H8       1.0000 0.18300  0.52700  0.13040  Biso   1.000  H
  H9       1.0000 0.18300  0.89700  0.52790  Biso   1.000  H
  H10      1.0000 0.81700  0.10300  0.47210  Biso   1.000  H
  H11      1.0000 0.26200  0.69600  0.82810  Biso   1.000  H
  H12      1.0000 0.73800  0.30400  0.17190  Biso   1.000  H
  H13      1.0000 0.82600  0.60200  0.06290  Biso   1.000  H
  H14      1.0000 0.17400  0.39800  0.93710  Biso   1.000  H
  H15      1.0000 0.13700  0.29500  0.72600  Biso   1.000  H
  H16      1.0000 0.86300  0.70500  0.27400  Biso   1.000  H
  H17      1.0000 0.35100  0.27700  0.38700  Biso   1.000  H
  H18      1.0000 0.64900  0.72300  0.61300  Biso   1.000  H
  H19      1.0000 0.90100  0.78400  0.89300  Biso   1.000  H
  H20      1.0000 0.09900  0.21600  0.10700  Biso   1.000  H
