data_image0
_cell_length_a       12.1931
_cell_length_b       17.2484
_cell_length_c       22.1135
_cell_angle_alpha    90
_cell_angle_beta     90
_cell_angle_gamma    90

_symmetry_space_group_name_H-M    "P 1"
_symmetry_int_tables_number       1

loop_
  _symmetry_equiv_pos_as_xyz
  'x, y, z'

loop_
  _atom_site_label
  _atom_site_occupancy
  _atom_site_fract_x
  _atom_site_fract_y
  _atom_site_fract_z
  _atom_site_thermal_displace_type
  _atom_site_B_iso_or_equiv
  _atom_site_type_symbol
  Cu1      1.0000 0.50000  0.00000  0.50000  Biso   1.000  Cu
  Cu2      1.0000 0.00000  0.00000  0.00000  Biso   1.000  Cu
  Cu3      1.0000 0.00000  0.50000  0.50000  Biso   1.000  Cu
  Cu4      1.0000 0.50000  0.50000  0.00000  Biso   1.000  Cu
  Cu5      1.0000 0.48972  0.19300  0.47419  Biso   1.000  Cu
  Cu6      1.0000 0.01028  0.80700  0.97419  Biso   1.000  Cu
  Cu7      1.0000 0.98972  0.30700  0.52581  Biso   1.000  Cu
  Cu8      1.0000 0.51028  0.69300  0.02581  Biso   1.000  Cu
  Cu9      1.0000 0.51028  0.80700  0.52581  Biso   1.000  Cu
  Cu10     1.0000 0.98972  0.19300  0.02581  Biso   1.000  Cu
  Cu11     1.0000 0.01028  0.69300  0.47419  Biso   1.000  Cu
  Cu12     1.0000 0.48972  0.30700  0.97419  Biso   1.000  Cu
  O1       1.0000 0.48290  0.10369  0.52422  Biso   1.000  O
  O2       1.0000 0.01710  0.89631  0.02422  Biso   1.000  O
  O3       1.0000 0.98290  0.39631  0.47578  Biso   1.000  O
  O4       1.0000 0.51710  0.60369  0.97578  Biso   1.000  O
  O5       1.0000 0.51710  0.89631  0.47578  Biso   1.000  O
  O6       1.0000 0.98290  0.10369  0.97578  Biso   1.000  O
  O7       1.0000 0.01710  0.60369  0.52422  Biso   1.000  O
  O8       1.0000 0.48290  0.39631  0.02422  Biso   1.000  O
  H1       1.0000 0.44440  0.11290  0.55590  Biso   1.000  H
  H2       1.0000 0.05560  0.88710  0.05590  Biso   1.000  H
  H3       1.0000 0.94440  0.38710  0.44410  Biso   1.000  H
  H4       1.0000 0.55560  0.61290  0.94410  Biso   1.000  H
  H5       1.0000 0.55560  0.88710  0.44410  Biso   1.000  H
  H6       1.0000 0.94440  0.11290  0.94410  Biso   1.000  H
  H7       1.0000 0.05560  0.61290  0.55590  Biso   1.000  H
  H8       1.0000 0.44440  0.38710  0.05590  Biso   1.000  H
  O9       1.0000 0.67630  0.19196  0.47758  Biso   1.000  O
  O10      1.0000 0.82370  0.80804  0.97758  Biso   1.000  O
  O11      1.0000 0.17630  0.30804  0.52242  Biso   1.000  O
  O12      1.0000 0.32370  0.69196  0.02242  Biso   1.000  O
  O13      1.0000 0.32370  0.80804  0.52242  Biso   1.000  O
  O14      1.0000 0.17630  0.19196  0.02242  Biso   1.000  O
  O15      1.0000 0.82370  0.69196  0.47758  Biso   1.000  O
  O16      1.0000 0.67630  0.30804  0.97758  Biso   1.000  O
  H9       1.0000 0.69980  0.14790  0.49020  Biso   1.000  H
  H10      1.0000 0.80020  0.85210  0.99020  Biso   1.000  H
  H11      1.0000 0.19980  0.35210  0.50980  Biso   1.000  H
  H12      1.0000 0.30020  0.64790  0.00980  Biso   1.000  H
  H13      1.0000 0.30020  0.85210  0.50980  Biso   1.000  H
  H14      1.0000 0.19980  0.14790  0.00980  Biso   1.000  H
  H15      1.0000 0.80020  0.64790  0.49020  Biso   1.000  H
  H16      1.0000 0.69980  0.35210  0.99020  Biso   1.000  H
  H17      1.0000 0.70010  0.22650  0.50200  Biso   1.000  H
  H18      1.0000 0.79990  0.77350  0.00200  Biso   1.000  H
  H19      1.0000 0.20010  0.27350  0.49800  Biso   1.000  H
  H20      1.0000 0.29990  0.72650  0.99800  Biso   1.000  H
  H21      1.0000 0.29990  0.77350  0.49800  Biso   1.000  H
  H22      1.0000 0.20010  0.22650  0.99800  Biso   1.000  H
  H23      1.0000 0.79990  0.72650  0.50200  Biso   1.000  H
  H24      1.0000 0.70010  0.27350  0.00200  Biso   1.000  H
  O17      1.0000 0.27060  0.20150  0.45104  Biso   1.000  O
  O18      1.0000 0.22940  0.79850  0.95104  Biso   1.000  O
  O19      1.0000 0.77060  0.29850  0.54896  Biso   1.000  O
  O20      1.0000 0.72940  0.70150  0.04896  Biso   1.000  O
  O21      1.0000 0.72940  0.79850  0.54896  Biso   1.000  O
  O22      1.0000 0.77060  0.20150  0.04896  Biso   1.000  O
  O23      1.0000 0.22940  0.70150  0.45104  Biso   1.000  O
  O24      1.0000 0.27060  0.29850  0.95104  Biso   1.000  O
  H25      1.0000 0.24530  0.20430  0.41470  Biso   1.000  H
  H26      1.0000 0.25470  0.79570  0.91470  Biso   1.000  H
  H27      1.0000 0.74530  0.29570  0.58530  Biso   1.000  H
  H28      1.0000 0.75470  0.70430  0.08530  Biso   1.000  H
  H29      1.0000 0.75470  0.79570  0.58530  Biso   1.000  H
  H30      1.0000 0.74530  0.20430  0.08530  Biso   1.000  H
  H31      1.0000 0.25470  0.70430  0.41470  Biso   1.000  H
  H32      1.0000 0.24530  0.29570  0.91470  Biso   1.000  H
  H33      1.0000 0.23980  0.16200  0.46740  Biso   1.000  H
  H34      1.0000 0.26020  0.83800  0.96740  Biso   1.000  H
  H35      1.0000 0.73980  0.33800  0.53260  Biso   1.000  H
  H36      1.0000 0.76020  0.66200  0.03260  Biso   1.000  H
  H37      1.0000 0.76020  0.83800  0.53260  Biso   1.000  H
  H38      1.0000 0.73980  0.16200  0.03260  Biso   1.000  H
  H39      1.0000 0.26020  0.66200  0.46740  Biso   1.000  H
  H40      1.0000 0.23980  0.33800  0.96740  Biso   1.000  H
  N1       1.0000 0.48900  0.03741  0.41397  Biso   1.000  N
  N2       1.0000 0.01100  0.96259  0.91397  Biso   1.000  N
  N3       1.0000 0.98900  0.46259  0.58603  Biso   1.000  N
  N4       1.0000 0.51100  0.53741  0.08603  Biso   1.000  N
  N5       1.0000 0.51100  0.96259  0.58603  Biso   1.000  N
  N6       1.0000 0.98900  0.03741  0.08603  Biso   1.000  N
  N7       1.0000 0.01100  0.53741  0.41397  Biso   1.000  N
  N8       1.0000 0.48900  0.46259  0.91397  Biso   1.000  N
  N9       1.0000 0.48410  0.11565  0.40230  Biso   1.000  N
  N10      1.0000 0.01590  0.88435  0.90230  Biso   1.000  N
  N11      1.0000 0.98410  0.38435  0.59770  Biso   1.000  N
  N12      1.0000 0.51590  0.61565  0.09770  Biso   1.000  N
  N13      1.0000 0.51590  0.88435  0.59770  Biso   1.000  N
  N14      1.0000 0.98410  0.11565  0.09770  Biso   1.000  N
  N15      1.0000 0.01590  0.61565  0.40230  Biso   1.000  N
  N16      1.0000 0.48410  0.38435  0.90230  Biso   1.000  N
  N17      1.0000 0.44200  0.05279  0.31941  Biso   1.000  N
  N18      1.0000 0.05800  0.94721  0.81941  Biso   1.000  N
  N19      1.0000 0.94200  0.44721  0.68059  Biso   1.000  N
  N20      1.0000 0.55800  0.55279  0.18059  Biso   1.000  N
  N21      1.0000 0.55800  0.94721  0.68059  Biso   1.000  N
  N22      1.0000 0.94200  0.05279  0.18059  Biso   1.000  N
  N23      1.0000 0.05800  0.55279  0.31941  Biso   1.000  N
  N24      1.0000 0.44200  0.44721  0.81941  Biso   1.000  N
  N25      1.0000 0.59570  0.79740  0.11840  Biso   1.000  N
  N26      1.0000 0.90430  0.20260  0.61840  Biso   1.000  N
  N27      1.0000 0.09570  0.70260  0.88160  Biso   1.000  N
  N28      1.0000 0.40430  0.29740  0.38160  Biso   1.000  N
  N29      1.0000 0.40430  0.20260  0.88160  Biso   1.000  N
  N30      1.0000 0.09570  0.79740  0.38160  Biso   1.000  N
  N31      1.0000 0.90430  0.29740  0.11840  Biso   1.000  N
  N32      1.0000 0.59570  0.70260  0.61840  Biso   1.000  N
  N33      1.0000 0.50550  0.78390  0.08217  Biso   1.000  N
  N34      1.0000 0.99450  0.21610  0.58217  Biso   1.000  N
  N35      1.0000 0.00550  0.71610  0.91783  Biso   1.000  N
  N36      1.0000 0.49450  0.28390  0.41783  Biso   1.000  N
  N37      1.0000 0.49450  0.21610  0.91783  Biso   1.000  N
  N38      1.0000 0.00550  0.78390  0.41783  Biso   1.000  N
  N39      1.0000 0.99450  0.28390  0.08217  Biso   1.000  N
  N40      1.0000 0.50550  0.71610  0.58217  Biso   1.000  N
  N41      1.0000 0.47240  0.88503  0.13859  Biso   1.000  N
  N42      1.0000 0.02760  0.11497  0.63859  Biso   1.000  N
  N43      1.0000 0.97240  0.61497  0.86141  Biso   1.000  N
  N44      1.0000 0.52760  0.38503  0.36141  Biso   1.000  N
  N45      1.0000 0.52760  0.11497  0.86141  Biso   1.000  N
  N46      1.0000 0.97240  0.88503  0.36141  Biso   1.000  N
  N47      1.0000 0.02760  0.38503  0.13859  Biso   1.000  N
  N48      1.0000 0.47240  0.61497  0.63859  Biso   1.000  N
  N49      1.0000 0.37930  0.28633  0.09054  Biso   1.000  N
  N50      1.0000 0.12070  0.71367  0.59054  Biso   1.000  N
  N51      1.0000 0.87930  0.21367  0.90946  Biso   1.000  N
  N52      1.0000 0.62070  0.78633  0.40946  Biso   1.000  N
  N53      1.0000 0.62070  0.71367  0.90946  Biso   1.000  N
  N54      1.0000 0.87930  0.28633  0.40946  Biso   1.000  N
  N55      1.0000 0.12070  0.78633  0.09054  Biso   1.000  N
  N56      1.0000 0.37930  0.21367  0.59054  Biso   1.000  N
  N57      1.0000 0.43790  0.24560  0.04711  Biso   1.000  N
  N58      1.0000 0.06210  0.75440  0.54711  Biso   1.000  N
  N59      1.0000 0.93790  0.25440  0.95289  Biso   1.000  N
  N60      1.0000 0.56210  0.74560  0.45289  Biso   1.000  N
  N61      1.0000 0.56210  0.75440  0.95289  Biso   1.000  N
  N62      1.0000 0.93790  0.24560  0.45289  Biso   1.000  N
  N63      1.0000 0.06210  0.74560  0.04711  Biso   1.000  N
  N64      1.0000 0.43790  0.25440  0.54711  Biso   1.000  N
  N65      1.0000 0.39130  0.16394  0.11745  Biso   1.000  N
  N66      1.0000 0.10870  0.83606  0.61745  Biso   1.000  N
  N67      1.0000 0.89130  0.33606  0.88255  Biso   1.000  N
  N68      1.0000 0.60870  0.66394  0.38255  Biso   1.000  N
  N69      1.0000 0.60870  0.83606  0.88255  Biso   1.000  N
  N70      1.0000 0.89130  0.16394  0.38255  Biso   1.000  N
  N71      1.0000 0.10870  0.66394  0.11745  Biso   1.000  N
  N72      1.0000 0.39130  0.33606  0.61745  Biso   1.000  N
  N73      1.0000 0.23650  0.00469  0.19731  Biso   1.000  N
  N74      1.0000 0.26350  0.99531  0.69731  Biso   1.000  N
  N75      1.0000 0.73650  0.49531  0.80269  Biso   1.000  N
  N76      1.0000 0.76350  0.50469  0.30269  Biso   1.000  N
  N77      1.0000 0.76350  0.99531  0.80269  Biso   1.000  N
  N78      1.0000 0.73650  0.00469  0.30269  Biso   1.000  N
  N79      1.0000 0.26350  0.50469  0.19731  Biso   1.000  N
  N80      1.0000 0.23650  0.49531  0.69731  Biso   1.000  N
  C1       1.0000 0.46320  0.00132  0.36395  Biso   1.000  C
  C2       1.0000 0.03680  0.99868  0.86395  Biso   1.000  C
  C3       1.0000 0.96320  0.49868  0.63605  Biso   1.000  C
  C4       1.0000 0.53680  0.50132  0.13605  Biso   1.000  C
  C5       1.0000 0.53680  0.99868  0.63605  Biso   1.000  C
  C6       1.0000 0.96320  0.00132  0.13605  Biso   1.000  C
  C7       1.0000 0.03680  0.50132  0.36395  Biso   1.000  C
  C8       1.0000 0.46320  0.49868  0.86395  Biso   1.000  C
  H41      1.0000 0.46000  0.95100  0.35990  Biso   1.000  H
  H42      1.0000 0.04000  0.04900  0.85990  Biso   1.000  H
  H43      1.0000 0.96000  0.54900  0.64010  Biso   1.000  H
  H44      1.0000 0.54000  0.45100  0.14010  Biso   1.000  H
  H45      1.0000 0.54000  0.04900  0.64010  Biso   1.000  H
  H46      1.0000 0.96000  0.95100  0.14010  Biso   1.000  H
  H47      1.0000 0.04000  0.45100  0.35990  Biso   1.000  H
  H48      1.0000 0.46000  0.54900  0.85990  Biso   1.000  H
  C9       1.0000 0.45600  0.12312  0.34569  Biso   1.000  C
  C10      1.0000 0.04400  0.87688  0.84569  Biso   1.000  C
  C11      1.0000 0.95600  0.37688  0.65431  Biso   1.000  C
  C12      1.0000 0.54400  0.62312  0.15431  Biso   1.000  C
  C13      1.0000 0.54400  0.87688  0.65431  Biso   1.000  C
  C14      1.0000 0.95600  0.12312  0.15431  Biso   1.000  C
  C15      1.0000 0.04400  0.62312  0.34569  Biso   1.000  C
  C16      1.0000 0.45600  0.37688  0.84569  Biso   1.000  C
  H49      1.0000 0.44750  0.16700  0.32740  Biso   1.000  H
  H50      1.0000 0.05250  0.83300  0.82740  Biso   1.000  H
  H51      1.0000 0.94750  0.33300  0.67260  Biso   1.000  H
  H52      1.0000 0.55250  0.66700  0.17260  Biso   1.000  H
  H53      1.0000 0.55250  0.83300  0.67260  Biso   1.000  H
  H54      1.0000 0.94750  0.16700  0.17260  Biso   1.000  H
  H55      1.0000 0.05250  0.66700  0.32740  Biso   1.000  H
  H56      1.0000 0.44750  0.33300  0.82740  Biso   1.000  H
  C17      1.0000 0.57150  0.85680  0.15080  Biso   1.000  C
  C18      1.0000 0.92850  0.14320  0.65080  Biso   1.000  C
  C19      1.0000 0.07150  0.64320  0.84920  Biso   1.000  C
  C20      1.0000 0.42850  0.35680  0.34920  Biso   1.000  C
  C21      1.0000 0.42850  0.14320  0.84920  Biso   1.000  C
  C22      1.0000 0.07150  0.85680  0.34920  Biso   1.000  C
  C23      1.0000 0.92850  0.35680  0.15080  Biso   1.000  C
  C24      1.0000 0.57150  0.64320  0.65080  Biso   1.000  C
  H57      1.0000 0.62200  0.87940  0.18200  Biso   1.000  H
  H58      1.0000 0.87800  0.12060  0.68200  Biso   1.000  H
  H59      1.0000 0.12200  0.62060  0.81800  Biso   1.000  H
  H60      1.0000 0.37800  0.37940  0.31800  Biso   1.000  H
  H61      1.0000 0.37800  0.12060  0.81800  Biso   1.000  H
  H62      1.0000 0.12200  0.87940  0.31800  Biso   1.000  H
  H63      1.0000 0.87800  0.37940  0.18200  Biso   1.000  H
  H64      1.0000 0.62200  0.62060  0.68200  Biso   1.000  H
  C25      1.0000 0.43200  0.83534  0.09683  Biso   1.000  C
  C26      1.0000 0.06800  0.16466  0.59683  Biso   1.000  C
  C27      1.0000 0.93200  0.66466  0.90317  Biso   1.000  C
  C28      1.0000 0.56800  0.33534  0.40317  Biso   1.000  C
  C29      1.0000 0.56800  0.16466  0.90317  Biso   1.000  C
  C30      1.0000 0.93200  0.83534  0.40317  Biso   1.000  C
  C31      1.0000 0.06800  0.33534  0.09683  Biso   1.000  C
  C32      1.0000 0.43200  0.66466  0.59683  Biso   1.000  C
  H65      1.0000 0.35600  0.83780  0.07960  Biso   1.000  H
  H66      1.0000 0.14400  0.16220  0.57960  Biso   1.000  H
  H67      1.0000 0.85600  0.66220  0.92040  Biso   1.000  H
  H68      1.0000 0.64400  0.33780  0.42040  Biso   1.000  H
  H69      1.0000 0.64400  0.16220  0.92040  Biso   1.000  H
  H70      1.0000 0.85600  0.83780  0.42040  Biso   1.000  H
  H71      1.0000 0.14400  0.33780  0.07960  Biso   1.000  H
  H72      1.0000 0.35600  0.66220  0.57960  Biso   1.000  H
  C33      1.0000 0.35330  0.23560  0.13184  Biso   1.000  C
  C34      1.0000 0.14670  0.76440  0.63184  Biso   1.000  C
  C35      1.0000 0.85330  0.26440  0.86816  Biso   1.000  C
  C36      1.0000 0.64670  0.73560  0.36816  Biso   1.000  C
  C37      1.0000 0.64670  0.76440  0.86816  Biso   1.000  C
  C38      1.0000 0.85330  0.23560  0.36816  Biso   1.000  C
  C39      1.0000 0.14670  0.73560  0.13184  Biso   1.000  C
  C40      1.0000 0.35330  0.26440  0.63184  Biso   1.000  C
  H73      1.0000 0.31200  0.24770  0.16860  Biso   1.000  H
  H74      1.0000 0.18800  0.75230  0.66860  Biso   1.000  H
  H75      1.0000 0.81200  0.25230  0.83140  Biso   1.000  H
  H76      1.0000 0.68800  0.74770  0.33140  Biso   1.000  H
  H77      1.0000 0.68800  0.75230  0.83140  Biso   1.000  H
  H78      1.0000 0.81200  0.24770  0.33140  Biso   1.000  H
  H79      1.0000 0.18800  0.74770  0.16860  Biso   1.000  H
  H80      1.0000 0.31200  0.25230  0.66860  Biso   1.000  H
  C41      1.0000 0.44430  0.17386  0.06440  Biso   1.000  C
  C42      1.0000 0.05570  0.82614  0.56440  Biso   1.000  C
  C43      1.0000 0.94430  0.32614  0.93560  Biso   1.000  C
  C44      1.0000 0.55570  0.67386  0.43560  Biso   1.000  C
  C45      1.0000 0.55570  0.82614  0.93560  Biso   1.000  C
  C46      1.0000 0.94430  0.17386  0.43560  Biso   1.000  C
  C47      1.0000 0.05570  0.67386  0.06440  Biso   1.000  C
  C48      1.0000 0.44430  0.32614  0.56440  Biso   1.000  C
  H81      1.0000 0.48050  0.13460  0.04310  Biso   1.000  H
  H82      1.0000 0.01950  0.86540  0.54310  Biso   1.000  H
  H83      1.0000 0.98050  0.36540  0.95690  Biso   1.000  H
  H84      1.0000 0.51950  0.63460  0.45690  Biso   1.000  H
  H85      1.0000 0.51950  0.86540  0.95690  Biso   1.000  H
  H86      1.0000 0.98050  0.13460  0.45690  Biso   1.000  H
  H87      1.0000 0.01950  0.63460  0.04310  Biso   1.000  H
  H88      1.0000 0.48050  0.36540  0.54310  Biso   1.000  H
  C49      1.0000 0.40140  0.03666  0.25712  Biso   1.000  C
  C50      1.0000 0.09860  0.96334  0.75712  Biso   1.000  C
  C51      1.0000 0.90140  0.46334  0.74288  Biso   1.000  C
  C52      1.0000 0.59860  0.53666  0.24288  Biso   1.000  C
  C53      1.0000 0.59860  0.96334  0.74288  Biso   1.000  C
  C54      1.0000 0.90140  0.03666  0.24288  Biso   1.000  C
  C55      1.0000 0.09860  0.53666  0.25712  Biso   1.000  C
  C56      1.0000 0.40140  0.46334  0.75712  Biso   1.000  C
  C57      1.0000 0.46360  0.96750  0.22969  Biso   1.000  C
  C58      1.0000 0.03640  0.03250  0.72969  Biso   1.000  C
  C59      1.0000 0.96360  0.53250  0.77031  Biso   1.000  C
  C60      1.0000 0.53640  0.46750  0.27031  Biso   1.000  C
  C61      1.0000 0.53640  0.03250  0.77031  Biso   1.000  C
  C62      1.0000 0.96360  0.96750  0.27031  Biso   1.000  C
  C63      1.0000 0.03640  0.46750  0.22969  Biso   1.000  C
  C64      1.0000 0.46360  0.53250  0.72969  Biso   1.000  C
  H89      1.0000 0.45440  0.92610  0.25220  Biso   1.000  H
  H90      1.0000 0.04560  0.07390  0.75220  Biso   1.000  H
  H91      1.0000 0.95440  0.57390  0.74780  Biso   1.000  H
  H92      1.0000 0.54560  0.42610  0.24780  Biso   1.000  H
  H93      1.0000 0.54560  0.07390  0.74780  Biso   1.000  H
  H94      1.0000 0.95440  0.92610  0.24780  Biso   1.000  H
  H95      1.0000 0.04560  0.42610  0.25220  Biso   1.000  H
  H96      1.0000 0.45440  0.57390  0.75220  Biso   1.000  H
  H97      1.0000 0.53400  0.97780  0.22774  Biso   1.000  H
  H98      1.0000 0.96600  0.02220  0.72774  Biso   1.000  H
  H99      1.0000 0.03400  0.52220  0.77226  Biso   1.000  H
  H100     1.0000 0.46600  0.47780  0.27226  Biso   1.000  H
  H101     1.0000 0.46600  0.02220  0.77226  Biso   1.000  H
  H102     1.0000 0.03400  0.97780  0.27226  Biso   1.000  H
  H103     1.0000 0.96600  0.47780  0.22774  Biso   1.000  H
  H104     1.0000 0.53400  0.52220  0.72774  Biso   1.000  H
  C65      1.0000 0.41730  0.95336  0.16570  Biso   1.000  C
  C66      1.0000 0.08270  0.04664  0.66570  Biso   1.000  C
  C67      1.0000 0.91730  0.54664  0.83430  Biso   1.000  C
  C68      1.0000 0.58270  0.45336  0.33430  Biso   1.000  C
  C69      1.0000 0.58270  0.04664  0.83430  Biso   1.000  C
  C70      1.0000 0.91730  0.95336  0.33430  Biso   1.000  C
  C71      1.0000 0.08270  0.45336  0.16570  Biso   1.000  C
  C72      1.0000 0.41730  0.54664  0.66570  Biso   1.000  C
  C73      1.0000 0.43810  0.02507  0.12595  Biso   1.000  C
  C74      1.0000 0.06190  0.97493  0.62595  Biso   1.000  C
  C75      1.0000 0.93810  0.47493  0.87405  Biso   1.000  C
  C76      1.0000 0.56190  0.52507  0.37405  Biso   1.000  C
  C77      1.0000 0.56190  0.97493  0.87405  Biso   1.000  C
  C78      1.0000 0.93810  0.02507  0.37405  Biso   1.000  C
  C79      1.0000 0.06190  0.52507  0.12595  Biso   1.000  C
  C80      1.0000 0.43810  0.47493  0.62595  Biso   1.000  C
  H105     1.0000 0.51600  0.03640  0.12428  Biso   1.000  H
  H106     1.0000 0.98400  0.96360  0.62428  Biso   1.000  H
  H107     1.0000 0.01600  0.46360  0.87572  Biso   1.000  H
  H108     1.0000 0.48400  0.53640  0.37572  Biso   1.000  H
  H109     1.0000 0.48400  0.96360  0.87572  Biso   1.000  H
  H110     1.0000 0.01600  0.03640  0.37572  Biso   1.000  H
  H111     1.0000 0.98400  0.53640  0.12428  Biso   1.000  H
  H112     1.0000 0.51600  0.46360  0.62428  Biso   1.000  H
  H113     1.0000 0.41220  0.01590  0.08530  Biso   1.000  H
  H114     1.0000 0.08780  0.98410  0.58530  Biso   1.000  H
  H115     1.0000 0.91220  0.48410  0.91470  Biso   1.000  H
  H116     1.0000 0.58780  0.51590  0.41470  Biso   1.000  H
  H117     1.0000 0.58780  0.98410  0.91470  Biso   1.000  H
  H118     1.0000 0.91220  0.01590  0.41470  Biso   1.000  H
  H119     1.0000 0.08780  0.51590  0.08530  Biso   1.000  H
  H120     1.0000 0.41220  0.48410  0.58530  Biso   1.000  H
  C81      1.0000 0.37580  0.09307  0.15437  Biso   1.000  C
  C82      1.0000 0.12420  0.90693  0.65437  Biso   1.000  C
  C83      1.0000 0.87580  0.40693  0.84563  Biso   1.000  C
  C84      1.0000 0.62420  0.59307  0.34563  Biso   1.000  C
  C85      1.0000 0.62420  0.90693  0.84563  Biso   1.000  C
  C86      1.0000 0.87580  0.09307  0.34563  Biso   1.000  C
  C87      1.0000 0.12420  0.59307  0.15437  Biso   1.000  C
  C88      1.0000 0.37580  0.40693  0.65437  Biso   1.000  C
  C89      1.0000 0.42050  0.10935  0.21811  Biso   1.000  C
  C90      1.0000 0.07950  0.89065  0.71811  Biso   1.000  C
  C91      1.0000 0.92050  0.39065  0.78189  Biso   1.000  C
  C92      1.0000 0.57950  0.60935  0.28189  Biso   1.000  C
  C93      1.0000 0.57950  0.89065  0.78189  Biso   1.000  C
  C94      1.0000 0.92050  0.10935  0.28189  Biso   1.000  C
  C95      1.0000 0.07950  0.60935  0.21811  Biso   1.000  C
  C96      1.0000 0.42050  0.39065  0.71811  Biso   1.000  C
  H121     1.0000 0.38400  0.15200  0.23510  Biso   1.000  H
  H122     1.0000 0.11600  0.84800  0.73510  Biso   1.000  H
  H123     1.0000 0.88400  0.34800  0.76490  Biso   1.000  H
  H124     1.0000 0.61600  0.65200  0.26490  Biso   1.000  H
  H125     1.0000 0.61600  0.84800  0.76490  Biso   1.000  H
  H126     1.0000 0.88400  0.15200  0.26490  Biso   1.000  H
  H127     1.0000 0.11600  0.65200  0.23510  Biso   1.000  H
  H128     1.0000 0.38400  0.34800  0.73510  Biso   1.000  H
  H129     1.0000 0.49600  0.12080  0.21621  Biso   1.000  H
  H130     1.0000 0.00400  0.87920  0.71621  Biso   1.000  H
  H131     1.0000 0.99600  0.37920  0.78379  Biso   1.000  H
  H132     1.0000 0.50400  0.62080  0.28379  Biso   1.000  H
  H133     1.0000 0.50400  0.87920  0.78379  Biso   1.000  H
  H134     1.0000 0.99600  0.12080  0.28379  Biso   1.000  H
  H135     1.0000 0.00400  0.62080  0.21621  Biso   1.000  H
  H136     1.0000 0.49600  0.37920  0.71621  Biso   1.000  H
  C97      1.0000 0.27820  0.01829  0.25890  Biso   1.000  C
  C98      1.0000 0.22180  0.98171  0.75890  Biso   1.000  C
  C99      1.0000 0.77820  0.48171  0.74110  Biso   1.000  C
  C100     1.0000 0.72180  0.51829  0.24110  Biso   1.000  C
  C101     1.0000 0.72180  0.98171  0.74110  Biso   1.000  C
  C102     1.0000 0.77820  0.01829  0.24110  Biso   1.000  C
  C103     1.0000 0.22180  0.51829  0.25890  Biso   1.000  C
  C104     1.0000 0.27820  0.48171  0.75890  Biso   1.000  C
  H137     1.0000 0.26640  0.97500  0.28220  Biso   1.000  H
  H138     1.0000 0.23360  0.02500  0.78220  Biso   1.000  H
  H139     1.0000 0.76640  0.52500  0.71780  Biso   1.000  H
  H140     1.0000 0.73360  0.47500  0.21780  Biso   1.000  H
  H141     1.0000 0.73360  0.02500  0.71780  Biso   1.000  H
  H142     1.0000 0.76640  0.97500  0.21780  Biso   1.000  H
  H143     1.0000 0.23360  0.47500  0.28220  Biso   1.000  H
  H144     1.0000 0.26640  0.52500  0.78220  Biso   1.000  H
  H145     1.0000 0.24100  0.05900  0.27610  Biso   1.000  H
  H146     1.0000 0.25900  0.94100  0.77610  Biso   1.000  H
  H147     1.0000 0.74100  0.44100  0.72390  Biso   1.000  H
  H148     1.0000 0.75900  0.55900  0.22390  Biso   1.000  H
  H149     1.0000 0.75900  0.94100  0.72390  Biso   1.000  H
  H150     1.0000 0.74100  0.05900  0.22390  Biso   1.000  H
  H151     1.0000 0.25900  0.55900  0.27610  Biso   1.000  H
  H152     1.0000 0.24100  0.44100  0.77610  Biso   1.000  H
  C105     1.0000 0.29310  0.93789  0.17004  Biso   1.000  C
  C106     1.0000 0.20690  0.06211  0.67004  Biso   1.000  C
  C107     1.0000 0.79310  0.56211  0.82996  Biso   1.000  C
  C108     1.0000 0.70690  0.43789  0.32996  Biso   1.000  C
  C109     1.0000 0.70690  0.06211  0.82996  Biso   1.000  C
  C110     1.0000 0.79310  0.93789  0.32996  Biso   1.000  C
  C111     1.0000 0.20690  0.43789  0.17004  Biso   1.000  C
  C112     1.0000 0.29310  0.56211  0.67004  Biso   1.000  C
  H153     1.0000 0.26520  0.92880  0.13190  Biso   1.000  H
  H154     1.0000 0.23480  0.07120  0.63190  Biso   1.000  H
  H155     1.0000 0.76520  0.57120  0.86810  Biso   1.000  H
  H156     1.0000 0.73480  0.42880  0.36810  Biso   1.000  H
  H157     1.0000 0.73480  0.07120  0.86810  Biso   1.000  H
  H158     1.0000 0.76520  0.92880  0.36810  Biso   1.000  H
  H159     1.0000 0.23480  0.42880  0.13190  Biso   1.000  H
  H160     1.0000 0.26520  0.57120  0.63190  Biso   1.000  H
  H161     1.0000 0.28090  0.89420  0.19330  Biso   1.000  H
  H162     1.0000 0.21910  0.10580  0.69330  Biso   1.000  H
  H163     1.0000 0.78090  0.60580  0.80670  Biso   1.000  H
  H164     1.0000 0.71910  0.39420  0.30670  Biso   1.000  H
  H165     1.0000 0.71910  0.10580  0.80670  Biso   1.000  H
  H166     1.0000 0.78090  0.89420  0.30670  Biso   1.000  H
  H167     1.0000 0.21910  0.39420  0.19330  Biso   1.000  H
  H168     1.0000 0.28090  0.60580  0.69330  Biso   1.000  H
  C113     1.0000 0.25270  0.07344  0.15913  Biso   1.000  C
  C114     1.0000 0.24730  0.92656  0.65913  Biso   1.000  C
  C115     1.0000 0.75270  0.42656  0.84087  Biso   1.000  C
  C116     1.0000 0.74730  0.57344  0.34087  Biso   1.000  C
  C117     1.0000 0.74730  0.92656  0.84087  Biso   1.000  C
  C118     1.0000 0.75270  0.07344  0.34087  Biso   1.000  C
  C119     1.0000 0.24730  0.57344  0.15913  Biso   1.000  C
  C120     1.0000 0.25270  0.42656  0.65913  Biso   1.000  C
  H169     1.0000 0.21390  0.11670  0.17620  Biso   1.000  H
  H170     1.0000 0.28610  0.88330  0.67620  Biso   1.000  H
  H171     1.0000 0.71390  0.38330  0.82380  Biso   1.000  H
  H172     1.0000 0.78610  0.61670  0.32380  Biso   1.000  H
  H173     1.0000 0.78610  0.88330  0.82380  Biso   1.000  H
  H174     1.0000 0.71390  0.11670  0.32380  Biso   1.000  H
  H175     1.0000 0.28610  0.61670  0.17620  Biso   1.000  H
  H176     1.0000 0.21390  0.38330  0.67620  Biso   1.000  H
  H177     1.0000 0.22360  0.06380  0.11950  Biso   1.000  H
  H178     1.0000 0.27640  0.93620  0.61950  Biso   1.000  H
  H179     1.0000 0.72360  0.43620  0.88050  Biso   1.000  H
  H180     1.0000 0.77640  0.56380  0.38050  Biso   1.000  H
  H181     1.0000 0.77640  0.93620  0.88050  Biso   1.000  H
  H182     1.0000 0.72360  0.06380  0.38050  Biso   1.000  H
  H183     1.0000 0.27640  0.56380  0.11950  Biso   1.000  H
  H184     1.0000 0.22360  0.43620  0.61950  Biso   1.000  H
  Cl1      1.0000 0.66007  0.26241  0.20952  Biso   1.000  Cl
  Cl2      1.0000 0.83993  0.73759  0.70952  Biso   1.000  Cl
  Cl3      1.0000 0.16007  0.23759  0.79048  Biso   1.000  Cl
  Cl4      1.0000 0.33993  0.76241  0.29048  Biso   1.000  Cl
  Cl5      1.0000 0.33993  0.73759  0.79048  Biso   1.000  Cl
  Cl6      1.0000 0.16007  0.26241  0.29048  Biso   1.000  Cl
  Cl7      1.0000 0.83993  0.76241  0.20952  Biso   1.000  Cl
  Cl8      1.0000 0.66007  0.23759  0.70952  Biso   1.000  Cl
  O25      1.0000 0.66400  0.19395  0.17389  Biso   1.000  O
  O26      1.0000 0.83600  0.80605  0.67389  Biso   1.000  O
  O27      1.0000 0.16400  0.30605  0.82611  Biso   1.000  O
  O28      1.0000 0.33600  0.69395  0.32611  Biso   1.000  O
  O29      1.0000 0.33600  0.80605  0.82611  Biso   1.000  O
  O30      1.0000 0.16400  0.19395  0.32611  Biso   1.000  O
  O31      1.0000 0.83600  0.69395  0.17389  Biso   1.000  O
  O32      1.0000 0.66400  0.30605  0.67389  Biso   1.000  O
  O33      1.0000 0.58280  0.25620  0.25670  Biso   1.000  O
  O34      1.0000 0.91720  0.74380  0.75670  Biso   1.000  O
  O35      1.0000 0.08280  0.24380  0.74330  Biso   1.000  O
  O36      1.0000 0.41720  0.75620  0.24330  Biso   1.000  O
  O37      1.0000 0.41720  0.74380  0.74330  Biso   1.000  O
  O38      1.0000 0.08280  0.25620  0.24330  Biso   1.000  O
  O39      1.0000 0.91720  0.75620  0.25670  Biso   1.000  O
  O40      1.0000 0.58280  0.24380  0.75670  Biso   1.000  O
  O41      1.0000 0.76560  0.27500  0.23490  Biso   1.000  O
  O42      1.0000 0.73440  0.72500  0.73490  Biso   1.000  O
  O43      1.0000 0.26560  0.22500  0.76510  Biso   1.000  O
  O44      1.0000 0.23440  0.77500  0.26510  Biso   1.000  O
  O45      1.0000 0.23440  0.72500  0.76510  Biso   1.000  O
  O46      1.0000 0.26560  0.27500  0.26510  Biso   1.000  O
  O47      1.0000 0.73440  0.77500  0.23490  Biso   1.000  O
  O48      1.0000 0.76560  0.22500  0.73490  Biso   1.000  O
  O49      1.0000 0.64130  0.32840  0.17230  Biso   1.000  O
  O50      1.0000 0.85870  0.67160  0.67230  Biso   1.000  O
  O51      1.0000 0.14130  0.17160  0.82770  Biso   1.000  O
  O52      1.0000 0.35870  0.82840  0.32770  Biso   1.000  O
  O53      1.0000 0.35870  0.67160  0.82770  Biso   1.000  O
  O54      1.0000 0.14130  0.32840  0.32770  Biso   1.000  O
  O55      1.0000 0.85870  0.82840  0.17230  Biso   1.000  O
  O56      1.0000 0.64130  0.17160  0.67230  Biso   1.000  O
  Cl9      1.0000 0.80053  0.00207  0.53549  Biso   1.000  Cl
  Cl10     1.0000 0.69947  0.99793  0.03549  Biso   1.000  Cl
  Cl11     1.0000 0.30053  0.49793  0.46451  Biso   1.000  Cl
  Cl12     1.0000 0.19947  0.50207  0.96451  Biso   1.000  Cl
  Cl13     1.0000 0.19947  0.99793  0.46451  Biso   1.000  Cl
  Cl14     1.0000 0.30053  0.00207  0.96451  Biso   1.000  Cl
  Cl15     1.0000 0.69947  0.50207  0.53549  Biso   1.000  Cl
  Cl16     1.0000 0.80053  0.49793  0.03549  Biso   1.000  Cl
  O57      1.0000 0.88530  0.05770  0.53318  Biso   1.000  O
  O58      1.0000 0.61470  0.94230  0.03318  Biso   1.000  O
  O59      1.0000 0.38530  0.44230  0.46682  Biso   1.000  O
  O60      1.0000 0.11470  0.55770  0.96682  Biso   1.000  O
  O61      1.0000 0.11470  0.94230  0.46682  Biso   1.000  O
  O62      1.0000 0.38530  0.05770  0.96682  Biso   1.000  O
  O63      1.0000 0.61470  0.55770  0.53318  Biso   1.000  O
  O64      1.0000 0.88530  0.44230  0.03318  Biso   1.000  O
  O65      1.0000 0.76870  0.98300  0.59548  Biso   1.000  O
  O66      1.0000 0.73130  0.01700  0.09548  Biso   1.000  O
  O67      1.0000 0.26870  0.51700  0.40452  Biso   1.000  O
  O68      1.0000 0.23130  0.48300  0.90452  Biso   1.000  O
  O69      1.0000 0.23130  0.01700  0.40452  Biso   1.000  O
  O70      1.0000 0.26870  0.98300  0.90452  Biso   1.000  O
  O71      1.0000 0.73130  0.48300  0.59548  Biso   1.000  O
  O72      1.0000 0.76870  0.51700  0.09548  Biso   1.000  O
  O73      1.0000 0.70940  0.02520  0.49970  Biso   1.000  O
  O74      1.0000 0.79060  0.97480  0.99970  Biso   1.000  O
  O75      1.0000 0.20940  0.47480  0.50030  Biso   1.000  O
  O76      1.0000 0.29060  0.52520  0.00030  Biso   1.000  O
  O77      1.0000 0.29060  0.97480  0.50030  Biso   1.000  O
  O78      1.0000 0.20940  0.02520  0.00030  Biso   1.000  O
  O79      1.0000 0.79060  0.52520  0.49970  Biso   1.000  O
  O80      1.0000 0.70940  0.47480  0.99970  Biso   1.000  O
  O81      1.0000 0.84470  0.93290  0.50820  Biso   1.000  O
  O82      1.0000 0.65530  0.06710  0.00820  Biso   1.000  O
  O83      1.0000 0.34470  0.56710  0.49180  Biso   1.000  O
  O84      1.0000 0.15530  0.43290  0.99180  Biso   1.000  O
  O85      1.0000 0.15530  0.06710  0.49180  Biso   1.000  O
  O86      1.0000 0.34470  0.93290  0.99180  Biso   1.000  O
  O87      1.0000 0.65530  0.43290  0.50820  Biso   1.000  O
  O88      1.0000 0.84470  0.56710  0.00820  Biso   1.000  O
  Cl17     1.0000 0.78360  0.96020  0.53020  Biso   1.000  Cl
  Cl18     1.0000 0.71640  0.03980  0.03020  Biso   1.000  Cl
  Cl19     1.0000 0.28360  0.53980  0.46980  Biso   1.000  Cl
  Cl20     1.0000 0.21640  0.46020  0.96980  Biso   1.000  Cl
  Cl21     1.0000 0.21640  0.03980  0.46980  Biso   1.000  Cl
  Cl22     1.0000 0.28360  0.96020  0.96980  Biso   1.000  Cl
  Cl23     1.0000 0.71640  0.46020  0.53020  Biso   1.000  Cl
  Cl24     1.0000 0.78360  0.53980  0.03020  Biso   1.000  Cl
  O89      1.0000 0.89450  0.97460  0.51570  Biso   1.000  O
  O90      1.0000 0.60550  0.02540  0.01570  Biso   1.000  O
  O91      1.0000 0.39450  0.52540  0.48430  Biso   1.000  O
  O92      1.0000 0.10550  0.47460  0.98430  Biso   1.000  O
  O93      1.0000 0.10550  0.02540  0.48430  Biso   1.000  O
  O94      1.0000 0.39450  0.97460  0.98430  Biso   1.000  O
  O95      1.0000 0.60550  0.47460  0.51570  Biso   1.000  O
  O96      1.0000 0.89450  0.52540  0.01570  Biso   1.000  O
  O97      1.0000 0.76800  0.97010  0.59300  Biso   1.000  O
  O98      1.0000 0.73200  0.02990  0.09300  Biso   1.000  O
  O99      1.0000 0.26800  0.52990  0.40700  Biso   1.000  O
  O100     1.0000 0.23200  0.47010  0.90700  Biso   1.000  O
  O101     1.0000 0.23200  0.02990  0.40700  Biso   1.000  O
  O102     1.0000 0.26800  0.97010  0.90700  Biso   1.000  O
  O103     1.0000 0.73200  0.47010  0.59300  Biso   1.000  O
  O104     1.0000 0.76800  0.52990  0.09300  Biso   1.000  O
  O105     1.0000 0.71660  0.01320  0.49860  Biso   1.000  O
  O106     1.0000 0.78340  0.98680  0.99860  Biso   1.000  O
  O107     1.0000 0.21660  0.48680  0.50140  Biso   1.000  O
  O108     1.0000 0.28340  0.51320  0.00140  Biso   1.000  O
  O109     1.0000 0.28340  0.98680  0.50140  Biso   1.000  O
  O110     1.0000 0.21660  0.01320  0.00140  Biso   1.000  O
  O111     1.0000 0.78340  0.51320  0.49860  Biso   1.000  O
  O112     1.0000 0.71660  0.48680  0.99860  Biso   1.000  O
  O113     1.0000 0.75520  0.88390  0.51370  Biso   1.000  O
  O114     1.0000 0.74480  0.11610  0.01370  Biso   1.000  O
  O115     1.0000 0.25520  0.61610  0.48630  Biso   1.000  O
  O116     1.0000 0.24480  0.38390  0.98630  Biso   1.000  O
  O117     1.0000 0.24480  0.11610  0.48630  Biso   1.000  O
  O118     1.0000 0.25520  0.88390  0.98630  Biso   1.000  O
  O119     1.0000 0.74480  0.38390  0.51370  Biso   1.000  O
  O120     1.0000 0.75520  0.61610  0.01370  Biso   1.000  O
