data_image0
_cell_length_a       21.8567
_cell_length_b       11.5525
_cell_length_c       21.4604
_cell_angle_alpha    90
_cell_angle_beta     117.611
_cell_angle_gamma    90

_symmetry_space_group_name_H-M    "P 1"
_symmetry_int_tables_number       1

loop_
  _symmetry_equiv_pos_as_xyz
  'x, y, z'

loop_
  _atom_site_label
  _atom_site_occupancy
  _atom_site_fract_x
  _atom_site_fract_y
  _atom_site_fract_z
  _atom_site_thermal_displace_type
  _atom_site_B_iso_or_equiv
  _atom_site_type_symbol
  Cu1      1.0000 0.74493  0.32630  0.41940  Biso   1.000  Cu
  Cu2      1.0000 0.25507  0.82630  0.08060  Biso   1.000  Cu
  Cu3      1.0000 0.25507  0.67370  0.58060  Biso   1.000  Cu
  Cu4      1.0000 0.74493  0.17370  0.91940  Biso   1.000  Cu
  Cu5      1.0000 0.75677  0.30125  0.60247  Biso   1.000  Cu
  Cu6      1.0000 0.24323  0.80125  0.89753  Biso   1.000  Cu
  Cu7      1.0000 0.24323  0.69875  0.39753  Biso   1.000  Cu
  Cu8      1.0000 0.75677  0.19875  0.10247  Biso   1.000  Cu
  S1       1.0000 0.55444  0.24923  0.17969  Biso   1.000  S
  S2       1.0000 0.44556  0.74923  0.32031  Biso   1.000  S
  S3       1.0000 0.44556  0.75077  0.82031  Biso   1.000  S
  S4       1.0000 0.55444  0.25077  0.67969  Biso   1.000  S
  S5       1.0000 0.86735  0.52906  0.29735  Biso   1.000  S
  S6       1.0000 0.13265  0.02906  0.20265  Biso   1.000  S
  S7       1.0000 0.13265  0.47094  0.70265  Biso   1.000  S
  S8       1.0000 0.86735  0.97094  0.79735  Biso   1.000  S
  O1       1.0000 0.70961  0.20357  0.34650  Biso   1.000  O
  O2       1.0000 0.29039  0.70357  0.15350  Biso   1.000  O
  O3       1.0000 0.29039  0.79643  0.65350  Biso   1.000  O
  O4       1.0000 0.70961  0.29643  0.84650  Biso   1.000  O
  H1       1.0000 0.69950  0.13610  0.35460  Biso   1.000  H
  H2       1.0000 0.30050  0.63610  0.14540  Biso   1.000  H
  H3       1.0000 0.30050  0.86390  0.64540  Biso   1.000  H
  H4       1.0000 0.69950  0.36390  0.85460  Biso   1.000  H
  H5       1.0000 0.68360  0.21970  0.30350  Biso   1.000  H
  H6       1.0000 0.31640  0.71970  0.19650  Biso   1.000  H
  H7       1.0000 0.31640  0.78030  0.69650  Biso   1.000  H
  H8       1.0000 0.68360  0.28030  0.80350  Biso   1.000  H
  O5       1.0000 0.84929  0.31764  0.40978  Biso   1.000  O
  O6       1.0000 0.15071  0.81764  0.09022  Biso   1.000  O
  O7       1.0000 0.15071  0.68236  0.59022  Biso   1.000  O
  O8       1.0000 0.84929  0.18236  0.90978  Biso   1.000  O
  H9       1.0000 0.84950  0.35550  0.37590  Biso   1.000  H
  H10      1.0000 0.15050  0.85550  0.12410  Biso   1.000  H
  H11      1.0000 0.15050  0.64450  0.62410  Biso   1.000  H
  H12      1.0000 0.84950  0.14450  0.87590  Biso   1.000  H
  H13      1.0000 0.88400  0.33860  0.44760  Biso   1.000  H
  H14      1.0000 0.11600  0.83860  0.05240  Biso   1.000  H
  H15      1.0000 0.11600  0.66140  0.55240  Biso   1.000  H
  H16      1.0000 0.88400  0.16140  0.94760  Biso   1.000  H
  O9       1.0000 0.72845  0.16619  0.66363  Biso   1.000  O
  O10      1.0000 0.27155  0.66619  0.83637  Biso   1.000  O
  O11      1.0000 0.27155  0.83381  0.33637  Biso   1.000  O
  O12      1.0000 0.72845  0.33381  0.16363  Biso   1.000  O
  H17      1.0000 0.69730  0.18810  0.67420  Biso   1.000  H
  H18      1.0000 0.30270  0.68810  0.82580  Biso   1.000  H
  H19      1.0000 0.30270  0.81190  0.32580  Biso   1.000  H
  H20      1.0000 0.69730  0.31190  0.17420  Biso   1.000  H
  H21      1.0000 0.76190  0.13900  0.70040  Biso   1.000  H
  H22      1.0000 0.23810  0.63900  0.79960  Biso   1.000  H
  H23      1.0000 0.23810  0.86100  0.29960  Biso   1.000  H
  H24      1.0000 0.76190  0.36100  0.20040  Biso   1.000  H
  O13      1.0000 0.51965  0.36320  0.16707  Biso   1.000  O
  O14      1.0000 0.48035  0.86320  0.33293  Biso   1.000  O
  O15      1.0000 0.48035  0.63680  0.83293  Biso   1.000  O
  O16      1.0000 0.51965  0.13680  0.66707  Biso   1.000  O
  O17      1.0000 0.53869  0.18070  0.22832  Biso   1.000  O
  O18      1.0000 0.46131  0.68070  0.27168  Biso   1.000  O
  O19      1.0000 0.46131  0.81930  0.77168  Biso   1.000  O
  O20      1.0000 0.53869  0.31930  0.72832  Biso   1.000  O
  O21      1.0000 0.53120  0.18830  0.11164  Biso   1.000  O
  O22      1.0000 0.46880  0.68830  0.38836  Biso   1.000  O
  O23      1.0000 0.46880  0.81170  0.88836  Biso   1.000  O
  O24      1.0000 0.53120  0.31170  0.61164  Biso   1.000  O
  O25      1.0000 0.63078  0.26570  0.21155  Biso   1.000  O
  O26      1.0000 0.36922  0.76570  0.28845  Biso   1.000  O
  O27      1.0000 0.36922  0.73430  0.78845  Biso   1.000  O
  O28      1.0000 0.63078  0.23430  0.71155  Biso   1.000  O
  O29      1.0000 0.84090  0.61190  0.33122  Biso   1.000  O
  O30      1.0000 0.15910  0.11190  0.16878  Biso   1.000  O
  O31      1.0000 0.15910  0.38810  0.66878  Biso   1.000  O
  O32      1.0000 0.84090  0.88810  0.83122  Biso   1.000  O
  O33      1.0000 0.83058  0.41740  0.28849  Biso   1.000  O
  O34      1.0000 0.16942  0.91740  0.21151  Biso   1.000  O
  O35      1.0000 0.16942  0.58260  0.71151  Biso   1.000  O
  O36      1.0000 0.83058  0.08260  0.78849  Biso   1.000  O
  O37      1.0000 0.85230  0.57110  0.22680  Biso   1.000  O
  O38      1.0000 0.14770  0.07110  0.27320  Biso   1.000  O
  O39      1.0000 0.14770  0.42890  0.77320  Biso   1.000  O
  O40      1.0000 0.85230  0.92890  0.72680  Biso   1.000  O
  O41      1.0000 0.94130  0.50840  0.34330  Biso   1.000  O
  O42      1.0000 0.05870  0.00840  0.15670  Biso   1.000  O
  O43      1.0000 0.05870  0.49160  0.65670  Biso   1.000  O
  O44      1.0000 0.94130  0.99160  0.84330  Biso   1.000  O
  N1       1.0000 0.79112  0.45610  0.48675  Biso   1.000  N
  N2       1.0000 0.20888  0.95610  0.01325  Biso   1.000  N
  N3       1.0000 0.20888  0.54390  0.51325  Biso   1.000  N
  N4       1.0000 0.79112  0.04390  0.98675  Biso   1.000  N
  N5       1.0000 0.78699  0.46706  0.54803  Biso   1.000  N
  N6       1.0000 0.21301  0.96706  0.95197  Biso   1.000  N
  N7       1.0000 0.21301  0.53294  0.45197  Biso   1.000  N
  N8       1.0000 0.78699  0.03294  0.04803  Biso   1.000  N
  N9       1.0000 0.84907  0.61079  0.53973  Biso   1.000  N
  N10      1.0000 0.15093  0.11079  0.96027  Biso   1.000  N
  N11      1.0000 0.15093  0.38921  0.46027  Biso   1.000  N
  N12      1.0000 0.84907  0.88921  0.03973  Biso   1.000  N
  N13      1.0000 0.79626  0.20053  0.49529  Biso   1.000  N
  N14      1.0000 0.20374  0.70053  0.00471  Biso   1.000  N
  N15      1.0000 0.20374  0.79947  0.50471  Biso   1.000  N
  N16      1.0000 0.79626  0.29947  0.99529  Biso   1.000  N
  N17      1.0000 0.78872  0.18071  0.55490  Biso   1.000  N
  N18      1.0000 0.21128  0.68071  0.94510  Biso   1.000  N
  N19      1.0000 0.21128  0.81929  0.44510  Biso   1.000  N
  N20      1.0000 0.78872  0.31929  0.05490  Biso   1.000  N
  N21      1.0000 0.84942  0.03911  0.54394  Biso   1.000  N
  N22      1.0000 0.15058  0.53911  0.95606  Biso   1.000  N
  N23      1.0000 0.15058  0.96089  0.45606  Biso   1.000  N
  N24      1.0000 0.84942  0.46089  0.04394  Biso   1.000  N
  N25      1.0000 0.14259  0.81029  0.82263  Biso   1.000  N
  N26      1.0000 0.85741  0.31029  0.67737  Biso   1.000  N
  N27      1.0000 0.85741  0.18971  0.17737  Biso   1.000  N
  N28      1.0000 0.14259  0.68971  0.32263  Biso   1.000  N
  N29      1.0000 0.09019  0.81990  0.84177  Biso   1.000  N
  N30      1.0000 0.90981  0.31990  0.65823  Biso   1.000  N
  N31      1.0000 0.90981  0.18010  0.15823  Biso   1.000  N
  N32      1.0000 0.09019  0.68010  0.34177  Biso   1.000  N
  N33      1.0000 0.04440  0.82214  0.72592  Biso   1.000  N
  N34      1.0000 0.95560  0.32214  0.77408  Biso   1.000  N
  N35      1.0000 0.95560  0.17786  0.27408  Biso   1.000  N
  N36      1.0000 0.04440  0.67786  0.22592  Biso   1.000  N
  N37      1.0000 0.97355  0.82778  0.52902  Biso   1.000  N
  N38      1.0000 0.02645  0.32778  0.97098  Biso   1.000  N
  N39      1.0000 0.02645  0.17222  0.47098  Biso   1.000  N
  N40      1.0000 0.97355  0.67222  0.02902  Biso   1.000  N
  N41      1.0000 0.65948  0.29143  0.45152  Biso   1.000  N
  N42      1.0000 0.34052  0.79143  0.04848  Biso   1.000  N
  N43      1.0000 0.34052  0.70857  0.54848  Biso   1.000  N
  N44      1.0000 0.65948  0.20857  0.95152  Biso   1.000  N
  N45      1.0000 0.66216  0.29370  0.51753  Biso   1.000  N
  N46      1.0000 0.33784  0.79370  0.98247  Biso   1.000  N
  N47      1.0000 0.33784  0.70630  0.48247  Biso   1.000  N
  N48      1.0000 0.66216  0.20630  0.01753  Biso   1.000  N
  N49      1.0000 0.55565  0.25648  0.43952  Biso   1.000  N
  N50      1.0000 0.44435  0.75648  0.06048  Biso   1.000  N
  N51      1.0000 0.44435  0.74352  0.56048  Biso   1.000  N
  N52      1.0000 0.55565  0.24352  0.93952  Biso   1.000  N
  N53      1.0000 0.31238  0.94719  0.15110  Biso   1.000  N
  N54      1.0000 0.68762  0.44719  0.34890  Biso   1.000  N
  N55      1.0000 0.68762  0.05281  0.84890  Biso   1.000  N
  N56      1.0000 0.31238  0.55281  0.65110  Biso   1.000  N
  N57      1.0000 0.36167  0.00560  0.14051  Biso   1.000  N
  N58      1.0000 0.63833  0.50560  0.35949  Biso   1.000  N
  N59      1.0000 0.63833  0.99440  0.85949  Biso   1.000  N
  N60      1.0000 0.36167  0.49440  0.64051  Biso   1.000  N
  N61      1.0000 0.36462  0.06625  0.23905  Biso   1.000  N
  N62      1.0000 0.63538  0.56625  0.26095  Biso   1.000  N
  N63      1.0000 0.63538  0.93375  0.76095  Biso   1.000  N
  N64      1.0000 0.36462  0.43375  0.73905  Biso   1.000  N
  N65      1.0000 0.27328  0.57805  0.35149  Biso   1.000  N
  N66      1.0000 0.72672  0.07805  0.14851  Biso   1.000  N
  N67      1.0000 0.72672  0.42195  0.64851  Biso   1.000  N
  N68      1.0000 0.27328  0.92195  0.85149  Biso   1.000  N
  N69      1.0000 0.24677  0.56360  0.27962  Biso   1.000  N
  N70      1.0000 0.75323  0.06360  0.22038  Biso   1.000  N
  N71      1.0000 0.75323  0.43640  0.72038  Biso   1.000  N
  N72      1.0000 0.24677  0.93640  0.77962  Biso   1.000  N
  N73      1.0000 0.32019  0.42311  0.33558  Biso   1.000  N
  N74      1.0000 0.67981  0.92311  0.16442  Biso   1.000  N
  N75      1.0000 0.67981  0.57689  0.66442  Biso   1.000  N
  N76      1.0000 0.32019  0.07689  0.83558  Biso   1.000  N
  N77      1.0000 0.38853  0.13222  0.42148  Biso   1.000  N
  N78      1.0000 0.61147  0.63222  0.07852  Biso   1.000  N
  N79      1.0000 0.61147  0.86778  0.57852  Biso   1.000  N
  N80      1.0000 0.38853  0.36778  0.92148  Biso   1.000  N
  C1       1.0000 0.82733  0.54220  0.48172  Biso   1.000  C
  C2       1.0000 0.17267  0.04220  0.01828  Biso   1.000  C
  C3       1.0000 0.17267  0.45780  0.51828  Biso   1.000  C
  C4       1.0000 0.82733  0.95780  0.98172  Biso   1.000  C
  H25      1.0000 0.83690  0.55490  0.44390  Biso   1.000  H
  H26      1.0000 0.16310  0.05490  0.05610  Biso   1.000  H
  H27      1.0000 0.16310  0.44510  0.55610  Biso   1.000  H
  H28      1.0000 0.83690  0.94510  0.94390  Biso   1.000  H
  C5       1.0000 0.82225  0.56060  0.57948  Biso   1.000  C
  C6       1.0000 0.17775  0.06060  0.92052  Biso   1.000  C
  C7       1.0000 0.17775  0.43940  0.42052  Biso   1.000  C
  C8       1.0000 0.82225  0.93940  0.07948  Biso   1.000  C
  H29      1.0000 0.82820  0.58880  0.62300  Biso   1.000  H
  H30      1.0000 0.17180  0.08880  0.87700  Biso   1.000  H
  H31      1.0000 0.17180  0.41120  0.37700  Biso   1.000  H
  H32      1.0000 0.82820  0.91120  0.12300  Biso   1.000  H
  C9       1.0000 0.89245  0.71690  0.55734  Biso   1.000  C
  C10      1.0000 0.10755  0.21690  0.94266  Biso   1.000  C
  C11      1.0000 0.10755  0.28310  0.44266  Biso   1.000  C
  C12      1.0000 0.89245  0.78310  0.05734  Biso   1.000  C
  C13      1.0000 0.84571  0.82480  0.54238  Biso   1.000  C
  C14      1.0000 0.15429  0.32480  0.95762  Biso   1.000  C
  C15      1.0000 0.15429  0.17520  0.45762  Biso   1.000  C
  C16      1.0000 0.84571  0.67520  0.04238  Biso   1.000  C
  H33      1.0000 0.81060  0.82590  0.49290  Biso   1.000  H
  H34      1.0000 0.18940  0.32590  0.00710  Biso   1.000  H
  H35      1.0000 0.18940  0.17410  0.50710  Biso   1.000  H
  H36      1.0000 0.81060  0.67410  0.99290  Biso   1.000  H
  H37      1.0000 0.82230  0.82360  0.57180  Biso   1.000  H
  H38      1.0000 0.17770  0.32360  0.92820  Biso   1.000  H
  H39      1.0000 0.17770  0.17640  0.42820  Biso   1.000  H
  H40      1.0000 0.82230  0.67640  0.07180  Biso   1.000  H
  C17      1.0000 0.89246  0.93260  0.55935  Biso   1.000  C
  C18      1.0000 0.10754  0.43260  0.94065  Biso   1.000  C
  C19      1.0000 0.10754  0.06740  0.44065  Biso   1.000  C
  C20      1.0000 0.89246  0.56740  0.05935  Biso   1.000  C
  C21      1.0000 0.94637  0.93310  0.63702  Biso   1.000  C
  C22      1.0000 0.05363  0.43310  0.86298  Biso   1.000  C
  C23      1.0000 0.05363  0.06690  0.36298  Biso   1.000  C
  C24      1.0000 0.94637  0.56690  0.13702  Biso   1.000  C
  H41      1.0000 0.92340  0.93260  0.66690  Biso   1.000  H
  H42      1.0000 0.07660  0.43260  0.83310  Biso   1.000  H
  H43      1.0000 0.07660  0.06740  0.33310  Biso   1.000  H
  H44      1.0000 0.92340  0.56740  0.16690  Biso   1.000  H
  H45      1.0000 0.97500  0.00290  0.64770  Biso   1.000  H
  H46      1.0000 0.02500  0.50290  0.85230  Biso   1.000  H
  H47      1.0000 0.02500  0.99710  0.35230  Biso   1.000  H
  H48      1.0000 0.97500  0.49710  0.14770  Biso   1.000  H
  C25      1.0000 0.99190  0.82380  0.65130  Biso   1.000  C
  C26      1.0000 0.00810  0.32380  0.84870  Biso   1.000  C
  C27      1.0000 0.00810  0.17620  0.34870  Biso   1.000  C
  C28      1.0000 0.99190  0.67620  0.15130  Biso   1.000  C
  C29      1.0000 0.94693  0.71360  0.63556  Biso   1.000  C
  C30      1.0000 0.05307  0.21360  0.86444  Biso   1.000  C
  C31      1.0000 0.05307  0.28640  0.36444  Biso   1.000  C
  C32      1.0000 0.94693  0.78640  0.13556  Biso   1.000  C
  H49      1.0000 0.97580  0.64430  0.64500  Biso   1.000  H
  H50      1.0000 0.02420  0.14430  0.85500  Biso   1.000  H
  H51      1.0000 0.02420  0.35570  0.35500  Biso   1.000  H
  H52      1.0000 0.97580  0.85570  0.14500  Biso   1.000  H
  H53      1.0000 0.92410  0.71130  0.66550  Biso   1.000  H
  H54      1.0000 0.07590  0.21130  0.83450  Biso   1.000  H
  H55      1.0000 0.07590  0.28870  0.33450  Biso   1.000  H
  H56      1.0000 0.92410  0.78870  0.16550  Biso   1.000  H
  C33      1.0000 0.93025  0.72260  0.51170  Biso   1.000  C
  C34      1.0000 0.06975  0.22260  0.98830  Biso   1.000  C
  C35      1.0000 0.06975  0.27740  0.48830  Biso   1.000  C
  C36      1.0000 0.93025  0.77740  0.01170  Biso   1.000  C
  H57      1.0000 0.95930  0.65380  0.52030  Biso   1.000  H
  H58      1.0000 0.04070  0.15380  0.97970  Biso   1.000  H
  H59      1.0000 0.04070  0.34620  0.47970  Biso   1.000  H
  H60      1.0000 0.95930  0.84620  0.02030  Biso   1.000  H
  H61      1.0000 0.89630  0.72370  0.46180  Biso   1.000  H
  H62      1.0000 0.10370  0.22370  0.03820  Biso   1.000  H
  H63      1.0000 0.10370  0.27630  0.53820  Biso   1.000  H
  H64      1.0000 0.89630  0.77630  0.96180  Biso   1.000  H
  C37      1.0000 0.92880  0.93140  0.51279  Biso   1.000  C
  C38      1.0000 0.07120  0.43140  0.98721  Biso   1.000  C
  C39      1.0000 0.07120  0.06860  0.48721  Biso   1.000  C
  C40      1.0000 0.92880  0.56860  0.01279  Biso   1.000  C
  H65      1.0000 0.89430  0.93030  0.46310  Biso   1.000  H
  H66      1.0000 0.10570  0.43030  0.03690  Biso   1.000  H
  H67      1.0000 0.10570  0.06970  0.53690  Biso   1.000  H
  H68      1.0000 0.89430  0.56970  0.96310  Biso   1.000  H
  H69      1.0000 0.95680  0.00150  0.52130  Biso   1.000  H
  H70      1.0000 0.04320  0.50150  0.97870  Biso   1.000  H
  H71      1.0000 0.04320  0.99850  0.47870  Biso   1.000  H
  H72      1.0000 0.95680  0.49850  0.02130  Biso   1.000  H
  C41      1.0000 0.02636  0.82710  0.60304  Biso   1.000  C
  C42      1.0000 0.97364  0.32710  0.89696  Biso   1.000  C
  C43      1.0000 0.97364  0.17290  0.39696  Biso   1.000  C
  C44      1.0000 0.02636  0.67290  0.10304  Biso   1.000  C
  H73      1.0000 0.05510  0.89670  0.61310  Biso   1.000  H
  H74      1.0000 0.94490  0.39670  0.88690  Biso   1.000  H
  H75      1.0000 0.94490  0.10330  0.38690  Biso   1.000  H
  H76      1.0000 0.05510  0.60330  0.11310  Biso   1.000  H
  H77      1.0000 0.05620  0.75930  0.61210  Biso   1.000  H
  H78      1.0000 0.94380  0.25930  0.88790  Biso   1.000  H
  H79      1.0000 0.94380  0.24070  0.38790  Biso   1.000  H
  H80      1.0000 0.05620  0.74070  0.11210  Biso   1.000  H
  C45      1.0000 0.82089  0.08380  0.58321  Biso   1.000  C
  C46      1.0000 0.17911  0.58380  0.91679  Biso   1.000  C
  C47      1.0000 0.17911  0.91620  0.41679  Biso   1.000  C
  C48      1.0000 0.82089  0.41620  0.08321  Biso   1.000  C
  H81      1.0000 0.82380  0.05030  0.62440  Biso   1.000  H
  H82      1.0000 0.17620  0.55030  0.87560  Biso   1.000  H
  H83      1.0000 0.17620  0.94970  0.37560  Biso   1.000  H
  H84      1.0000 0.82380  0.44970  0.12440  Biso   1.000  H
  C49      1.0000 0.83244  0.11530  0.48987  Biso   1.000  C
  C50      1.0000 0.16756  0.61530  0.01013  Biso   1.000  C
  C51      1.0000 0.16756  0.88470  0.51013  Biso   1.000  C
  C52      1.0000 0.83244  0.38470  0.98987  Biso   1.000  C
  H85      1.0000 0.84510  0.10730  0.45380  Biso   1.000  H
  H86      1.0000 0.15490  0.60730  0.04620  Biso   1.000  H
  H87      1.0000 0.15490  0.89270  0.54620  Biso   1.000  H
  H88      1.0000 0.84510  0.39270  0.95380  Biso   1.000  H
  C53      1.0000 0.11368  0.81150  0.75369  Biso   1.000  C
  C54      1.0000 0.88632  0.31150  0.74631  Biso   1.000  C
  C55      1.0000 0.88632  0.18850  0.24631  Biso   1.000  C
  C56      1.0000 0.11368  0.68850  0.25369  Biso   1.000  C
  H89      1.0000 0.13790  0.80580  0.72720  Biso   1.000  H
  H90      1.0000 0.86210  0.30580  0.77280  Biso   1.000  H
  H91      1.0000 0.86210  0.19420  0.27280  Biso   1.000  H
  H92      1.0000 0.13790  0.69420  0.22720  Biso   1.000  H
  C57      1.0000 0.03266  0.82670  0.78314  Biso   1.000  C
  C58      1.0000 0.96734  0.32670  0.71686  Biso   1.000  C
  C59      1.0000 0.96734  0.17330  0.21686  Biso   1.000  C
  C60      1.0000 0.03266  0.67330  0.28314  Biso   1.000  C
  H93      1.0000 0.98870  0.83380  0.78060  Biso   1.000  H
  H94      1.0000 0.01130  0.33380  0.71940  Biso   1.000  H
  H95      1.0000 0.01130  0.16620  0.21940  Biso   1.000  H
  H96      1.0000 0.98870  0.66620  0.28060  Biso   1.000  H
  C61      1.0000 0.59554  0.26880  0.40606  Biso   1.000  C
  C62      1.0000 0.40446  0.76880  0.09394  Biso   1.000  C
  C63      1.0000 0.40446  0.73120  0.59394  Biso   1.000  C
  C64      1.0000 0.59554  0.23120  0.90606  Biso   1.000  C
  H97      1.0000 0.57920  0.26190  0.35730  Biso   1.000  H
  H98      1.0000 0.42080  0.76190  0.14270  Biso   1.000  H
  H99      1.0000 0.42080  0.73810  0.64270  Biso   1.000  H
  H100     1.0000 0.57920  0.23810  0.85730  Biso   1.000  H
  C65      1.0000 0.59944  0.27340  0.50877  Biso   1.000  C
  C66      1.0000 0.40056  0.77340  0.99123  Biso   1.000  C
  C67      1.0000 0.40056  0.72660  0.49123  Biso   1.000  C
  C68      1.0000 0.59944  0.22660  0.00877  Biso   1.000  C
  H101     1.0000 0.58680  0.27100  0.54510  Biso   1.000  H
  H102     1.0000 0.41320  0.77100  0.95490  Biso   1.000  H
  H103     1.0000 0.41320  0.72900  0.45490  Biso   1.000  H
  H104     1.0000 0.58680  0.22900  0.04510  Biso   1.000  H
  C69      1.0000 0.48039  0.23210  0.40544  Biso   1.000  C
  C70      1.0000 0.51961  0.73210  0.09456  Biso   1.000  C
  C71      1.0000 0.51961  0.76790  0.59456  Biso   1.000  C
  C72      1.0000 0.48039  0.26790  0.90544  Biso   1.000  C
  C73      1.0000 0.46091  0.16270  0.33755  Biso   1.000  C
  C74      1.0000 0.53909  0.66270  0.16245  Biso   1.000  C
  C75      1.0000 0.53909  0.83730  0.66245  Biso   1.000  C
  C76      1.0000 0.46091  0.33730  0.83755  Biso   1.000  C
  H105     1.0000 0.47060  0.20850  0.30470  Biso   1.000  H
  H106     1.0000 0.52940  0.70850  0.19530  Biso   1.000  H
  H107     1.0000 0.52940  0.79150  0.69530  Biso   1.000  H
  H108     1.0000 0.47060  0.29150  0.80470  Biso   1.000  H
  H109     1.0000 0.48810  0.09130  0.34840  Biso   1.000  H
  H110     1.0000 0.51190  0.59130  0.15160  Biso   1.000  H
  H111     1.0000 0.51190  0.90870  0.65160  Biso   1.000  H
  H112     1.0000 0.48810  0.40870  0.84840  Biso   1.000  H
  C77      1.0000 0.38378  0.13400  0.30450  Biso   1.000  C
  C78      1.0000 0.61622  0.63400  0.19550  Biso   1.000  C
  C79      1.0000 0.61622  0.86600  0.69550  Biso   1.000  C
  C80      1.0000 0.38378  0.36600  0.80450  Biso   1.000  C
  C81      1.0000 0.34073  0.24600  0.28464  Biso   1.000  C
  C82      1.0000 0.65927  0.74600  0.21536  Biso   1.000  C
  C83      1.0000 0.65927  0.75400  0.71536  Biso   1.000  C
  C84      1.0000 0.34073  0.25400  0.78464  Biso   1.000  C
  H113     1.0000 0.29140  0.22760  0.26280  Biso   1.000  H
  H114     1.0000 0.70860  0.72760  0.23720  Biso   1.000  H
  H115     1.0000 0.70860  0.77240  0.73720  Biso   1.000  H
  H116     1.0000 0.29140  0.27240  0.76280  Biso   1.000  H
  H117     1.0000 0.34980  0.29130  0.25120  Biso   1.000  H
  H118     1.0000 0.65020  0.79130  0.24880  Biso   1.000  H
  H119     1.0000 0.65020  0.70870  0.74880  Biso   1.000  H
  H120     1.0000 0.34980  0.20870  0.75120  Biso   1.000  H
  C85      1.0000 0.36200  0.31520  0.35307  Biso   1.000  C
  C86      1.0000 0.63800  0.81520  0.14693  Biso   1.000  C
  C87      1.0000 0.63800  0.68480  0.64693  Biso   1.000  C
  C88      1.0000 0.36200  0.18480  0.85307  Biso   1.000  C
  C89      1.0000 0.43916  0.34630  0.38785  Biso   1.000  C
  C90      1.0000 0.56084  0.84630  0.11215  Biso   1.000  C
  C91      1.0000 0.56084  0.65370  0.61215  Biso   1.000  C
  C92      1.0000 0.43916  0.15370  0.88785  Biso   1.000  C
  H121     1.0000 0.45170  0.39110  0.43090  Biso   1.000  H
  H122     1.0000 0.54830  0.89110  0.06910  Biso   1.000  H
  H123     1.0000 0.54830  0.60890  0.56910  Biso   1.000  H
  H124     1.0000 0.45170  0.10890  0.93090  Biso   1.000  H
  H125     1.0000 0.44940  0.39300  0.35570  Biso   1.000  H
  H126     1.0000 0.55060  0.89300  0.14430  Biso   1.000  H
  H127     1.0000 0.55060  0.60700  0.64430  Biso   1.000  H
  H128     1.0000 0.44940  0.10700  0.85570  Biso   1.000  H
  C93      1.0000 0.46286  0.15920  0.45544  Biso   1.000  C
  C94      1.0000 0.53714  0.65920  0.04456  Biso   1.000  C
  C95      1.0000 0.53714  0.84080  0.54456  Biso   1.000  C
  C96      1.0000 0.46286  0.34080  0.95544  Biso   1.000  C
  H129     1.0000 0.48960  0.08720  0.46750  Biso   1.000  H
  H130     1.0000 0.51040  0.58720  0.03250  Biso   1.000  H
  H131     1.0000 0.51040  0.91280  0.53250  Biso   1.000  H
  H132     1.0000 0.48960  0.41280  0.96750  Biso   1.000  H
  H133     1.0000 0.47540  0.20240  0.49900  Biso   1.000  H
  H134     1.0000 0.52460  0.70240  0.00100  Biso   1.000  H
  H135     1.0000 0.52460  0.79760  0.50100  Biso   1.000  H
  H136     1.0000 0.47540  0.29760  0.99900  Biso   1.000  H
  C97      1.0000 0.36852  0.06370  0.35641  Biso   1.000  C
  C98      1.0000 0.63148  0.56370  0.14359  Biso   1.000  C
  C99      1.0000 0.63148  0.93630  0.64359  Biso   1.000  C
  C100     1.0000 0.36852  0.43630  0.85641  Biso   1.000  C
  H137     1.0000 0.31920  0.04500  0.33500  Biso   1.000  H
  H138     1.0000 0.68080  0.54500  0.16500  Biso   1.000  H
  H139     1.0000 0.68080  0.95500  0.66500  Biso   1.000  H
  H140     1.0000 0.31920  0.45500  0.83500  Biso   1.000  H
  H141     1.0000 0.39450  0.99100  0.36780  Biso   1.000  H
  H142     1.0000 0.60550  0.49100  0.13220  Biso   1.000  H
  H143     1.0000 0.60550  0.00900  0.63220  Biso   1.000  H
  H144     1.0000 0.39450  0.50900  0.86780  Biso   1.000  H
  C101     1.0000 0.34738  0.24050  0.40444  Biso   1.000  C
  C102     1.0000 0.65262  0.74050  0.09556  Biso   1.000  C
  C103     1.0000 0.65262  0.75950  0.59556  Biso   1.000  C
  C104     1.0000 0.34738  0.25950  0.90444  Biso   1.000  C
  H145     1.0000 0.35930  0.28420  0.44770  Biso   1.000  H
  H146     1.0000 0.64070  0.78420  0.05230  Biso   1.000  H
  H147     1.0000 0.64070  0.71580  0.55230  Biso   1.000  H
  H148     1.0000 0.35930  0.21580  0.94770  Biso   1.000  H
  H149     1.0000 0.29810  0.22160  0.38300  Biso   1.000  H
  H150     1.0000 0.70190  0.72160  0.11700  Biso   1.000  H
  H151     1.0000 0.70190  0.77840  0.61700  Biso   1.000  H
  H152     1.0000 0.29810  0.27840  0.88300  Biso   1.000  H
  C105     1.0000 0.31495  0.98490  0.20956  Biso   1.000  C
  C106     1.0000 0.68505  0.48490  0.29044  Biso   1.000  C
  C107     1.0000 0.68505  0.01510  0.79044  Biso   1.000  C
  C108     1.0000 0.31495  0.51510  0.70956  Biso   1.000  C
  H153     1.0000 0.28630  0.95900  0.22850  Biso   1.000  H
  H154     1.0000 0.71370  0.45900  0.27150  Biso   1.000  H
  H155     1.0000 0.71370  0.04100  0.77150  Biso   1.000  H
  H156     1.0000 0.28630  0.54100  0.72850  Biso   1.000  H
  C109     1.0000 0.39180  0.07620  0.19390  Biso   1.000  C
  C110     1.0000 0.60820  0.57620  0.30610  Biso   1.000  C
  C111     1.0000 0.60820  0.92380  0.80610  Biso   1.000  C
  C112     1.0000 0.39180  0.42380  0.69390  Biso   1.000  C
  H157     1.0000 0.42770  0.12720  0.20020  Biso   1.000  H
  H158     1.0000 0.57230  0.62720  0.29980  Biso   1.000  H
  H159     1.0000 0.57230  0.87280  0.79980  Biso   1.000  H
  H160     1.0000 0.42770  0.37280  0.70020  Biso   1.000  H
  C113     1.0000 0.31715  0.49510  0.38386  Biso   1.000  C
  C114     1.0000 0.68285  0.99510  0.11614  Biso   1.000  C
  C115     1.0000 0.68285  0.50490  0.61614  Biso   1.000  C
  C116     1.0000 0.31715  0.00490  0.88386  Biso   1.000  C
  H161     1.0000 0.34260  0.48670  0.43290  Biso   1.000  H
  H162     1.0000 0.65740  0.98670  0.06710  Biso   1.000  H
  H163     1.0000 0.65740  0.51330  0.56710  Biso   1.000  H
  H164     1.0000 0.34260  0.01330  0.93290  Biso   1.000  H
  C117     1.0000 0.27617  0.46960  0.27235  Biso   1.000  C
  C118     1.0000 0.72383  0.96960  0.22765  Biso   1.000  C
  C119     1.0000 0.72383  0.53040  0.72765  Biso   1.000  C
  C120     1.0000 0.27617  0.03040  0.77235  Biso   1.000  C
  H165     1.0000 0.26780  0.43800  0.22870  Biso   1.000  H
  H166     1.0000 0.73220  0.93800  0.27130  Biso   1.000  H
  H167     1.0000 0.73220  0.56200  0.77130  Biso   1.000  H
  H168     1.0000 0.26780  0.06200  0.72870  Biso   1.000  H
  O45      1.0000 0.55759  0.93970  0.26155  Biso   1.000  O
  O46      1.0000 0.44241  0.43970  0.23845  Biso   1.000  O
  O47      1.0000 0.44241  0.06030  0.73845  Biso   1.000  O
  O48      1.0000 0.55759  0.56030  0.76155  Biso   1.000  O
  H169     1.0000 0.53170  0.91800  0.27910  Biso   1.000  H
  H170     1.0000 0.46830  0.41800  0.22090  Biso   1.000  H
  H171     1.0000 0.46830  0.08200  0.72090  Biso   1.000  H
  H172     1.0000 0.53170  0.58200  0.77910  Biso   1.000  H
  H173     1.0000 0.54800  0.00970  0.24850  Biso   1.000  H
  H174     1.0000 0.45200  0.50970  0.25150  Biso   1.000  H
  H175     1.0000 0.45200  0.99030  0.75150  Biso   1.000  H
  H176     1.0000 0.54800  0.49030  0.74850  Biso   1.000  H
  O49      1.0000 0.68297  0.98790  0.38001  Biso   1.000  O
  O50      1.0000 0.31703  0.48790  0.11999  Biso   1.000  O
  O51      1.0000 0.31703  0.01210  0.61999  Biso   1.000  O
  O52      1.0000 0.68297  0.51210  0.88001  Biso   1.000  O
  H177     1.0000 0.65100  0.95920  0.34260  Biso   1.000  H
  H178     1.0000 0.34900  0.45920  0.15740  Biso   1.000  H
  H179     1.0000 0.34900  0.04080  0.65740  Biso   1.000  H
  H180     1.0000 0.65100  0.54080  0.84260  Biso   1.000  H
  H181     1.0000 0.66780  0.99570  0.40980  Biso   1.000  H
  H182     1.0000 0.33220  0.49570  0.09020  Biso   1.000  H
  H183     1.0000 0.33220  0.00430  0.59020  Biso   1.000  H
  H184     1.0000 0.66780  0.50430  0.90980  Biso   1.000  H
  O53      1.0000 0.60060  0.96140  0.44721  Biso   1.000  O
  O54      1.0000 0.39940  0.46140  0.05279  Biso   1.000  O
  O55      1.0000 0.39940  0.03860  0.55279  Biso   1.000  O
  O56      1.0000 0.60060  0.53860  0.94721  Biso   1.000  O
  H185     1.0000 0.56760  0.91860  0.41930  Biso   1.000  H
  H186     1.0000 0.43240  0.41860  0.08070  Biso   1.000  H
  H187     1.0000 0.43240  0.08140  0.58070  Biso   1.000  H
  H188     1.0000 0.56760  0.58140  0.91930  Biso   1.000  H
  H189     1.0000 0.60720  0.94870  0.48890  Biso   1.000  H
  H190     1.0000 0.39280  0.44870  0.01110  Biso   1.000  H
  H191     1.0000 0.39280  0.05130  0.51110  Biso   1.000  H
  H192     1.0000 0.60720  0.55130  0.98890  Biso   1.000  H
  O57      1.0000 0.83740  0.80600  0.21069  Biso   1.000  O
  O58      1.0000 0.16260  0.30600  0.28931  Biso   1.000  O
  O59      1.0000 0.16260  0.19400  0.78931  Biso   1.000  O
  O60      1.0000 0.83740  0.69400  0.71069  Biso   1.000  O
  H193     1.0000 0.84010  0.73260  0.21280  Biso   1.000  H
  H194     1.0000 0.15990  0.23260  0.28720  Biso   1.000  H
  H195     1.0000 0.15990  0.26740  0.78720  Biso   1.000  H
  H196     1.0000 0.84010  0.76740  0.71280  Biso   1.000  H
  H197     1.0000 0.85830  0.83260  0.25230  Biso   1.000  H
  H198     1.0000 0.14170  0.33260  0.24770  Biso   1.000  H
  H199     1.0000 0.14170  0.16740  0.74770  Biso   1.000  H
  H200     1.0000 0.85830  0.66740  0.75230  Biso   1.000  H
  O61      1.0000 0.41709  0.04850  0.04195  Biso   1.000  O
  O62      1.0000 0.58291  0.54850  0.45805  Biso   1.000  O
  O63      1.0000 0.58291  0.95150  0.95805  Biso   1.000  O
  O64      1.0000 0.41709  0.45150  0.54195  Biso   1.000  O
  H201     1.0000 0.40050  0.02620  0.06880  Biso   1.000  H
  H202     1.0000 0.59950  0.52620  0.43120  Biso   1.000  H
  H203     1.0000 0.59950  0.97380  0.93120  Biso   1.000  H
  H204     1.0000 0.40050  0.47380  0.56880  Biso   1.000  H
  H205     1.0000 0.45450  0.08470  0.06670  Biso   1.000  H
  H206     1.0000 0.54550  0.58470  0.43330  Biso   1.000  H
  H207     1.0000 0.54550  0.91530  0.93330  Biso   1.000  H
  H208     1.0000 0.45450  0.41530  0.56670  Biso   1.000  H
  O65      1.0000 0.04413  0.63370  0.44978  Biso   1.000  O
  O66      1.0000 0.95587  0.13370  0.05022  Biso   1.000  O
  O67      1.0000 0.95587  0.36630  0.55022  Biso   1.000  O
  O68      1.0000 0.04413  0.86630  0.94978  Biso   1.000  O
  H209     1.0000 0.06920  0.65080  0.43040  Biso   1.000  H
  H210     1.0000 0.93080  0.15080  0.06960  Biso   1.000  H
  H211     1.0000 0.93080  0.34920  0.56960  Biso   1.000  H
  H212     1.0000 0.06920  0.84920  0.93040  Biso   1.000  H
  H213     1.0000 0.00870  0.59770  0.42000  Biso   1.000  H
  H214     1.0000 0.99130  0.09770  0.08000  Biso   1.000  H
  H215     1.0000 0.99130  0.40230  0.58000  Biso   1.000  H
  H216     1.0000 0.00870  0.90230  0.92000  Biso   1.000  H
  O69      1.0000 0.92890  0.82660  0.36450  Biso   1.000  O
  O70      1.0000 0.07110  0.32660  0.13550  Biso   1.000  O
  O71      1.0000 0.07110  0.17340  0.63550  Biso   1.000  O
  O72      1.0000 0.92890  0.67340  0.86450  Biso   1.000  O
  H217     1.0000 0.91380  0.75820  0.36270  Biso   1.000  H
  H218     1.0000 0.08620  0.25820  0.13730  Biso   1.000  H
  H219     1.0000 0.08620  0.24180  0.63730  Biso   1.000  H
  H220     1.0000 0.91380  0.74180  0.86270  Biso   1.000  H
  H221     1.0000 0.94930  0.84780  0.40720  Biso   1.000  H
  H222     1.0000 0.05070  0.34780  0.09280  Biso   1.000  H
  H223     1.0000 0.05070  0.15220  0.59280  Biso   1.000  H
  H224     1.0000 0.94930  0.65220  0.90720  Biso   1.000  H
