data_image0
_cell_length_a       17.1623
_cell_length_b       13.156
_cell_length_c       12.8631
_cell_angle_alpha    90
_cell_angle_beta     90
_cell_angle_gamma    90

_symmetry_space_group_name_H-M    "P 1"
_symmetry_int_tables_number       1

loop_
  _symmetry_equiv_pos_as_xyz
  'x, y, z'

loop_
  _atom_site_label
  _atom_site_occupancy
  _atom_site_fract_x
  _atom_site_fract_y
  _atom_site_fract_z
  _atom_site_thermal_displace_type
  _atom_site_B_iso_or_equiv
  _atom_site_type_symbol
  Cu1      1.0000 0.06616  0.75000  0.83615  Biso   1.000  Cu
  Cu2      1.0000 0.43384  0.25000  0.33615  Biso   1.000  Cu
  Cu3      1.0000 0.56616  0.75000  0.66385  Biso   1.000  Cu
  Cu4      1.0000 0.93384  0.25000  0.16385  Biso   1.000  Cu
  O1       1.0000 0.94670  0.75000  0.89850  Biso   1.000  O
  O2       1.0000 0.55330  0.25000  0.39850  Biso   1.000  O
  O3       1.0000 0.44670  0.75000  0.60150  Biso   1.000  O
  O4       1.0000 0.05330  0.25000  0.10150  Biso   1.000  O
  H1       1.0000 0.91780  0.80230  0.89440  Biso   1.000  H
  H2       1.0000 0.58220  0.19770  0.39440  Biso   1.000  H
  H3       1.0000 0.41780  0.69770  0.60560  Biso   1.000  H
  H4       1.0000 0.08220  0.30230  0.10560  Biso   1.000  H
  H5       1.0000 0.08220  0.19770  0.10560  Biso   1.000  H
  H6       1.0000 0.41780  0.80230  0.60560  Biso   1.000  H
  H7       1.0000 0.58220  0.30230  0.39440  Biso   1.000  H
  H8       1.0000 0.91780  0.69770  0.89440  Biso   1.000  H
  N1       1.0000 0.07520  0.59750  0.83100  Biso   1.000  N
  N2       1.0000 0.42480  0.40250  0.33100  Biso   1.000  N
  N3       1.0000 0.57520  0.90250  0.66900  Biso   1.000  N
  N4       1.0000 0.92480  0.09750  0.16900  Biso   1.000  N
  N5       1.0000 0.92480  0.40250  0.16900  Biso   1.000  N
  N6       1.0000 0.57520  0.59750  0.66900  Biso   1.000  N
  N7       1.0000 0.42480  0.09750  0.33100  Biso   1.000  N
  N8       1.0000 0.07520  0.90250  0.83100  Biso   1.000  N
  N9       1.0000 0.05130  0.54150  0.91290  Biso   1.000  N
  N10      1.0000 0.44870  0.45850  0.41290  Biso   1.000  N
  N11      1.0000 0.55130  0.95850  0.58710  Biso   1.000  N
  N12      1.0000 0.94870  0.04150  0.08710  Biso   1.000  N
  N13      1.0000 0.94870  0.45850  0.08710  Biso   1.000  N
  N14      1.0000 0.55130  0.54150  0.58710  Biso   1.000  N
  N15      1.0000 0.44870  0.04150  0.41290  Biso   1.000  N
  N16      1.0000 0.05130  0.95850  0.91290  Biso   1.000  N
  N17      1.0000 0.08450  0.43850  0.78700  Biso   1.000  N
  N18      1.0000 0.41550  0.56150  0.28700  Biso   1.000  N
  N19      1.0000 0.58450  0.06150  0.71300  Biso   1.000  N
  N20      1.0000 0.91550  0.93850  0.21300  Biso   1.000  N
  N21      1.0000 0.91550  0.56150  0.21300  Biso   1.000  N
  N22      1.0000 0.58450  0.43850  0.71300  Biso   1.000  N
  N23      1.0000 0.41550  0.93850  0.28700  Biso   1.000  N
  N24      1.0000 0.08450  0.06150  0.78700  Biso   1.000  N
  N25      1.0000 0.95620  0.25000  0.31620  Biso   1.000  N
  N26      1.0000 0.54380  0.75000  0.81620  Biso   1.000  N
  N27      1.0000 0.45620  0.25000  0.18380  Biso   1.000  N
  N28      1.0000 0.04380  0.75000  0.68380  Biso   1.000  N
  N29      1.0000 0.89410  0.25000  0.38350  Biso   1.000  N
  N30      1.0000 0.60590  0.75000  0.88350  Biso   1.000  N
  N31      1.0000 0.39410  0.25000  0.11650  Biso   1.000  N
  N32      1.0000 0.10590  0.75000  0.61650  Biso   1.000  N
  N33      1.0000 0.00240  0.25000  0.47460  Biso   1.000  N
  N34      1.0000 0.49760  0.75000  0.97460  Biso   1.000  N
  N35      1.0000 0.50240  0.25000  0.02540  Biso   1.000  N
  N36      1.0000 0.99760  0.75000  0.52540  Biso   1.000  N
  N37      1.0000 0.37740  0.25000  0.47190  Biso   1.000  N
  N38      1.0000 0.12260  0.75000  0.97190  Biso   1.000  N
  N39      1.0000 0.87740  0.25000  0.02810  Biso   1.000  N
  N40      1.0000 0.62260  0.75000  0.52810  Biso   1.000  N
  N41      1.0000 0.40610  0.25000  0.57220  Biso   1.000  N
  N42      1.0000 0.09390  0.75000  0.07220  Biso   1.000  N
  N43      1.0000 0.90610  0.25000  0.92780  Biso   1.000  N
  N44      1.0000 0.59390  0.75000  0.42780  Biso   1.000  N
  N45      1.0000 0.27750  0.25000  0.57740  Biso   1.000  N
  N46      1.0000 0.22250  0.75000  0.07740  Biso   1.000  N
  N47      1.0000 0.77750  0.25000  0.92260  Biso   1.000  N
  N48      1.0000 0.72250  0.75000  0.42260  Biso   1.000  N
  C1       1.0000 0.09320  0.53440  0.75630  Biso   1.000  C
  C2       1.0000 0.40680  0.46560  0.25630  Biso   1.000  C
  C3       1.0000 0.59320  0.96560  0.74370  Biso   1.000  C
  C4       1.0000 0.90680  0.03440  0.24370  Biso   1.000  C
  C5       1.0000 0.90680  0.46560  0.24370  Biso   1.000  C
  C6       1.0000 0.59320  0.53440  0.74370  Biso   1.000  C
  C7       1.0000 0.40680  0.03440  0.25630  Biso   1.000  C
  C8       1.0000 0.09320  0.96560  0.75630  Biso   1.000  C
  H9       1.0000 0.11000  0.55410  0.68980  Biso   1.000  H
  H10      1.0000 0.39000  0.44590  0.18980  Biso   1.000  H
  H11      1.0000 0.61000  0.94590  0.81020  Biso   1.000  H
  H12      1.0000 0.89000  0.05410  0.31020  Biso   1.000  H
  H13      1.0000 0.89000  0.44590  0.31020  Biso   1.000  H
  H14      1.0000 0.61000  0.55410  0.81020  Biso   1.000  H
  H15      1.0000 0.39000  0.05410  0.18980  Biso   1.000  H
  H16      1.0000 0.11000  0.94590  0.68980  Biso   1.000  H
  C9       1.0000 0.05720  0.44580  0.88500  Biso   1.000  C
  C10      1.0000 0.44280  0.55420  0.38500  Biso   1.000  C
  C11      1.0000 0.55720  0.05420  0.61500  Biso   1.000  C
  C12      1.0000 0.94280  0.94580  0.11500  Biso   1.000  C
  C13      1.0000 0.94280  0.55420  0.11500  Biso   1.000  C
  C14      1.0000 0.55720  0.44580  0.61500  Biso   1.000  C
  C15      1.0000 0.44280  0.94580  0.38500  Biso   1.000  C
  C16      1.0000 0.05720  0.05420  0.88500  Biso   1.000  C
  H17      1.0000 0.04420  0.39010  0.92750  Biso   1.000  H
  H18      1.0000 0.45580  0.60990  0.42750  Biso   1.000  H
  H19      1.0000 0.54420  0.10990  0.57250  Biso   1.000  H
  H20      1.0000 0.95580  0.89010  0.07250  Biso   1.000  H
  H21      1.0000 0.95580  0.60990  0.07250  Biso   1.000  H
  H22      1.0000 0.54420  0.39010  0.57250  Biso   1.000  H
  H23      1.0000 0.45580  0.89010  0.42750  Biso   1.000  H
  H24      1.0000 0.04420  0.10990  0.92750  Biso   1.000  H
  C17      1.0000 0.02160  0.25000  0.37180  Biso   1.000  C
  C18      1.0000 0.47840  0.75000  0.87180  Biso   1.000  C
  C19      1.0000 0.52160  0.25000  0.12820  Biso   1.000  C
  C20      1.0000 0.97840  0.75000  0.62820  Biso   1.000  C
  H25      1.0000 0.07250  0.25000  0.34470  Biso   1.000  H
  H26      1.0000 0.42750  0.75000  0.84470  Biso   1.000  H
  H27      1.0000 0.57250  0.25000  0.15530  Biso   1.000  H
  H28      1.0000 0.92750  0.75000  0.65530  Biso   1.000  H
  C21      1.0000 0.92320  0.25000  0.47430  Biso   1.000  C
  C22      1.0000 0.57680  0.75000  0.97430  Biso   1.000  C
  C23      1.0000 0.42320  0.25000  0.02570  Biso   1.000  C
  C24      1.0000 0.07680  0.75000  0.52570  Biso   1.000  C
  H29      1.0000 0.89290  0.25000  0.53520  Biso   1.000  H
  H30      1.0000 0.60710  0.75000  0.03520  Biso   1.000  H
  H31      1.0000 0.39290  0.25000  0.96480  Biso   1.000  H
  H32      1.0000 0.10710  0.75000  0.46480  Biso   1.000  H
  C25      1.0000 0.30140  0.25000  0.47750  Biso   1.000  C
  C26      1.0000 0.19860  0.75000  0.97750  Biso   1.000  C
  C27      1.0000 0.80140  0.25000  0.02250  Biso   1.000  C
  C28      1.0000 0.69860  0.75000  0.52250  Biso   1.000  C
  H33      1.0000 0.26790  0.25000  0.41970  Biso   1.000  H
  H34      1.0000 0.23210  0.75000  0.91970  Biso   1.000  H
  H35      1.0000 0.76790  0.25000  0.08030  Biso   1.000  H
  H36      1.0000 0.73210  0.75000  0.58030  Biso   1.000  H
  C29      1.0000 0.34390  0.25000  0.63280  Biso   1.000  C
  C30      1.0000 0.15610  0.75000  0.13280  Biso   1.000  C
  C31      1.0000 0.84390  0.25000  0.86720  Biso   1.000  C
  C32      1.0000 0.65610  0.75000  0.36720  Biso   1.000  C
  H37      1.0000 0.34580  0.25000  0.70580  Biso   1.000  H
  H38      1.0000 0.15420  0.75000  0.20580  Biso   1.000  H
  H39      1.0000 0.84580  0.25000  0.79420  Biso   1.000  H
  H40      1.0000 0.65420  0.75000  0.29420  Biso   1.000  H
  C33      1.0000 0.09890  0.34500  0.72350  Biso   1.000  C
  C34      1.0000 0.40110  0.65500  0.22350  Biso   1.000  C
  C35      1.0000 0.59890  0.15500  0.77650  Biso   1.000  C
  C36      1.0000 0.90110  0.84500  0.27650  Biso   1.000  C
  C37      1.0000 0.90110  0.65500  0.27650  Biso   1.000  C
  C38      1.0000 0.59890  0.34500  0.77650  Biso   1.000  C
  C39      1.0000 0.40110  0.84500  0.22350  Biso   1.000  C
  C40      1.0000 0.09890  0.15500  0.72350  Biso   1.000  C
  C41      1.0000 0.04140  0.34580  0.63100  Biso   1.000  C
  C42      1.0000 0.45860  0.65420  0.13100  Biso   1.000  C
  C43      1.0000 0.54140  0.15420  0.86900  Biso   1.000  C
  C44      1.0000 0.95860  0.84580  0.36900  Biso   1.000  C
  C45      1.0000 0.95860  0.65420  0.36900  Biso   1.000  C
  C46      1.0000 0.54140  0.34580  0.86900  Biso   1.000  C
  C47      1.0000 0.45860  0.84580  0.13100  Biso   1.000  C
  C48      1.0000 0.04140  0.15420  0.63100  Biso   1.000  C
  H41      1.0000 0.98760  0.34580  0.65640  Biso   1.000  H
  H42      1.0000 0.51240  0.65420  0.15640  Biso   1.000  H
  H43      1.0000 0.48760  0.15420  0.84360  Biso   1.000  H
  H44      1.0000 0.01240  0.84580  0.34360  Biso   1.000  H
  H45      1.0000 0.01240  0.65420  0.34360  Biso   1.000  H
  H46      1.0000 0.48760  0.34580  0.84360  Biso   1.000  H
  H47      1.0000 0.51240  0.84580  0.15640  Biso   1.000  H
  H48      1.0000 0.98760  0.15420  0.65640  Biso   1.000  H
  H49      1.0000 0.04930  0.40690  0.58870  Biso   1.000  H
  H50      1.0000 0.45070  0.59310  0.08870  Biso   1.000  H
  H51      1.0000 0.54930  0.09310  0.91130  Biso   1.000  H
  H52      1.0000 0.95070  0.90690  0.41130  Biso   1.000  H
  H53      1.0000 0.95070  0.59310  0.41130  Biso   1.000  H
  H54      1.0000 0.54930  0.40690  0.91130  Biso   1.000  H
  H55      1.0000 0.45070  0.90690  0.08870  Biso   1.000  H
  H56      1.0000 0.04930  0.09310  0.58870  Biso   1.000  H
  C49      1.0000 0.05700  0.25000  0.56580  Biso   1.000  C
  C50      1.0000 0.44300  0.75000  0.06580  Biso   1.000  C
  C51      1.0000 0.55700  0.25000  0.93420  Biso   1.000  C
  C52      1.0000 0.94300  0.75000  0.43420  Biso   1.000  C
  C53      1.0000 0.14020  0.25000  0.52460  Biso   1.000  C
  C54      1.0000 0.35980  0.75000  0.02460  Biso   1.000  C
  C55      1.0000 0.64020  0.25000  0.97540  Biso   1.000  C
  C56      1.0000 0.85980  0.75000  0.47540  Biso   1.000  C
  H57      1.0000 0.14910  0.31040  0.48170  Biso   1.000  H
  H58      1.0000 0.35090  0.68960  0.98170  Biso   1.000  H
  H59      1.0000 0.64910  0.18960  0.01830  Biso   1.000  H
  H60      1.0000 0.85090  0.81040  0.51830  Biso   1.000  H
  H61      1.0000 0.85090  0.68960  0.51830  Biso   1.000  H
  H62      1.0000 0.64910  0.31040  0.01830  Biso   1.000  H
  H63      1.0000 0.35090  0.81040  0.98170  Biso   1.000  H
  H64      1.0000 0.14910  0.18960  0.48170  Biso   1.000  H
  C57      1.0000 0.19680  0.25000  0.61820  Biso   1.000  C
  C58      1.0000 0.30320  0.75000  0.11820  Biso   1.000  C
  C59      1.0000 0.69680  0.25000  0.88180  Biso   1.000  C
  C60      1.0000 0.80320  0.75000  0.38180  Biso   1.000  C
  C61      1.0000 0.18350  0.34620  0.68370  Biso   1.000  C
  C62      1.0000 0.31650  0.65380  0.18370  Biso   1.000  C
  C63      1.0000 0.68350  0.15380  0.81630  Biso   1.000  C
  C64      1.0000 0.81650  0.84620  0.31630  Biso   1.000  C
  C65      1.0000 0.81650  0.65380  0.31630  Biso   1.000  C
  C66      1.0000 0.68350  0.34620  0.81630  Biso   1.000  C
  C67      1.0000 0.31650  0.84620  0.18370  Biso   1.000  C
  C68      1.0000 0.18350  0.15380  0.68370  Biso   1.000  C
  H65      1.0000 0.19260  0.40690  0.64120  Biso   1.000  H
  H66      1.0000 0.30740  0.59310  0.14120  Biso   1.000  H
  H67      1.0000 0.69260  0.09310  0.85880  Biso   1.000  H
  H68      1.0000 0.80740  0.90690  0.35880  Biso   1.000  H
  H69      1.0000 0.80740  0.59310  0.35880  Biso   1.000  H
  H70      1.0000 0.69260  0.40690  0.85880  Biso   1.000  H
  H71      1.0000 0.30740  0.90690  0.14120  Biso   1.000  H
  H72      1.0000 0.19260  0.09310  0.64120  Biso   1.000  H
  H73      1.0000 0.21980  0.34750  0.74250  Biso   1.000  H
  H74      1.0000 0.28020  0.65250  0.24250  Biso   1.000  H
  H75      1.0000 0.71980  0.15250  0.75750  Biso   1.000  H
  H76      1.0000 0.78020  0.84750  0.25750  Biso   1.000  H
  H77      1.0000 0.78020  0.65250  0.25750  Biso   1.000  H
  H78      1.0000 0.71980  0.34750  0.75750  Biso   1.000  H
  H79      1.0000 0.28020  0.84750  0.24250  Biso   1.000  H
  H80      1.0000 0.21980  0.15250  0.74250  Biso   1.000  H
  C69      1.0000 0.08580  0.25000  0.78980  Biso   1.000  C
  C70      1.0000 0.41420  0.75000  0.28980  Biso   1.000  C
  C71      1.0000 0.58580  0.25000  0.71020  Biso   1.000  C
  C72      1.0000 0.91420  0.75000  0.21020  Biso   1.000  C
  H81      1.0000 0.12200  0.25000  0.84870  Biso   1.000  H
  H82      1.0000 0.37800  0.75000  0.34870  Biso   1.000  H
  H83      1.0000 0.62200  0.25000  0.65130  Biso   1.000  H
  H84      1.0000 0.87800  0.75000  0.15130  Biso   1.000  H
  H85      1.0000 0.03250  0.25000  0.81730  Biso   1.000  H
  H86      1.0000 0.46750  0.75000  0.31730  Biso   1.000  H
  H87      1.0000 0.53250  0.25000  0.68270  Biso   1.000  H
  H88      1.0000 0.96750  0.75000  0.18270  Biso   1.000  H
  O5       1.0000 0.25410  0.25000  0.23410  Biso   1.000  O
  O6       1.0000 0.24590  0.75000  0.73410  Biso   1.000  O
  O7       1.0000 0.75410  0.25000  0.26590  Biso   1.000  O
  O8       1.0000 0.74590  0.75000  0.76590  Biso   1.000  O
  O9       1.0000 0.83570  0.90400  0.88160  Biso   1.000  O
  O10      1.0000 0.66430  0.09600  0.38160  Biso   1.000  O
  O11      1.0000 0.33570  0.59600  0.61840  Biso   1.000  O
  O12      1.0000 0.16430  0.40400  0.11840  Biso   1.000  O
  O13      1.0000 0.16430  0.09600  0.11840  Biso   1.000  O
  O14      1.0000 0.33570  0.90400  0.61840  Biso   1.000  O
  O15      1.0000 0.66430  0.40400  0.38160  Biso   1.000  O
  O16      1.0000 0.83570  0.59600  0.88160  Biso   1.000  O
  O17      1.0000 0.13650  0.97180  0.49400  Biso   1.000  O
  O18      1.0000 0.36350  0.02820  0.99400  Biso   1.000  O
  O19      1.0000 0.63650  0.52820  0.00600  Biso   1.000  O
  O20      1.0000 0.86350  0.47180  0.50600  Biso   1.000  O
  O21      1.0000 0.86350  0.02820  0.50600  Biso   1.000  O
  O22      1.0000 0.63650  0.97180  0.00600  Biso   1.000  O
  O23      1.0000 0.36350  0.47180  0.99400  Biso   1.000  O
  O24      1.0000 0.13650  0.52820  0.49400  Biso   1.000  O
  Cl1      1.0000 0.16480  0.97370  0.39020  Biso   1.000  Cl
  Cl2      1.0000 0.33520  0.02630  0.89020  Biso   1.000  Cl
  Cl3      1.0000 0.66480  0.52630  0.10980  Biso   1.000  Cl
  Cl4      1.0000 0.83520  0.47370  0.60980  Biso   1.000  Cl
  Cl5      1.0000 0.83520  0.02630  0.60980  Biso   1.000  Cl
  Cl6      1.0000 0.66480  0.97370  0.10980  Biso   1.000  Cl
  Cl7      1.0000 0.33520  0.47370  0.89020  Biso   1.000  Cl
  Cl8      1.0000 0.16480  0.52630  0.39020  Biso   1.000  Cl
  O25      1.0000 0.11170  0.03280  0.33200  Biso   1.000  O
  O26      1.0000 0.38830  0.96720  0.83200  Biso   1.000  O
  O27      1.0000 0.61170  0.46720  0.16800  Biso   1.000  O
  O28      1.0000 0.88830  0.53280  0.66800  Biso   1.000  O
  O29      1.0000 0.88830  0.96720  0.66800  Biso   1.000  O
  O30      1.0000 0.61170  0.03280  0.16800  Biso   1.000  O
  O31      1.0000 0.38830  0.53280  0.83200  Biso   1.000  O
  O32      1.0000 0.11170  0.46720  0.33200  Biso   1.000  O
  O33      1.0000 0.16720  0.87450  0.35090  Biso   1.000  O
  O34      1.0000 0.33280  0.12550  0.85090  Biso   1.000  O
  O35      1.0000 0.66720  0.62550  0.14910  Biso   1.000  O
  O36      1.0000 0.83280  0.37450  0.64910  Biso   1.000  O
  O37      1.0000 0.83280  0.12550  0.64910  Biso   1.000  O
  O38      1.0000 0.66720  0.87450  0.14910  Biso   1.000  O
  O39      1.0000 0.33280  0.37450  0.85090  Biso   1.000  O
  O40      1.0000 0.16720  0.62550  0.35090  Biso   1.000  O
  O41      1.0000 0.23900  0.01850  0.38700  Biso   1.000  O
  O42      1.0000 0.26100  0.98150  0.88700  Biso   1.000  O
  O43      1.0000 0.73900  0.48150  0.11300  Biso   1.000  O
  O44      1.0000 0.76100  0.51850  0.61300  Biso   1.000  O
  O45      1.0000 0.76100  0.98150  0.61300  Biso   1.000  O
  O46      1.0000 0.73900  0.01850  0.11300  Biso   1.000  O
  O47      1.0000 0.26100  0.51850  0.88700  Biso   1.000  O
  O48      1.0000 0.23900  0.48150  0.38700  Biso   1.000  O
  Cl9      1.0000 0.18310  0.96250  0.40640  Biso   1.000  Cl
  Cl10     1.0000 0.31690  0.03750  0.90640  Biso   1.000  Cl
  Cl11     1.0000 0.68310  0.53750  0.09360  Biso   1.000  Cl
  Cl12     1.0000 0.81690  0.46250  0.59360  Biso   1.000  Cl
  Cl13     1.0000 0.81690  0.03750  0.59360  Biso   1.000  Cl
  Cl14     1.0000 0.68310  0.96250  0.09360  Biso   1.000  Cl
  Cl15     1.0000 0.31690  0.46250  0.90640  Biso   1.000  Cl
  Cl16     1.0000 0.18310  0.53750  0.40640  Biso   1.000  Cl
  O49      1.0000 0.23570  0.88700  0.44000  Biso   1.000  O
  O50      1.0000 0.26430  0.11300  0.94000  Biso   1.000  O
  O51      1.0000 0.73570  0.61300  0.06000  Biso   1.000  O
  O52      1.0000 0.76430  0.38700  0.56000  Biso   1.000  O
  O53      1.0000 0.76430  0.11300  0.56000  Biso   1.000  O
  O54      1.0000 0.73570  0.88700  0.06000  Biso   1.000  O
  O55      1.0000 0.26430  0.38700  0.94000  Biso   1.000  O
  O56      1.0000 0.23570  0.61300  0.44000  Biso   1.000  O
  O57      1.0000 0.20360  0.25000  0.27200  Biso   1.000  O
  O58      1.0000 0.29640  0.75000  0.77200  Biso   1.000  O
  O59      1.0000 0.70360  0.25000  0.22800  Biso   1.000  O
  O60      1.0000 0.79640  0.75000  0.72800  Biso   1.000  O
  O61      1.0000 0.22250  0.05340  0.38400  Biso   1.000  O
  O62      1.0000 0.27750  0.94660  0.88400  Biso   1.000  O
  O63      1.0000 0.72250  0.44660  0.11600  Biso   1.000  O
  O64      1.0000 0.77750  0.55340  0.61600  Biso   1.000  O
  O65      1.0000 0.77750  0.94660  0.61600  Biso   1.000  O
  O66      1.0000 0.72250  0.05340  0.11600  Biso   1.000  O
  O67      1.0000 0.27750  0.55340  0.88400  Biso   1.000  O
  O68      1.0000 0.22250  0.44660  0.38400  Biso   1.000  O
  O69      1.0000 0.14120  0.92900  0.32000  Biso   1.000  O
  O70      1.0000 0.35880  0.07100  0.82000  Biso   1.000  O
  O71      1.0000 0.64120  0.57100  0.18000  Biso   1.000  O
  O72      1.0000 0.85880  0.42900  0.68000  Biso   1.000  O
  O73      1.0000 0.85880  0.07100  0.68000  Biso   1.000  O
  O74      1.0000 0.64120  0.92900  0.18000  Biso   1.000  O
  O75      1.0000 0.35880  0.42900  0.82000  Biso   1.000  O
  O76      1.0000 0.14120  0.57100  0.32000  Biso   1.000  O
  O77      1.0000 0.87700  0.98300  0.87100  Biso   1.000  O
  O78      1.0000 0.62300  0.01700  0.37100  Biso   1.000  O
  O79      1.0000 0.37700  0.51700  0.62900  Biso   1.000  O
  O80      1.0000 0.12300  0.48300  0.12900  Biso   1.000  O
  O81      1.0000 0.12300  0.01700  0.12900  Biso   1.000  O
  O82      1.0000 0.37700  0.98300  0.62900  Biso   1.000  O
  O83      1.0000 0.62300  0.48300  0.37100  Biso   1.000  O
  O84      1.0000 0.87700  0.51700  0.87100  Biso   1.000  O
