data_image0
_cell_length_a       9.362
_cell_length_b       11.3576
_cell_length_c       12.7103
_cell_angle_alpha    105.904
_cell_angle_beta     102.714
_cell_angle_gamma    101.328

_symmetry_space_group_name_H-M    "P 1"
_symmetry_int_tables_number       1

loop_
  _symmetry_equiv_pos_as_xyz
  'x, y, z'

loop_
  _atom_site_label
  _atom_site_occupancy
  _atom_site_fract_x
  _atom_site_fract_y
  _atom_site_fract_z
  _atom_site_thermal_displace_type
  _atom_site_B_iso_or_equiv
  _atom_site_type_symbol
  Cu1      1.0000 0.50000  0.50000  0.50000  Biso   1.000  Cu
  O1       1.0000 0.46040  0.85100  0.31599  Biso   1.000  O
  O2       1.0000 0.53960  0.14900  0.68401  Biso   1.000  O
  O3       1.0000 0.71260  0.94076  0.36964  Biso   1.000  O
  O4       1.0000 0.28740  0.05924  0.63036  Biso   1.000  O
  O5       1.0000 0.74130  0.92050  0.90060  Biso   1.000  O
  O6       1.0000 0.25870  0.07950  0.09940  Biso   1.000  O
  O7       1.0000 0.74870  0.92770  0.08011  Biso   1.000  O
  O8       1.0000 0.25130  0.07230  0.91989  Biso   1.000  O
  O9       1.0000 0.73090  0.57480  0.08658  Biso   1.000  O
  O10      1.0000 0.26910  0.42520  0.91342  Biso   1.000  O
  O11      1.0000 0.95680  0.63755  0.05394  Biso   1.000  O
  O12      1.0000 0.04320  0.36245  0.94606  Biso   1.000  O
  N1       1.0000 0.94730  0.85430  0.24340  Biso   1.000  N
  N2       1.0000 0.05270  0.14570  0.75660  Biso   1.000  N
  N3       1.0000 0.52500  0.32310  0.46781  Biso   1.000  N
  N4       1.0000 0.47500  0.67690  0.53219  Biso   1.000  N
  N5       1.0000 0.20240  0.71400  0.88140  Biso   1.000  N
  N6       1.0000 0.79760  0.28600  0.11860  Biso   1.000  N
  N7       1.0000 0.59980  0.53860  0.67053  Biso   1.000  N
  N8       1.0000 0.40020  0.46140  0.32947  Biso   1.000  N
  N9       1.0000 0.89330  0.62050  0.48350  Biso   1.000  N
  N10      1.0000 0.10670  0.37950  0.51650  Biso   1.000  N
  O13      1.0000 0.75520  0.56600  0.46660  Biso   1.000  O
  O14      1.0000 0.24480  0.43400  0.53340  Biso   1.000  O
  O15      1.0000 0.96160  0.57660  0.41540  Biso   1.000  O
  O16      1.0000 0.03840  0.42340  0.58460  Biso   1.000  O
  O17      1.0000 0.95640  0.71940  0.56697  Biso   1.000  O
  O18      1.0000 0.04360  0.28060  0.43303  Biso   1.000  O
  C1       1.0000 0.40180  0.22030  0.42130  Biso   1.000  C
  C2       1.0000 0.59820  0.77970  0.57870  Biso   1.000  C
  H1       1.0000 0.30310  0.23310  0.41120  Biso   1.000  H
  H2       1.0000 0.69690  0.76690  0.58880  Biso   1.000  H
  C3       1.0000 0.41510  0.09810  0.38810  Biso   1.000  C
  C4       1.0000 0.58490  0.90190  0.61190  Biso   1.000  C
  H3       1.0000 0.32640  0.02800  0.35640  Biso   1.000  H
  H4       1.0000 0.67360  0.97200  0.64360  Biso   1.000  H
  C5       1.0000 0.55760  0.07730  0.40100  Biso   1.000  C
  C6       1.0000 0.44240  0.92270  0.59900  Biso   1.000  C
  C7       1.0000 0.68450  0.18180  0.45130  Biso   1.000  C
  C8       1.0000 0.31550  0.81820  0.54870  Biso   1.000  C
  H5       1.0000 0.78410  0.17070  0.46330  Biso   1.000  H
  H6       1.0000 0.21590  0.82930  0.53670  Biso   1.000  H
  C9       1.0000 0.66400  0.30200  0.48350  Biso   1.000  C
  C10      1.0000 0.33600  0.69800  0.51650  Biso   1.000  C
  H7       1.0000 0.75140  0.37310  0.51820  Biso   1.000  H
  H8       1.0000 0.24860  0.62690  0.48180  Biso   1.000  H
  C11      1.0000 0.56840  0.94330  0.35750  Biso   1.000  C
  C12      1.0000 0.43160  0.05670  0.64250  Biso   1.000  C
  C13      1.0000 0.73770  0.81500  0.33050  Biso   1.000  C
  C14      1.0000 0.26230  0.18500  0.66950  Biso   1.000  C
  H9       1.0000 0.67660  0.76960  0.24990  Biso   1.000  H
  H10      1.0000 0.32340  0.23040  0.75010  Biso   1.000  H
  H11      1.0000 0.70600  0.76400  0.37750  Biso   1.000  H
  H12      1.0000 0.29400  0.23600  0.62250  Biso   1.000  H
  C15      1.0000 0.90430  0.83170  0.34120  Biso   1.000  C
  C16      1.0000 0.09570  0.16830  0.65880  Biso   1.000  C
  H13      1.0000 0.96420  0.90440  0.41100  Biso   1.000  H
  H14      1.0000 0.03580  0.09560  0.58900  Biso   1.000  H
  H15      1.0000 0.93120  0.75450  0.35080  Biso   1.000  H
  H16      1.0000 0.06880  0.24550  0.64920  Biso   1.000  H
  C17      1.0000 0.26950  0.73520  0.80420  Biso   1.000  C
  C18      1.0000 0.73050  0.26480  0.19580  Biso   1.000  C
  H17      1.0000 0.20910  0.70770  0.72680  Biso   1.000  H
  H18      1.0000 0.79090  0.29230  0.27320  Biso   1.000  H
  C19      1.0000 0.42240  0.79500  0.83000  Biso   1.000  C
  C20      1.0000 0.57760  0.20500  0.17000  Biso   1.000  C
  H19      1.0000 0.46490  0.80760  0.77130  Biso   1.000  H
  H20      1.0000 0.53510  0.19240  0.22870  Biso   1.000  H
  C21      1.0000 0.51250  0.83590  0.94110  Biso   1.000  C
  C22      1.0000 0.48750  0.16410  0.05890  Biso   1.000  C
  C23      1.0000 0.44430  0.81230  0.02200  Biso   1.000  C
  C24      1.0000 0.55570  0.18770  0.97800  Biso   1.000  C
  H21      1.0000 0.50230  0.83730  0.09980  Biso   1.000  H
  H22      1.0000 0.49770  0.16270  0.90020  Biso   1.000  H
  C25      1.0000 0.29210  0.75240  0.98820  Biso   1.000  C
  C26      1.0000 0.70790  0.24760  0.01180  Biso   1.000  C
  H23      1.0000 0.24710  0.73710  0.04500  Biso   1.000  H
  H24      1.0000 0.75290  0.26290  0.95500  Biso   1.000  H
  C27      1.0000 0.67910  0.89930  0.96990  Biso   1.000  C
  C28      1.0000 0.32090  0.10070  0.03010  Biso   1.000  C
  C29      1.0000 0.91230  0.98550  0.11920  Biso   1.000  C
  C30      1.0000 0.08770  0.01450  0.88080  Biso   1.000  C
  H25      1.0000 0.93620  0.07350  0.11700  Biso   1.000  H
  H26      1.0000 0.06380  0.92650  0.88300  Biso   1.000  H
  H27      1.0000 0.96360  0.93540  0.07070  Biso   1.000  H
  H28      1.0000 0.03640  0.06460  0.92930  Biso   1.000  H
  C31      1.0000 0.96310  0.98520  0.24110  Biso   1.000  C
  C32      1.0000 0.03690  0.01480  0.75890  Biso   1.000  C
  H29      1.0000 0.07070  0.03580  0.27720  Biso   1.000  H
  H30      1.0000 0.92930  0.96420  0.72280  Biso   1.000  H
  H31      1.0000 0.90070  0.02560  0.28560  Biso   1.000  H
  H32      1.0000 0.09930  0.97440  0.71440  Biso   1.000  H
  C33      1.0000 0.51680  0.51160  0.73890  Biso   1.000  C
  C34      1.0000 0.48320  0.48840  0.26110  Biso   1.000  C
  H33      1.0000 0.40950  0.47900  0.70750  Biso   1.000  H
  H34      1.0000 0.59050  0.52100  0.29250  Biso   1.000  H
  C35      1.0000 0.58010  0.52890  0.85240  Biso   1.000  C
  C36      1.0000 0.41990  0.47110  0.14760  Biso   1.000  C
  H35      1.0000 0.51740  0.50710  0.89740  Biso   1.000  H
  H36      1.0000 0.48260  0.49290  0.10260  Biso   1.000  H
  C37      1.0000 0.73620  0.57860  0.90040  Biso   1.000  C
  C38      1.0000 0.26380  0.42140  0.09960  Biso   1.000  C
  C39      1.0000 0.82360  0.60900  0.83170  Biso   1.000  C
  C40      1.0000 0.17640  0.39100  0.16830  Biso   1.000  C
  H37      1.0000 0.93080  0.64360  0.86200  Biso   1.000  H
  H38      1.0000 0.06920  0.35640  0.13800  Biso   1.000  H
  C41      1.0000 0.75200  0.58800  0.71800  Biso   1.000  C
  C42      1.0000 0.24800  0.41200  0.28200  Biso   1.000  C
  H39      1.0000 0.81230  0.60920  0.67130  Biso   1.000  H
  H40      1.0000 0.18770  0.39080  0.32870  Biso   1.000  H
  C43      1.0000 0.80430  0.59670  0.02380  Biso   1.000  C
  C44      1.0000 0.19570  0.40330  0.97620  Biso   1.000  C
  C45      1.0000 0.03960  0.66780  0.17330  Biso   1.000  C
  C46      1.0000 0.96040  0.33220  0.82670  Biso   1.000  C
  H41      1.0000 0.13330  0.63890  0.17890  Biso   1.000  H
  H42      1.0000 0.86670  0.36110  0.82110  Biso   1.000  H
  H43      1.0000 0.97580  0.62360  0.21110  Biso   1.000  H
  H44      1.0000 0.02420  0.37640  0.78890  Biso   1.000  H
  C47      1.0000 0.08020  0.80930  0.23130  Biso   1.000  C
  C48      1.0000 0.91980  0.19070  0.76870  Biso   1.000  C
  H45      1.0000 0.15290  0.83210  0.30800  Biso   1.000  H
  H46      1.0000 0.84710  0.16790  0.69200  Biso   1.000  H
  H47      1.0000 0.13140  0.85270  0.18640  Biso   1.000  H
  H48      1.0000 0.86860  0.14730  0.81360  Biso   1.000  H
