data_image0
_cell_length_a       15.148
_cell_length_b       6.877
_cell_length_c       3.4591
_cell_angle_alpha    90
_cell_angle_beta     99.073
_cell_angle_gamma    90

_symmetry_space_group_name_H-M    "P 1"
_symmetry_int_tables_number       1

loop_
  _symmetry_equiv_pos_as_xyz
  'x, y, z'

loop_
  _atom_site_label
  _atom_site_occupancy
  _atom_site_fract_x
  _atom_site_fract_y
  _atom_site_fract_z
  _atom_site_thermal_displace_type
  _atom_site_B_iso_or_equiv
  _atom_site_type_symbol
  Cu1      1.0000 0.00000  0.50000  0.00000  Biso   1.000  Cu
  Cu2      1.0000 0.50000  0.00000  0.00000  Biso   1.000  Cu
  N1       1.0000 0.09560  0.50000  0.47070  Biso   1.000  N
  N2       1.0000 0.90440  0.50000  0.52930  Biso   1.000  N
  N3       1.0000 0.59560  0.00000  0.47070  Biso   1.000  N
  N4       1.0000 0.40440  0.00000  0.52930  Biso   1.000  N
  N5       1.0000 0.17240  0.50000  0.42770  Biso   1.000  N
  N6       1.0000 0.82760  0.50000  0.57230  Biso   1.000  N
  N7       1.0000 0.67240  0.00000  0.42770  Biso   1.000  N
  N8       1.0000 0.32760  0.00000  0.57230  Biso   1.000  N
  N9       1.0000 0.24630  0.50000  0.39010  Biso   1.000  N
  N10      1.0000 0.75370  0.50000  0.60990  Biso   1.000  N
  N11      1.0000 0.74630  0.00000  0.39010  Biso   1.000  N
  N12      1.0000 0.25370  0.00000  0.60990  Biso   1.000  N
  N13      1.0000 0.00000  0.20170  0.00000  Biso   1.000  N
  N14      1.0000 0.50000  0.70170  0.00000  Biso   1.000  N
  N15      1.0000 0.00000  0.79830  0.00000  Biso   1.000  N
  N16      1.0000 0.50000  0.29830  0.00000  Biso   1.000  N
  C1       1.0000 0.92611  0.10050  0.03540  Biso   1.000  C
  C2       1.0000 0.07389  0.10050  0.96460  Biso   1.000  C
  C3       1.0000 0.42611  0.60050  0.03540  Biso   1.000  C
  C4       1.0000 0.57389  0.60050  0.96460  Biso   1.000  C
  C5       1.0000 0.07389  0.89950  0.96460  Biso   1.000  C
  C6       1.0000 0.92611  0.89950  0.03540  Biso   1.000  C
  C7       1.0000 0.57389  0.39950  0.96460  Biso   1.000  C
  C8       1.0000 0.42611  0.39950  0.03540  Biso   1.000  C
  H1       1.0000 0.87410  0.16640  0.06040  Biso   1.000  H
  H2       1.0000 0.12590  0.16640  0.93960  Biso   1.000  H
  H3       1.0000 0.37410  0.66640  0.06040  Biso   1.000  H
  H4       1.0000 0.62590  0.66640  0.93960  Biso   1.000  H
  H5       1.0000 0.12590  0.83360  0.93960  Biso   1.000  H
  H6       1.0000 0.87410  0.83360  0.06040  Biso   1.000  H
  H7       1.0000 0.62590  0.33360  0.93960  Biso   1.000  H
  H8       1.0000 0.37410  0.33360  0.06040  Biso   1.000  H
