data_image0
_cell_length_a       13.9198
_cell_length_b       13.8843
_cell_length_c       19.8022
_cell_angle_alpha    90
_cell_angle_beta     95.47
_cell_angle_gamma    90

_symmetry_space_group_name_H-M    "P 1"
_symmetry_int_tables_number       1

loop_
  _symmetry_equiv_pos_as_xyz
  'x, y, z'

loop_
  _atom_site_label
  _atom_site_occupancy
  _atom_site_fract_x
  _atom_site_fract_y
  _atom_site_fract_z
  _atom_site_thermal_displace_type
  _atom_site_B_iso_or_equiv
  _atom_site_type_symbol
  Cu1      1.0000 0.78921  0.13402  0.50011  Biso   1.000  Cu
  Cu2      1.0000 0.71079  0.63402  0.99989  Biso   1.000  Cu
  Cu3      1.0000 0.21079  0.86598  0.49989  Biso   1.000  Cu
  Cu4      1.0000 0.28921  0.36598  0.00011  Biso   1.000  Cu
  Cu5      1.0000 0.64656  0.30551  0.45983  Biso   1.000  Cu
  Cu6      1.0000 0.85344  0.80551  0.04017  Biso   1.000  Cu
  Cu7      1.0000 0.35344  0.69449  0.54017  Biso   1.000  Cu
  Cu8      1.0000 0.14656  0.19449  0.95983  Biso   1.000  Cu
  N1       1.0000 0.87970  0.10130  0.43090  Biso   1.000  N
  N2       1.0000 0.62030  0.60130  0.06910  Biso   1.000  N
  N3       1.0000 0.12030  0.89870  0.56910  Biso   1.000  N
  N4       1.0000 0.37970  0.39870  0.93090  Biso   1.000  N
  N5       1.0000 0.79780  0.99200  0.51440  Biso   1.000  N
  N6       1.0000 0.70220  0.49200  0.98560  Biso   1.000  N
  N7       1.0000 0.20220  0.00800  0.48560  Biso   1.000  N
  N8       1.0000 0.29780  0.50800  0.01440  Biso   1.000  N
  C1       1.0000 0.92070  0.16370  0.39080  Biso   1.000  C
  C2       1.0000 0.57930  0.66370  0.10920  Biso   1.000  C
  C3       1.0000 0.07930  0.83630  0.60920  Biso   1.000  C
  C4       1.0000 0.42070  0.33630  0.89080  Biso   1.000  C
  C5       1.0000 0.99140  0.13520  0.35040  Biso   1.000  C
  C6       1.0000 0.50860  0.63520  0.14960  Biso   1.000  C
  C7       1.0000 0.00860  0.86480  0.64960  Biso   1.000  C
  C8       1.0000 0.49140  0.36480  0.85040  Biso   1.000  C
  C9       1.0000 0.02100  0.04140  0.35130  Biso   1.000  C
  C10      1.0000 0.47900  0.54140  0.14870  Biso   1.000  C
  C11      1.0000 0.97900  0.95860  0.64870  Biso   1.000  C
  C12      1.0000 0.52100  0.45860  0.85130  Biso   1.000  C
  C13      1.0000 0.97840  0.97590  0.39210  Biso   1.000  C
  C14      1.0000 0.52160  0.47590  0.10790  Biso   1.000  C
  C15      1.0000 0.02160  0.02410  0.60790  Biso   1.000  C
  C16      1.0000 0.47840  0.52410  0.89210  Biso   1.000  C
  C17      1.0000 0.90770  0.00750  0.43050  Biso   1.000  C
  C18      1.0000 0.59230  0.50750  0.06950  Biso   1.000  C
  C19      1.0000 0.09230  0.99250  0.56950  Biso   1.000  C
  C20      1.0000 0.40770  0.49250  0.93050  Biso   1.000  C
  C21      1.0000 0.85730  0.94470  0.47560  Biso   1.000  C
  C22      1.0000 0.64270  0.44470  0.02440  Biso   1.000  C
  C23      1.0000 0.14270  0.05530  0.52440  Biso   1.000  C
  C24      1.0000 0.35730  0.55530  0.97560  Biso   1.000  C
  C25      1.0000 0.86770  0.84600  0.47810  Biso   1.000  C
  C26      1.0000 0.63230  0.34600  0.02190  Biso   1.000  C
  C27      1.0000 0.13230  0.15400  0.52190  Biso   1.000  C
  C28      1.0000 0.36770  0.65400  0.97810  Biso   1.000  C
  C29      1.0000 0.81760  0.79440  0.52360  Biso   1.000  C
  C30      1.0000 0.68240  0.29440  0.97640  Biso   1.000  C
  C31      1.0000 0.18240  0.20560  0.47640  Biso   1.000  C
  C32      1.0000 0.31760  0.70560  0.02360  Biso   1.000  C
  C33      1.0000 0.75910  0.84160  0.56340  Biso   1.000  C
  C34      1.0000 0.74090  0.34160  0.93660  Biso   1.000  C
  C35      1.0000 0.24090  0.15840  0.43660  Biso   1.000  C
  C36      1.0000 0.25910  0.65840  0.06340  Biso   1.000  C
  C37      1.0000 0.75050  0.93940  0.55750  Biso   1.000  C
  C38      1.0000 0.74950  0.43940  0.94250  Biso   1.000  C
  C39      1.0000 0.24950  0.06060  0.44250  Biso   1.000  C
  C40      1.0000 0.25050  0.56060  0.05750  Biso   1.000  C
  N9       1.0000 0.63390  0.44440  0.48440  Biso   1.000  N
  N10      1.0000 0.86610  0.94440  0.01560  Biso   1.000  N
  N11      1.0000 0.36610  0.55560  0.51560  Biso   1.000  N
  N12      1.0000 0.13390  0.05560  0.98440  Biso   1.000  N
  N13      1.0000 0.65900  0.36610  0.36930  Biso   1.000  N
  N14      1.0000 0.84100  0.86610  0.13070  Biso   1.000  N
  N15      1.0000 0.34100  0.63390  0.63070  Biso   1.000  N
  N16      1.0000 0.15900  0.13390  0.86930  Biso   1.000  N
  C41      1.0000 0.61980  0.47820  0.54640  Biso   1.000  C
  C42      1.0000 0.88020  0.97820  0.95360  Biso   1.000  C
  C43      1.0000 0.38020  0.52180  0.45360  Biso   1.000  C
  C44      1.0000 0.11980  0.02180  0.04640  Biso   1.000  C
  C45      1.0000 0.60650  0.57560  0.55890  Biso   1.000  C
  C46      1.0000 0.89350  0.07560  0.94110  Biso   1.000  C
  C47      1.0000 0.39350  0.42440  0.44110  Biso   1.000  C
  C48      1.0000 0.10650  0.92440  0.05890  Biso   1.000  C
  C49      1.0000 0.60820  0.63820  0.50600  Biso   1.000  C
  C50      1.0000 0.89180  0.13820  0.99400  Biso   1.000  C
  C51      1.0000 0.39180  0.36180  0.49400  Biso   1.000  C
  C52      1.0000 0.10820  0.86180  0.00600  Biso   1.000  C
  C53      1.0000 0.62380  0.60560  0.44260  Biso   1.000  C
  C54      1.0000 0.87620  0.10560  0.05740  Biso   1.000  C
  C55      1.0000 0.37620  0.39440  0.55740  Biso   1.000  C
  C56      1.0000 0.12380  0.89440  0.94260  Biso   1.000  C
  C57      1.0000 0.63710  0.50750  0.43320  Biso   1.000  C
  C58      1.0000 0.86290  0.00750  0.06680  Biso   1.000  C
  C59      1.0000 0.36290  0.49250  0.56680  Biso   1.000  C
  C60      1.0000 0.13710  0.99250  0.93320  Biso   1.000  C
  C61      1.0000 0.65510  0.46320  0.36830  Biso   1.000  C
  C62      1.0000 0.84490  0.96320  0.13170  Biso   1.000  C
  C63      1.0000 0.34490  0.53680  0.63170  Biso   1.000  C
  C64      1.0000 0.15510  0.03680  0.86830  Biso   1.000  C
  C65      1.0000 0.66740  0.51430  0.30970  Biso   1.000  C
  C66      1.0000 0.83260  0.01430  0.19030  Biso   1.000  C
  C67      1.0000 0.33260  0.48570  0.69030  Biso   1.000  C
  C68      1.0000 0.16740  0.98570  0.80970  Biso   1.000  C
  C69      1.0000 0.68630  0.46540  0.25260  Biso   1.000  C
  C70      1.0000 0.81370  0.96540  0.24740  Biso   1.000  C
  C71      1.0000 0.31370  0.53460  0.74740  Biso   1.000  C
  C72      1.0000 0.18630  0.03460  0.75260  Biso   1.000  C
  C73      1.0000 0.69150  0.36790  0.25370  Biso   1.000  C
  C74      1.0000 0.80850  0.86790  0.24630  Biso   1.000  C
  C75      1.0000 0.30850  0.63210  0.74630  Biso   1.000  C
  C76      1.0000 0.19150  0.13210  0.75370  Biso   1.000  C
  C77      1.0000 0.67630  0.32010  0.31320  Biso   1.000  C
  C78      1.0000 0.82370  0.82010  0.18680  Biso   1.000  C
  C79      1.0000 0.32370  0.67990  0.68680  Biso   1.000  C
  C80      1.0000 0.17630  0.17990  0.81320  Biso   1.000  C
  O1       1.0000 0.61100  0.26660  0.54870  Biso   1.000  O
  O2       1.0000 0.88900  0.76660  0.95130  Biso   1.000  O
  O3       1.0000 0.38900  0.73340  0.45130  Biso   1.000  O
  O4       1.0000 0.11100  0.23340  0.04870  Biso   1.000  O
  O5       1.0000 0.71520  0.14650  0.57800  Biso   1.000  O
  O6       1.0000 0.78480  0.64650  0.92200  Biso   1.000  O
  O7       1.0000 0.28480  0.85350  0.42200  Biso   1.000  O
  O8       1.0000 0.21520  0.35350  0.07800  Biso   1.000  O
  O9       1.0000 0.34740  0.82640  0.57270  Biso   1.000  O
  O10      1.0000 0.15260  0.32640  0.92730  Biso   1.000  O
  O11      1.0000 0.65260  0.17360  0.42730  Biso   1.000  O
  O12      1.0000 0.84740  0.67360  0.07270  Biso   1.000  O
  O13      1.0000 0.50740  0.82930  0.58490  Biso   1.000  O
  O14      1.0000 0.99260  0.32930  0.91510  Biso   1.000  O
  O15      1.0000 0.49260  0.17070  0.41510  Biso   1.000  O
  O16      1.0000 0.00740  0.67070  0.08490  Biso   1.000  O
  C81      1.0000 0.64570  0.20090  0.58820  Biso   1.000  C
  C82      1.0000 0.85430  0.70090  0.91180  Biso   1.000  C
  C83      1.0000 0.35430  0.79910  0.41180  Biso   1.000  C
  C84      1.0000 0.14570  0.29910  0.08820  Biso   1.000  C
  C85      1.0000 0.59630  0.18700  0.65170  Biso   1.000  C
  C86      1.0000 0.90370  0.68700  0.84830  Biso   1.000  C
  C87      1.0000 0.40370  0.81300  0.34830  Biso   1.000  C
  C88      1.0000 0.09630  0.31300  0.15170  Biso   1.000  C
  C89      1.0000 0.50130  0.13370  0.63750  Biso   1.000  C
  C90      1.0000 0.99870  0.63370  0.86250  Biso   1.000  C
  C91      1.0000 0.49870  0.86630  0.36250  Biso   1.000  C
  C92      1.0000 0.00130  0.36630  0.13750  Biso   1.000  C
  C93      1.0000 0.51410  0.03090  0.61420  Biso   1.000  C
  C94      1.0000 0.98590  0.53090  0.88580  Biso   1.000  C
  C95      1.0000 0.48590  0.96910  0.38580  Biso   1.000  C
  C96      1.0000 0.01410  0.46910  0.11420  Biso   1.000  C
  C97      1.0000 0.42120  0.97430  0.60750  Biso   1.000  C
  C98      1.0000 0.07880  0.47430  0.89250  Biso   1.000  C
  C99      1.0000 0.57880  0.02570  0.39250  Biso   1.000  C
  C100     1.0000 0.92120  0.52570  0.10750  Biso   1.000  C
  C101     1.0000 0.42960  0.86970  0.58690  Biso   1.000  C
  C102     1.0000 0.07040  0.36970  0.91310  Biso   1.000  C
  C103     1.0000 0.57040  0.13030  0.41310  Biso   1.000  C
  C104     1.0000 0.92960  0.63030  0.08690  Biso   1.000  C
  O17      1.0000 0.80190  0.27180  0.48830  Biso   1.000  O
  O18      1.0000 0.69810  0.77180  0.01170  Biso   1.000  O
  O19      1.0000 0.19810  0.72820  0.51170  Biso   1.000  O
  O20      1.0000 0.30190  0.22820  0.98830  Biso   1.000  O
  O21      1.0000 0.93720  0.26030  0.55570  Biso   1.000  O
  O22      1.0000 0.56280  0.76030  0.94430  Biso   1.000  O
  O23      1.0000 0.06280  0.73970  0.44430  Biso   1.000  O
  O24      1.0000 0.43720  0.23970  0.05570  Biso   1.000  O
  C105     1.0000 0.87870  0.30870  0.52040  Biso   1.000  C
  C106     1.0000 0.62130  0.80870  0.97960  Biso   1.000  C
  C107     1.0000 0.12130  0.69130  0.47960  Biso   1.000  C
  C108     1.0000 0.37870  0.19130  0.02040  Biso   1.000  C
  C109     1.0000 0.89170  0.41560  0.50950  Biso   1.000  C
  C110     1.0000 0.60830  0.91560  0.99050  Biso   1.000  C
  C111     1.0000 0.10830  0.58440  0.49050  Biso   1.000  C
  C112     1.0000 0.39170  0.08440  0.00950  Biso   1.000  C
  C113     1.0000 0.99520  0.44600  0.50350  Biso   1.000  C
  C114     1.0000 0.50480  0.94600  0.99650  Biso   1.000  C
  C115     1.0000 0.00480  0.55400  0.49650  Biso   1.000  C
  C116     1.0000 0.49520  0.05400  0.00350  Biso   1.000  C
  N17      1.0000 0.68560  0.42370  0.74290  Biso   1.000  N
  N18      1.0000 0.81440  0.92370  0.75710  Biso   1.000  N
  N19      1.0000 0.31440  0.57630  0.25710  Biso   1.000  N
  N20      1.0000 0.18560  0.07630  0.24290  Biso   1.000  N
  N21      1.0000 0.83160  0.63930  0.64490  Biso   1.000  N
  N22      1.0000 0.66840  0.13930  0.85510  Biso   1.000  N
  N23      1.0000 0.16840  0.36070  0.35510  Biso   1.000  N
  N24      1.0000 0.33160  0.86070  0.14490  Biso   1.000  N
  N25      1.0000 0.15840  0.33370  0.67340  Biso   1.000  N
  N26      1.0000 0.34160  0.83370  0.82660  Biso   1.000  N
  N27      1.0000 0.84160  0.66630  0.32660  Biso   1.000  N
  N28      1.0000 0.65840  0.16630  0.17340  Biso   1.000  N
  N29      1.0000 0.07220  0.62610  0.68300  Biso   1.000  N
  N30      1.0000 0.42780  0.12610  0.81700  Biso   1.000  N
  N31      1.0000 0.92780  0.37390  0.31700  Biso   1.000  N
  N32      1.0000 0.57220  0.87390  0.18300  Biso   1.000  N
  C117     1.0000 0.75940  0.44560  0.72540  Biso   1.000  C
  C118     1.0000 0.74060  0.94560  0.77460  Biso   1.000  C
  C119     1.0000 0.24060  0.55440  0.27460  Biso   1.000  C
  C120     1.0000 0.25940  0.05440  0.22540  Biso   1.000  C
  C121     1.0000 0.84090  0.56680  0.66950  Biso   1.000  C
  C122     1.0000 0.65910  0.06680  0.83050  Biso   1.000  C
  C123     1.0000 0.15910  0.43320  0.33050  Biso   1.000  C
  C124     1.0000 0.34090  0.93320  0.16950  Biso   1.000  C
  C125     1.0000 0.84630  0.47640  0.70080  Biso   1.000  C
  C126     1.0000 0.65370  0.97640  0.79920  Biso   1.000  C
  C127     1.0000 0.15370  0.52360  0.29920  Biso   1.000  C
  C128     1.0000 0.34630  0.02360  0.20080  Biso   1.000  C
  C129     1.0000 0.93080  0.42100  0.70550  Biso   1.000  C
  C130     1.0000 0.56920  0.92100  0.79450  Biso   1.000  C
  C131     1.0000 0.06920  0.57900  0.29450  Biso   1.000  C
  C132     1.0000 0.43080  0.07900  0.20550  Biso   1.000  C
  C133     1.0000 0.02190  0.45040  0.69190  Biso   1.000  C
  C134     1.0000 0.47810  0.95040  0.80810  Biso   1.000  C
  C135     1.0000 0.97810  0.54960  0.30810  Biso   1.000  C
  C136     1.0000 0.52190  0.04960  0.19190  Biso   1.000  C
  C137     1.0000 0.04690  0.54890  0.68690  Biso   1.000  C
  C138     1.0000 0.45310  0.04890  0.81310  Biso   1.000  C
  C139     1.0000 0.95310  0.45110  0.31310  Biso   1.000  C
  C140     1.0000 0.54690  0.95110  0.18690  Biso   1.000  C
  C141     1.0000 0.09590  0.38380  0.68240  Biso   1.000  C
  C142     1.0000 0.40410  0.88380  0.81760  Biso   1.000  C
  C143     1.0000 0.90410  0.61620  0.31760  Biso   1.000  C
  C144     1.0000 0.59590  0.11620  0.18240  Biso   1.000  C
  O25      1.0000 0.94180  0.33090  0.73480  Biso   1.000  O
  O26      1.0000 0.55820  0.83090  0.76520  Biso   1.000  O
  O27      1.0000 0.05820  0.66910  0.26520  Biso   1.000  O
  O28      1.0000 0.44180  0.16910  0.23480  Biso   1.000  O
  C145     1.0000 0.86230  0.25910  0.71910  Biso   1.000  C
  C146     1.0000 0.63770  0.75910  0.78090  Biso   1.000  C
  C147     1.0000 0.13770  0.74090  0.28090  Biso   1.000  C
  C148     1.0000 0.36230  0.24090  0.21910  Biso   1.000  C
  O29      1.0000 0.88690  0.32690  0.70750  Biso   1.000  O
  O30      1.0000 0.61310  0.82690  0.79250  Biso   1.000  O
  O31      1.0000 0.11310  0.67310  0.29250  Biso   1.000  O
  O32      1.0000 0.38690  0.17310  0.20750  Biso   1.000  O
  C149     1.0000 0.95300  0.25100  0.72690  Biso   1.000  C
  C150     1.0000 0.54700  0.75100  0.77310  Biso   1.000  C
  C151     1.0000 0.04700  0.74900  0.27310  Biso   1.000  C
  C152     1.0000 0.45300  0.24900  0.22690  Biso   1.000  C
  C153     1.0000 0.89400  0.16920  0.74910  Biso   1.000  C
  C154     1.0000 0.60600  0.66920  0.75090  Biso   1.000  C
  C155     1.0000 0.10600  0.83080  0.25090  Biso   1.000  C
  C156     1.0000 0.39400  0.33080  0.24910  Biso   1.000  C
  H1       1.0000 0.90070  0.22910  0.39010  Biso   1.000  H
  H2       1.0000 0.59930  0.72910  0.10990  Biso   1.000  H
  H3       1.0000 0.09930  0.77090  0.60990  Biso   1.000  H
  H4       1.0000 0.40070  0.27090  0.89010  Biso   1.000  H
  H5       1.0000 0.01920  0.18070  0.32210  Biso   1.000  H
  H6       1.0000 0.48080  0.68070  0.17790  Biso   1.000  H
  H7       1.0000 0.98080  0.81930  0.67790  Biso   1.000  H
  H8       1.0000 0.51920  0.31930  0.82210  Biso   1.000  H
  H9       1.0000 0.07010  0.02130  0.32430  Biso   1.000  H
  H10      1.0000 0.42990  0.52130  0.17570  Biso   1.000  H
  H11      1.0000 0.92990  0.97870  0.67570  Biso   1.000  H
  H12      1.0000 0.57010  0.47870  0.82430  Biso   1.000  H
  H13      1.0000 0.99790  0.91030  0.39350  Biso   1.000  H
  H14      1.0000 0.50210  0.41030  0.10650  Biso   1.000  H
  H15      1.0000 0.00210  0.08970  0.60650  Biso   1.000  H
  H16      1.0000 0.49790  0.58970  0.89350  Biso   1.000  H
  H17      1.0000 0.90820  0.81390  0.44930  Biso   1.000  H
  H18      1.0000 0.59180  0.31390  0.05070  Biso   1.000  H
  H19      1.0000 0.09180  0.18610  0.55070  Biso   1.000  H
  H20      1.0000 0.40820  0.68610  0.94930  Biso   1.000  H
  H21      1.0000 0.82440  0.72640  0.52690  Biso   1.000  H
  H22      1.0000 0.67560  0.22640  0.97310  Biso   1.000  H
  H23      1.0000 0.17560  0.27360  0.47310  Biso   1.000  H
  H24      1.0000 0.32440  0.77360  0.02690  Biso   1.000  H
  H25      1.0000 0.72450  0.80740  0.59490  Biso   1.000  H
  H26      1.0000 0.77550  0.30740  0.90510  Biso   1.000  H
  H27      1.0000 0.27550  0.19260  0.40510  Biso   1.000  H
  H28      1.0000 0.22450  0.69260  0.09490  Biso   1.000  H
  H29      1.0000 0.70910  0.97190  0.58540  Biso   1.000  H
  H30      1.0000 0.79090  0.47190  0.91460  Biso   1.000  H
  H31      1.0000 0.29090  0.02810  0.41460  Biso   1.000  H
  H32      1.0000 0.20910  0.52810  0.08540  Biso   1.000  H
  H33      1.0000 0.61880  0.43390  0.58290  Biso   1.000  H
  H34      1.0000 0.88120  0.93390  0.91710  Biso   1.000  H
  H35      1.0000 0.38120  0.56610  0.41710  Biso   1.000  H
  H36      1.0000 0.11880  0.06610  0.08290  Biso   1.000  H
  H37      1.0000 0.59660  0.59790  0.60300  Biso   1.000  H
  H38      1.0000 0.90340  0.09790  0.89700  Biso   1.000  H
  H39      1.0000 0.40340  0.40210  0.39700  Biso   1.000  H
  H40      1.0000 0.09660  0.90210  0.10300  Biso   1.000  H
  H41      1.0000 0.59840  0.70500  0.51310  Biso   1.000  H
  H42      1.0000 0.90160  0.20500  0.98690  Biso   1.000  H
  H43      1.0000 0.40160  0.29500  0.48690  Biso   1.000  H
  H44      1.0000 0.09840  0.79500  0.01310  Biso   1.000  H
  H45      1.0000 0.62550  0.64930  0.40580  Biso   1.000  H
  H46      1.0000 0.87450  0.14930  0.09420  Biso   1.000  H
  H47      1.0000 0.37450  0.35070  0.59420  Biso   1.000  H
  H48      1.0000 0.12550  0.85070  0.90580  Biso   1.000  H
  H49      1.0000 0.66270  0.58260  0.30930  Biso   1.000  H
  H50      1.0000 0.83730  0.08260  0.19070  Biso   1.000  H
  H51      1.0000 0.33730  0.41740  0.69070  Biso   1.000  H
  H52      1.0000 0.16270  0.91740  0.80930  Biso   1.000  H
  H53      1.0000 0.69570  0.49970  0.21220  Biso   1.000  H
  H54      1.0000 0.80430  0.99970  0.28780  Biso   1.000  H
  H55      1.0000 0.30430  0.50030  0.78780  Biso   1.000  H
  H56      1.0000 0.19570  0.00030  0.71220  Biso   1.000  H
  H57      1.0000 0.70540  0.33310  0.21450  Biso   1.000  H
  H58      1.0000 0.79460  0.83310  0.28550  Biso   1.000  H
  H59      1.0000 0.29460  0.66690  0.78550  Biso   1.000  H
  H60      1.0000 0.20540  0.16690  0.71450  Biso   1.000  H
  H61      1.0000 0.67840  0.25170  0.31370  Biso   1.000  H
  H62      1.0000 0.82160  0.75170  0.18630  Biso   1.000  H
  H63      1.0000 0.32160  0.74830  0.68630  Biso   1.000  H
  H64      1.0000 0.17840  0.24830  0.81370  Biso   1.000  H
  H65      1.0000 0.58420  0.24820  0.67040  Biso   1.000  H
  H66      1.0000 0.91580  0.74820  0.82960  Biso   1.000  H
  H67      1.0000 0.41580  0.75180  0.32960  Biso   1.000  H
  H68      1.0000 0.08420  0.25180  0.17040  Biso   1.000  H
  H69      1.0000 0.63740  0.15090  0.68330  Biso   1.000  H
  H70      1.0000 0.86260  0.65090  0.81670  Biso   1.000  H
  H71      1.0000 0.36260  0.84910  0.31670  Biso   1.000  H
  H72      1.0000 0.13740  0.34910  0.18330  Biso   1.000  H
  H73      1.0000 0.46260  0.16720  0.60310  Biso   1.000  H
  H74      1.0000 0.03740  0.66720  0.89690  Biso   1.000  H
  H75      1.0000 0.53740  0.83280  0.39690  Biso   1.000  H
  H76      1.0000 0.96260  0.33280  0.10310  Biso   1.000  H
  H77      1.0000 0.46960  0.13260  0.67790  Biso   1.000  H
  H78      1.0000 0.03040  0.63260  0.82210  Biso   1.000  H
  H79      1.0000 0.53040  0.86740  0.32210  Biso   1.000  H
  H80      1.0000 0.96960  0.36740  0.17790  Biso   1.000  H
  H81      1.0000 0.55860  0.99940  0.64630  Biso   1.000  H
  H82      1.0000 0.94140  0.49940  0.85370  Biso   1.000  H
  H83      1.0000 0.44140  0.00060  0.35370  Biso   1.000  H
  H84      1.0000 0.05860  0.50060  0.14630  Biso   1.000  H
  H85      1.0000 0.53930  0.03210  0.57130  Biso   1.000  H
  H86      1.0000 0.96070  0.53210  0.92870  Biso   1.000  H
  H87      1.0000 0.46070  0.96790  0.42870  Biso   1.000  H
  H88      1.0000 0.03930  0.46790  0.07130  Biso   1.000  H
  H89      1.0000 0.37800  0.00530  0.57440  Biso   1.000  H
  H90      1.0000 0.12200  0.50530  0.92560  Biso   1.000  H
  H91      1.0000 0.62200  0.99470  0.42560  Biso   1.000  H
  H92      1.0000 0.87800  0.49470  0.07440  Biso   1.000  H
  H93      1.0000 0.39520  0.97590  0.65010  Biso   1.000  H
  H94      1.0000 0.10480  0.47590  0.84990  Biso   1.000  H
  H95      1.0000 0.60480  0.02410  0.34990  Biso   1.000  H
  H96      1.0000 0.89520  0.52410  0.15010  Biso   1.000  H
  H97      1.0000 0.86910  0.44880  0.54680  Biso   1.000  H
  H98      1.0000 0.63090  0.94880  0.95320  Biso   1.000  H
  H99      1.0000 0.13090  0.55120  0.45320  Biso   1.000  H
  H100     1.0000 0.36910  0.05120  0.04680  Biso   1.000  H
  H101     1.0000 0.85400  0.43350  0.46890  Biso   1.000  H
  H102     1.0000 0.64600  0.93350  0.03110  Biso   1.000  H
  H103     1.0000 0.14600  0.56650  0.53110  Biso   1.000  H
  H104     1.0000 0.35400  0.06650  0.96890  Biso   1.000  H
  H105     1.0000 0.01720  0.41600  0.46460  Biso   1.000  H
  H106     1.0000 0.48280  0.91600  0.03540  Biso   1.000  H
  H107     1.0000 0.98280  0.58400  0.53540  Biso   1.000  H
  H108     1.0000 0.51720  0.08400  0.96460  Biso   1.000  H
  H109     1.0000 0.03410  0.42560  0.54290  Biso   1.000  H
  H110     1.0000 0.46590  0.92560  0.95710  Biso   1.000  H
  H111     1.0000 0.96590  0.57440  0.45710  Biso   1.000  H
  H112     1.0000 0.53410  0.07440  0.04290  Biso   1.000  H
