data_image0
_cell_length_a       19.626
_cell_length_b       11.291
_cell_length_c       8.436
_cell_angle_alpha    90
_cell_angle_beta     99.69
_cell_angle_gamma    90

_symmetry_space_group_name_H-M    "P 1"
_symmetry_int_tables_number       1

loop_
  _symmetry_equiv_pos_as_xyz
  'x, y, z'

loop_
  _atom_site_label
  _atom_site_occupancy
  _atom_site_fract_x
  _atom_site_fract_y
  _atom_site_fract_z
  _atom_site_thermal_displace_type
  _atom_site_B_iso_or_equiv
  _atom_site_type_symbol
  Cu1      1.0000 0.69025  0.52180  0.92557  Biso   1.000  Cu
  Cu2      1.0000 0.80975  0.02180  0.07443  Biso   1.000  Cu
  Cu3      1.0000 0.30975  0.47820  0.07443  Biso   1.000  Cu
  Cu4      1.0000 0.19025  0.97820  0.92557  Biso   1.000  Cu
  N1       1.0000 0.64820  0.48650  0.12670  Biso   1.000  N
  N2       1.0000 0.85180  0.98650  0.87330  Biso   1.000  N
  N3       1.0000 0.35180  0.51350  0.87330  Biso   1.000  N
  N4       1.0000 0.14820  0.01350  0.12670  Biso   1.000  N
  C1       1.0000 0.67070  0.41090  0.24530  Biso   1.000  C
  C2       1.0000 0.82930  0.91090  0.75470  Biso   1.000  C
  C3       1.0000 0.32930  0.58910  0.75470  Biso   1.000  C
  C4       1.0000 0.17070  0.08910  0.24530  Biso   1.000  C
  C5       1.0000 0.63800  0.39700  0.37910  Biso   1.000  C
  C6       1.0000 0.86200  0.89700  0.62090  Biso   1.000  C
  C7       1.0000 0.36200  0.60300  0.62090  Biso   1.000  C
  C8       1.0000 0.13800  0.10300  0.37910  Biso   1.000  C
  C9       1.0000 0.58100  0.46440  0.38700  Biso   1.000  C
  C10      1.0000 0.91900  0.96440  0.61300  Biso   1.000  C
  C11      1.0000 0.41900  0.53560  0.61300  Biso   1.000  C
  C12      1.0000 0.08100  0.03560  0.38700  Biso   1.000  C
  C13      1.0000 0.55630  0.54120  0.26670  Biso   1.000  C
  C14      1.0000 0.94370  0.04120  0.73330  Biso   1.000  C
  C15      1.0000 0.44370  0.45880  0.73330  Biso   1.000  C
  C16      1.0000 0.05630  0.95880  0.26670  Biso   1.000  C
  C17      1.0000 0.59150  0.55220  0.13840  Biso   1.000  C
  C18      1.0000 0.90850  0.05220  0.86160  Biso   1.000  C
  C19      1.0000 0.40850  0.44780  0.86160  Biso   1.000  C
  C20      1.0000 0.09150  0.94780  0.13840  Biso   1.000  C
  C21      1.0000 0.57000  0.63190  0.99940  Biso   1.000  C
  C22      1.0000 0.93000  0.13190  0.00060  Biso   1.000  C
  C23      1.0000 0.43000  0.36810  0.00060  Biso   1.000  C
  C24      1.0000 0.07000  0.86810  0.99940  Biso   1.000  C
  C25      1.0000 0.60220  0.69660  0.75830  Biso   1.000  C
  C26      1.0000 0.89780  0.19660  0.24170  Biso   1.000  C
  C27      1.0000 0.39780  0.30340  0.24170  Biso   1.000  C
  C28      1.0000 0.10220  0.80340  0.75830  Biso   1.000  C
  N5       1.0000 0.61310  0.63150  0.89290  Biso   1.000  N
  N6       1.0000 0.88690  0.13150  0.10710  Biso   1.000  N
  N7       1.0000 0.38690  0.36850  0.10710  Biso   1.000  N
  N8       1.0000 0.11310  0.86850  0.89290  Biso   1.000  N
  C29      1.0000 0.54460  0.77020  0.72690  Biso   1.000  C
  C30      1.0000 0.95540  0.27020  0.27310  Biso   1.000  C
  C31      1.0000 0.45540  0.22980  0.27310  Biso   1.000  C
  C32      1.0000 0.04460  0.72980  0.72690  Biso   1.000  C
  C33      1.0000 0.50030  0.77340  0.83740  Biso   1.000  C
  C34      1.0000 0.99970  0.27340  0.16260  Biso   1.000  C
  C35      1.0000 0.49970  0.22660  0.16260  Biso   1.000  C
  C36      1.0000 0.00030  0.72660  0.83740  Biso   1.000  C
  C37      1.0000 0.51200  0.70360  0.97380  Biso   1.000  C
  C38      1.0000 0.98800  0.20360  0.02620  Biso   1.000  C
  C39      1.0000 0.48800  0.29640  0.02620  Biso   1.000  C
  C40      1.0000 0.01200  0.79640  0.97380  Biso   1.000  C
  C41      1.0000 0.65600  0.68160  0.65710  Biso   1.000  C
  C42      1.0000 0.84400  0.18160  0.34290  Biso   1.000  C
  C43      1.0000 0.34400  0.31840  0.34290  Biso   1.000  C
  C44      1.0000 0.15600  0.81840  0.65710  Biso   1.000  C
  N9       1.0000 0.70460  0.60070  0.71500  Biso   1.000  N
  N10      1.0000 0.79540  0.10070  0.28500  Biso   1.000  N
  N11      1.0000 0.29540  0.39930  0.28500  Biso   1.000  N
  N12      1.0000 0.20460  0.89930  0.71500  Biso   1.000  N
  C45      1.0000 0.75550  0.57770  0.63310  Biso   1.000  C
  C46      1.0000 0.74450  0.07770  0.36690  Biso   1.000  C
  C47      1.0000 0.24450  0.42230  0.36690  Biso   1.000  C
  C48      1.0000 0.25550  0.92230  0.63310  Biso   1.000  C
  C49      1.0000 0.75850  0.63420  0.49030  Biso   1.000  C
  C50      1.0000 0.74150  0.13420  0.50970  Biso   1.000  C
  C51      1.0000 0.24150  0.36580  0.50970  Biso   1.000  C
  C52      1.0000 0.25850  0.86580  0.49030  Biso   1.000  C
  C53      1.0000 0.70910  0.71720  0.42900  Biso   1.000  C
  C54      1.0000 0.79090  0.21720  0.57100  Biso   1.000  C
  C55      1.0000 0.29090  0.28280  0.57100  Biso   1.000  C
  C56      1.0000 0.20910  0.78280  0.42900  Biso   1.000  C
  C57      1.0000 0.65710  0.74180  0.51520  Biso   1.000  C
  C58      1.0000 0.84290  0.24180  0.48480  Biso   1.000  C
  C59      1.0000 0.34290  0.25820  0.48480  Biso   1.000  C
  C60      1.0000 0.15710  0.75820  0.51520  Biso   1.000  C
  C61      1.0000 0.62340  0.26880  0.79350  Biso   1.000  C
  C62      1.0000 0.87660  0.76880  0.20650  Biso   1.000  C
  C63      1.0000 0.37660  0.73120  0.20650  Biso   1.000  C
  C64      1.0000 0.12340  0.23120  0.79350  Biso   1.000  C
  O1       1.0000 0.62020  0.37950  0.77810  Biso   1.000  O
  O2       1.0000 0.87980  0.87950  0.22190  Biso   1.000  O
  O3       1.0000 0.37980  0.62050  0.22190  Biso   1.000  O
  O4       1.0000 0.12020  0.12050  0.77810  Biso   1.000  O
  C65      1.0000 0.67350  0.18360  0.86990  Biso   1.000  C
  C66      1.0000 0.82650  0.68360  0.13010  Biso   1.000  C
  C67      1.0000 0.32650  0.81640  0.13010  Biso   1.000  C
  C68      1.0000 0.17350  0.31640  0.86990  Biso   1.000  C
  O5       1.0000 0.76480  0.68890  0.05280  Biso   1.000  O
  O6       1.0000 0.73520  0.18890  0.94720  Biso   1.000  O
  O7       1.0000 0.23520  0.31110  0.94720  Biso   1.000  O
  O8       1.0000 0.26480  0.81110  0.05280  Biso   1.000  O
  C69      1.0000 0.62600  0.08760  0.82010  Biso   1.000  C
  C70      1.0000 0.87400  0.58760  0.17990  Biso   1.000  C
  C71      1.0000 0.37400  0.91240  0.17990  Biso   1.000  C
  C72      1.0000 0.12600  0.41240  0.82010  Biso   1.000  C
  O9       1.0000 0.62670  0.97820  0.84010  Biso   1.000  O
  O10      1.0000 0.87330  0.47820  0.15990  Biso   1.000  O
  O11      1.0000 0.37330  0.02180  0.15990  Biso   1.000  O
  O12      1.0000 0.12670  0.52180  0.84010  Biso   1.000  O
  C73      1.0000 0.57520  0.17270  0.74120  Biso   1.000  C
  C74      1.0000 0.92480  0.67270  0.25880  Biso   1.000  C
  C75      1.0000 0.42480  0.82730  0.25880  Biso   1.000  C
  C76      1.0000 0.07520  0.32730  0.74120  Biso   1.000  C
  O13      1.0000 0.51510  0.16680  0.66170  Biso   1.000  O
  O14      1.0000 0.98490  0.66680  0.33830  Biso   1.000  O
  O15      1.0000 0.48490  0.83320  0.33830  Biso   1.000  O
  O16      1.0000 0.01510  0.33320  0.66170  Biso   1.000  O
  O17      1.0000 0.76800  0.41370  0.95440  Biso   1.000  O
  O18      1.0000 0.73200  0.91370  0.04560  Biso   1.000  O
  O19      1.0000 0.23200  0.58630  0.04560  Biso   1.000  O
  O20      1.0000 0.26800  0.08630  0.95440  Biso   1.000  O
  O21      1.0000 0.59200  0.96020  0.22260  Biso   1.000  O
  O22      1.0000 0.90800  0.46020  0.77740  Biso   1.000  O
  O23      1.0000 0.40800  0.03980  0.77740  Biso   1.000  O
  O24      1.0000 0.09200  0.53980  0.22260  Biso   1.000  O
  O25      1.0000 0.57890  0.01210  0.39890  Biso   1.000  O
  O26      1.0000 0.92110  0.51210  0.60110  Biso   1.000  O
  O27      1.0000 0.42110  0.98790  0.60110  Biso   1.000  O
  O28      1.0000 0.07890  0.48790  0.39890  Biso   1.000  O
  H1       1.0000 0.70480  0.36380  0.22800  Biso   1.000  H
  H2       1.0000 0.79520  0.86380  0.77200  Biso   1.000  H
  H3       1.0000 0.29520  0.63620  0.77200  Biso   1.000  H
  H4       1.0000 0.20480  0.13620  0.22800  Biso   1.000  H
  H5       1.0000 0.65680  0.34520  0.47060  Biso   1.000  H
  H6       1.0000 0.84320  0.84520  0.52940  Biso   1.000  H
  H7       1.0000 0.34320  0.65480  0.52940  Biso   1.000  H
  H8       1.0000 0.15680  0.15480  0.47060  Biso   1.000  H
  H9       1.0000 0.56340  0.45030  0.47180  Biso   1.000  H
  H10      1.0000 0.93660  0.95030  0.52820  Biso   1.000  H
  H11      1.0000 0.43660  0.54970  0.52820  Biso   1.000  H
  H12      1.0000 0.06340  0.04970  0.47180  Biso   1.000  H
  H13      1.0000 0.51390  0.59670  0.26220  Biso   1.000  H
  H14      1.0000 0.98610  0.09670  0.73780  Biso   1.000  H
  H15      1.0000 0.48610  0.40330  0.73780  Biso   1.000  H
  H16      1.0000 0.01390  0.90330  0.26220  Biso   1.000  H
  H17      1.0000 0.53480  0.81750  0.62840  Biso   1.000  H
  H18      1.0000 0.96520  0.31750  0.37160  Biso   1.000  H
  H19      1.0000 0.46520  0.18250  0.37160  Biso   1.000  H
  H20      1.0000 0.03480  0.68250  0.62840  Biso   1.000  H
  H21      1.0000 0.46090  0.80120  0.82470  Biso   1.000  H
  H22      1.0000 0.03910  0.30120  0.17530  Biso   1.000  H
  H23      1.0000 0.53910  0.19880  0.17530  Biso   1.000  H
  H24      1.0000 0.96090  0.69880  0.82470  Biso   1.000  H
  H25      1.0000 0.47840  0.70380  0.06550  Biso   1.000  H
  H26      1.0000 0.02160  0.20380  0.93450  Biso   1.000  H
  H27      1.0000 0.52160  0.29620  0.93450  Biso   1.000  H
  H28      1.0000 0.97840  0.79620  0.06550  Biso   1.000  H
  H29      1.0000 0.78790  0.51370  0.68830  Biso   1.000  H
  H30      1.0000 0.71210  0.01370  0.31170  Biso   1.000  H
  H31      1.0000 0.21210  0.48630  0.31170  Biso   1.000  H
  H32      1.0000 0.28790  0.98630  0.68830  Biso   1.000  H
  H33      1.0000 0.78310  0.61710  0.42330  Biso   1.000  H
  H34      1.0000 0.71690  0.11710  0.57670  Biso   1.000  H
  H35      1.0000 0.21690  0.38290  0.57670  Biso   1.000  H
  H36      1.0000 0.28310  0.88290  0.42330  Biso   1.000  H
  H37      1.0000 0.70810  0.73830  0.30390  Biso   1.000  H
  H38      1.0000 0.79190  0.23830  0.69610  Biso   1.000  H
  H39      1.0000 0.29190  0.26170  0.69610  Biso   1.000  H
  H40      1.0000 0.20810  0.76170  0.30390  Biso   1.000  H
  H41      1.0000 0.62140  0.79820  0.48520  Biso   1.000  H
  H42      1.0000 0.87860  0.29820  0.51480  Biso   1.000  H
  H43      1.0000 0.37860  0.20180  0.51480  Biso   1.000  H
  H44      1.0000 0.12140  0.70180  0.48520  Biso   1.000  H
  H45      1.0000 0.75690  0.33030  0.95490  Biso   1.000  H
  H46      1.0000 0.74310  0.83030  0.04510  Biso   1.000  H
  H47      1.0000 0.24310  0.66970  0.04510  Biso   1.000  H
  H48      1.0000 0.25690  0.16970  0.95490  Biso   1.000  H
  H49      1.0000 0.72280  0.93440  0.99300  Biso   1.000  H
  H50      1.0000 0.77720  0.43440  0.00700  Biso   1.000  H
  H51      1.0000 0.27720  0.06560  0.00700  Biso   1.000  H
  H52      1.0000 0.22280  0.56560  0.99300  Biso   1.000  H
