data_image0
_cell_length_a       28.521
_cell_length_b       28.521
_cell_length_c       9.6037
_cell_angle_alpha    90
_cell_angle_beta     90
_cell_angle_gamma    120

_symmetry_space_group_name_H-M    "P 1"
_symmetry_int_tables_number       1

loop_
  _symmetry_equiv_pos_as_xyz
  'x, y, z'

loop_
  _atom_site_label
  _atom_site_occupancy
  _atom_site_fract_x
  _atom_site_fract_y
  _atom_site_fract_z
  _atom_site_thermal_displace_type
  _atom_site_B_iso_or_equiv
  _atom_site_type_symbol
  Cu1      1.0000 0.77577  0.68260  0.80962  Biso   1.000  Cu
  Cu2      1.0000 0.31740  0.09317  0.80962  Biso   1.000  Cu
  Cu3      1.0000 0.90683  0.22423  0.80962  Biso   1.000  Cu
  Cu4      1.0000 0.44244  0.01593  0.14295  Biso   1.000  Cu
  Cu5      1.0000 0.98407  0.42650  0.14295  Biso   1.000  Cu
  Cu6      1.0000 0.57350  0.55756  0.14295  Biso   1.000  Cu
  Cu7      1.0000 0.10910  0.34927  0.47629  Biso   1.000  Cu
  Cu8      1.0000 0.65073  0.75984  0.47629  Biso   1.000  Cu
  Cu9      1.0000 0.24016  0.89090  0.47629  Biso   1.000  Cu
  Cu10     1.0000 0.22423  0.31740  0.19038  Biso   1.000  Cu
  Cu11     1.0000 0.68260  0.90683  0.19038  Biso   1.000  Cu
  Cu12     1.0000 0.09317  0.77577  0.19038  Biso   1.000  Cu
  Cu13     1.0000 0.89090  0.65073  0.52371  Biso   1.000  Cu
  Cu14     1.0000 0.34927  0.24016  0.52371  Biso   1.000  Cu
  Cu15     1.0000 0.75984  0.10910  0.52371  Biso   1.000  Cu
  Cu16     1.0000 0.55756  0.98407  0.85705  Biso   1.000  Cu
  Cu17     1.0000 0.01593  0.57350  0.85705  Biso   1.000  Cu
  Cu18     1.0000 0.42650  0.44244  0.85705  Biso   1.000  Cu
  Br1      1.0000 0.78789  0.76218  0.99108  Biso   1.000  Br
  Br2      1.0000 0.23782  0.02571  0.99108  Biso   1.000  Br
  Br3      1.0000 0.97429  0.21211  0.99108  Biso   1.000  Br
  Br4      1.0000 0.45456  0.09551  0.32441  Biso   1.000  Br
  Br5      1.0000 0.90449  0.35904  0.32441  Biso   1.000  Br
  Br6      1.0000 0.64096  0.54544  0.32441  Biso   1.000  Br
  Br7      1.0000 0.12122  0.42885  0.65775  Biso   1.000  Br
  Br8      1.0000 0.57115  0.69238  0.65775  Biso   1.000  Br
  Br9      1.0000 0.30762  0.87878  0.65775  Biso   1.000  Br
  Br10     1.0000 0.21211  0.23782  0.00892  Biso   1.000  Br
  Br11     1.0000 0.76218  0.97429  0.00892  Biso   1.000  Br
  Br12     1.0000 0.02571  0.78789  0.00892  Biso   1.000  Br
  Br13     1.0000 0.87878  0.57115  0.34225  Biso   1.000  Br
  Br14     1.0000 0.42885  0.30762  0.34225  Biso   1.000  Br
  Br15     1.0000 0.69238  0.12122  0.34225  Biso   1.000  Br
  Br16     1.0000 0.54544  0.90449  0.67559  Biso   1.000  Br
  Br17     1.0000 0.09551  0.64096  0.67559  Biso   1.000  Br
  Br18     1.0000 0.35904  0.45456  0.67559  Biso   1.000  Br
  C1       1.0000 0.70342  0.70706  0.62740  Biso   1.000  C
  C2       1.0000 0.29294  0.99636  0.62740  Biso   1.000  C
  C3       1.0000 0.00364  0.29658  0.62740  Biso   1.000  C
  C4       1.0000 0.37009  0.04039  0.96073  Biso   1.000  C
  C5       1.0000 0.95961  0.32969  0.96073  Biso   1.000  C
  C6       1.0000 0.67031  0.62991  0.96073  Biso   1.000  C
  C7       1.0000 0.03675  0.37373  0.29407  Biso   1.000  C
  C8       1.0000 0.62627  0.66303  0.29407  Biso   1.000  C
  C9       1.0000 0.33697  0.96325  0.29407  Biso   1.000  C
  C10      1.0000 0.29658  0.29294  0.37260  Biso   1.000  C
  C11      1.0000 0.70706  0.00364  0.37260  Biso   1.000  C
  C12      1.0000 0.99636  0.70342  0.37260  Biso   1.000  C
  C13      1.0000 0.96325  0.62627  0.70593  Biso   1.000  C
  C14      1.0000 0.37373  0.33697  0.70593  Biso   1.000  C
  C15      1.0000 0.66303  0.03675  0.70593  Biso   1.000  C
  C16      1.0000 0.62991  0.95961  0.03927  Biso   1.000  C
  C17      1.0000 0.04039  0.67031  0.03927  Biso   1.000  C
  C18      1.0000 0.32969  0.37009  0.03927  Biso   1.000  C
  H1       1.0000 0.66969  0.68034  0.66488  Biso   1.000  H
  H2       1.0000 0.31966  0.98935  0.66488  Biso   1.000  H
  H3       1.0000 0.01065  0.33031  0.66488  Biso   1.000  H
  H4       1.0000 0.33636  0.01367  0.99821  Biso   1.000  H
  H5       1.0000 0.98633  0.32268  0.99821  Biso   1.000  H
  H6       1.0000 0.67732  0.66364  0.99821  Biso   1.000  H
  H7       1.0000 0.00302  0.34701  0.33155  Biso   1.000  H
  H8       1.0000 0.65299  0.65602  0.33155  Biso   1.000  H
  H9       1.0000 0.34398  0.99698  0.33155  Biso   1.000  H
  H10      1.0000 0.33031  0.31966  0.33512  Biso   1.000  H
  H11      1.0000 0.68034  0.01065  0.33512  Biso   1.000  H
  H12      1.0000 0.98935  0.66969  0.33512  Biso   1.000  H
  H13      1.0000 0.99698  0.65299  0.66845  Biso   1.000  H
  H14      1.0000 0.34701  0.34398  0.66845  Biso   1.000  H
  H15      1.0000 0.65602  0.00302  0.66845  Biso   1.000  H
  H16      1.0000 0.66364  0.98633  0.00179  Biso   1.000  H
  H17      1.0000 0.01367  0.67732  0.00179  Biso   1.000  H
  H18      1.0000 0.32268  0.33636  0.00179  Biso   1.000  H
  C19      1.0000 0.76298  0.77509  0.50710  Biso   1.000  C
  C20      1.0000 0.22491  0.98789  0.50710  Biso   1.000  C
  C21      1.0000 0.01211  0.23702  0.50710  Biso   1.000  C
  C22      1.0000 0.42965  0.10842  0.84043  Biso   1.000  C
  C23      1.0000 0.89158  0.32122  0.84043  Biso   1.000  C
  C24      1.0000 0.67878  0.57035  0.84043  Biso   1.000  C
  C25      1.0000 0.09631  0.44176  0.17377  Biso   1.000  C
  C26      1.0000 0.55824  0.65456  0.17377  Biso   1.000  C
  C27      1.0000 0.34544  0.90369  0.17377  Biso   1.000  C
  C28      1.0000 0.23702  0.22491  0.49290  Biso   1.000  C
  C29      1.0000 0.77509  0.01211  0.49290  Biso   1.000  C
  C30      1.0000 0.98789  0.76298  0.49290  Biso   1.000  C
  C31      1.0000 0.90369  0.55824  0.82623  Biso   1.000  C
  C32      1.0000 0.44176  0.34544  0.82623  Biso   1.000  C
  C33      1.0000 0.65456  0.09631  0.82623  Biso   1.000  C
  C34      1.0000 0.57035  0.89158  0.15957  Biso   1.000  C
  C35      1.0000 0.10842  0.67878  0.15957  Biso   1.000  C
  C36      1.0000 0.32122  0.42965  0.15957  Biso   1.000  C
  H19      1.0000 0.77963  0.80491  0.44487  Biso   1.000  H
  H20      1.0000 0.19509  0.97472  0.44487  Biso   1.000  H
  H21      1.0000 0.02528  0.22037  0.44487  Biso   1.000  H
  H22      1.0000 0.44630  0.13824  0.77820  Biso   1.000  H
  H23      1.0000 0.86176  0.30805  0.77820  Biso   1.000  H
  H24      1.0000 0.69195  0.55370  0.77820  Biso   1.000  H
  H25      1.0000 0.11296  0.47158  0.11154  Biso   1.000  H
  H26      1.0000 0.52842  0.64139  0.11154  Biso   1.000  H
  H27      1.0000 0.35861  0.88704  0.11154  Biso   1.000  H
  H28      1.0000 0.22037  0.19509  0.55513  Biso   1.000  H
  H29      1.0000 0.80491  0.02528  0.55513  Biso   1.000  H
  H30      1.0000 0.97472  0.77963  0.55513  Biso   1.000  H
  H31      1.0000 0.88704  0.52842  0.88846  Biso   1.000  H
  H32      1.0000 0.47158  0.35861  0.88846  Biso   1.000  H
  H33      1.0000 0.64139  0.11296  0.88846  Biso   1.000  H
  H34      1.0000 0.55370  0.86176  0.22180  Biso   1.000  H
  H35      1.0000 0.13824  0.69195  0.22180  Biso   1.000  H
  H36      1.0000 0.30805  0.44630  0.22180  Biso   1.000  H
  C37      1.0000 0.78938  0.75510  0.58610  Biso   1.000  C
  C38      1.0000 0.24490  0.03428  0.58610  Biso   1.000  C
  C39      1.0000 0.96572  0.21062  0.58610  Biso   1.000  C
  C40      1.0000 0.45605  0.08843  0.91943  Biso   1.000  C
  C41      1.0000 0.91157  0.36761  0.91943  Biso   1.000  C
  C42      1.0000 0.63239  0.54395  0.91943  Biso   1.000  C
  C43      1.0000 0.12271  0.42177  0.25277  Biso   1.000  C
  C44      1.0000 0.57823  0.70095  0.25277  Biso   1.000  C
  C45      1.0000 0.29905  0.87729  0.25277  Biso   1.000  C
  C46      1.0000 0.21062  0.24490  0.41390  Biso   1.000  C
  C47      1.0000 0.75510  0.96572  0.41390  Biso   1.000  C
  C48      1.0000 0.03428  0.78938  0.41390  Biso   1.000  C
  C49      1.0000 0.87729  0.57823  0.74723  Biso   1.000  C
  C50      1.0000 0.42177  0.29905  0.74723  Biso   1.000  C
  C51      1.0000 0.70095  0.12271  0.74723  Biso   1.000  C
  C52      1.0000 0.54395  0.91157  0.08057  Biso   1.000  C
  C53      1.0000 0.08843  0.63239  0.08057  Biso   1.000  C
  C54      1.0000 0.36761  0.45605  0.08057  Biso   1.000  C
  C55      1.0000 0.83870  0.76380  0.61090  Biso   1.000  C
  C56      1.0000 0.23620  0.07490  0.61090  Biso   1.000  C
  C57      1.0000 0.92510  0.16130  0.61090  Biso   1.000  C
  C58      1.0000 0.50537  0.09713  0.94423  Biso   1.000  C
  C59      1.0000 0.90287  0.40823  0.94423  Biso   1.000  C
  C60      1.0000 0.59177  0.49463  0.94423  Biso   1.000  C
  C61      1.0000 0.17203  0.43047  0.27757  Biso   1.000  C
  C62      1.0000 0.56953  0.74157  0.27757  Biso   1.000  C
  C63      1.0000 0.25843  0.82797  0.27757  Biso   1.000  C
  C64      1.0000 0.16130  0.23620  0.38910  Biso   1.000  C
  C65      1.0000 0.76380  0.92510  0.38910  Biso   1.000  C
  C66      1.0000 0.07490  0.83870  0.38910  Biso   1.000  C
  C67      1.0000 0.82797  0.56953  0.72243  Biso   1.000  C
  C68      1.0000 0.43047  0.25843  0.72243  Biso   1.000  C
  C69      1.0000 0.74157  0.17203  0.72243  Biso   1.000  C
  C70      1.0000 0.49463  0.90287  0.05577  Biso   1.000  C
  C71      1.0000 0.09713  0.59177  0.05577  Biso   1.000  C
  C72      1.0000 0.40823  0.50537  0.05577  Biso   1.000  C
  H37      1.0000 0.86916  0.79042  0.56075  Biso   1.000  H
  H38      1.0000 0.20958  0.07874  0.56075  Biso   1.000  H
  H39      1.0000 0.92126  0.13084  0.56075  Biso   1.000  H
  H40      1.0000 0.53583  0.12375  0.89408  Biso   1.000  H
  H41      1.0000 0.87625  0.41207  0.89408  Biso   1.000  H
  H42      1.0000 0.58793  0.46417  0.89408  Biso   1.000  H
  H43      1.0000 0.20249  0.45709  0.22742  Biso   1.000  H
  H44      1.0000 0.54291  0.74541  0.22742  Biso   1.000  H
  H45      1.0000 0.25459  0.79751  0.22742  Biso   1.000  H
  H46      1.0000 0.13084  0.20958  0.43925  Biso   1.000  H
  H47      1.0000 0.79042  0.92126  0.43925  Biso   1.000  H
  H48      1.0000 0.07874  0.86916  0.43925  Biso   1.000  H
  H49      1.0000 0.79751  0.54291  0.77258  Biso   1.000  H
  H50      1.0000 0.45709  0.25459  0.77258  Biso   1.000  H
  H51      1.0000 0.74541  0.20249  0.77258  Biso   1.000  H
  H52      1.0000 0.46417  0.87625  0.10592  Biso   1.000  H
  H53      1.0000 0.12375  0.58793  0.10592  Biso   1.000  H
  H54      1.0000 0.41207  0.53583  0.10592  Biso   1.000  H
  C73      1.0000 0.90660  0.72360  0.82540  Biso   1.000  C
  C74      1.0000 0.27640  0.18300  0.82540  Biso   1.000  C
  C75      1.0000 0.81700  0.09340  0.82540  Biso   1.000  C
  C76      1.0000 0.57327  0.05693  0.15873  Biso   1.000  C
  C77      1.0000 0.94307  0.51633  0.15873  Biso   1.000  C
  C78      1.0000 0.48367  0.42673  0.15873  Biso   1.000  C
  C79      1.0000 0.23993  0.39027  0.49207  Biso   1.000  C
  C80      1.0000 0.60973  0.84967  0.49207  Biso   1.000  C
  C81      1.0000 0.15033  0.76007  0.49207  Biso   1.000  C
  C82      1.0000 0.09340  0.27640  0.17460  Biso   1.000  C
  C83      1.0000 0.72360  0.81700  0.17460  Biso   1.000  C
  C84      1.0000 0.18300  0.90660  0.17460  Biso   1.000  C
  C85      1.0000 0.76007  0.60973  0.50793  Biso   1.000  C
  C86      1.0000 0.39027  0.15033  0.50793  Biso   1.000  C
  C87      1.0000 0.84967  0.23993  0.50793  Biso   1.000  C
  C88      1.0000 0.42673  0.94307  0.84127  Biso   1.000  C
  C89      1.0000 0.05693  0.48367  0.84127  Biso   1.000  C
  C90      1.0000 0.51633  0.57327  0.84127  Biso   1.000  C
  H55      1.0000 0.94361  0.73404  0.83742  Biso   1.000  H
  H56      1.0000 0.26596  0.20957  0.83742  Biso   1.000  H
  H57      1.0000 0.79043  0.05639  0.83742  Biso   1.000  H
  H58      1.0000 0.61028  0.06737  0.17075  Biso   1.000  H
  H59      1.0000 0.93263  0.54290  0.17075  Biso   1.000  H
  H60      1.0000 0.45710  0.38972  0.17075  Biso   1.000  H
  H61      1.0000 0.27694  0.40071  0.50409  Biso   1.000  H
  H62      1.0000 0.59929  0.87624  0.50409  Biso   1.000  H
  H63      1.0000 0.12376  0.72306  0.50409  Biso   1.000  H
  H64      1.0000 0.05639  0.26596  0.16258  Biso   1.000  H
  H65      1.0000 0.73404  0.79043  0.16258  Biso   1.000  H
  H66      1.0000 0.20957  0.94361  0.16258  Biso   1.000  H
  H67      1.0000 0.72306  0.59929  0.49591  Biso   1.000  H
  H68      1.0000 0.40071  0.12376  0.49591  Biso   1.000  H
  H69      1.0000 0.87624  0.27694  0.49591  Biso   1.000  H
  H70      1.0000 0.38972  0.93263  0.82925  Biso   1.000  H
  H71      1.0000 0.06737  0.45710  0.82925  Biso   1.000  H
  H72      1.0000 0.54290  0.61028  0.82925  Biso   1.000  H
  C91      1.0000 0.86849  0.68054  0.92470  Biso   1.000  C
  C92      1.0000 0.31946  0.18795  0.92470  Biso   1.000  C
  C93      1.0000 0.81205  0.13151  0.92470  Biso   1.000  C
  C94      1.0000 0.53516  0.01387  0.25803  Biso   1.000  C
  C95      1.0000 0.98613  0.52128  0.25803  Biso   1.000  C
  C96      1.0000 0.47872  0.46484  0.25803  Biso   1.000  C
  C97      1.0000 0.20182  0.34721  0.59137  Biso   1.000  C
  C98      1.0000 0.65279  0.85462  0.59137  Biso   1.000  C
  C99      1.0000 0.14538  0.79818  0.59137  Biso   1.000  C
  C100     1.0000 0.13151  0.31946  0.07530  Biso   1.000  C
  C101     1.0000 0.68054  0.81205  0.07530  Biso   1.000  C
  C102     1.0000 0.18795  0.86849  0.07530  Biso   1.000  C
  C103     1.0000 0.79818  0.65279  0.40863  Biso   1.000  C
  C104     1.0000 0.34721  0.14538  0.40863  Biso   1.000  C
  C105     1.0000 0.85462  0.20182  0.40863  Biso   1.000  C
  C106     1.0000 0.46484  0.98613  0.74197  Biso   1.000  C
  C107     1.0000 0.01387  0.47872  0.74197  Biso   1.000  C
  C108     1.0000 0.52128  0.53516  0.74197  Biso   1.000  C
  C109     1.0000 0.88586  0.65820  0.02420  Biso   1.000  C
  C110     1.0000 0.34180  0.22766  0.02420  Biso   1.000  C
  C111     1.0000 0.77234  0.11414  0.02420  Biso   1.000  C
  C112     1.0000 0.55253  0.99153  0.35753  Biso   1.000  C
  C113     1.0000 0.00847  0.56099  0.35753  Biso   1.000  C
  C114     1.0000 0.43901  0.44747  0.35753  Biso   1.000  C
  C115     1.0000 0.21919  0.32487  0.69087  Biso   1.000  C
  C116     1.0000 0.67513  0.89433  0.69087  Biso   1.000  C
  C117     1.0000 0.10567  0.78081  0.69087  Biso   1.000  C
  C118     1.0000 0.11414  0.34180  0.97580  Biso   1.000  C
  C119     1.0000 0.65820  0.77234  0.97580  Biso   1.000  C
  C120     1.0000 0.22766  0.88586  0.97580  Biso   1.000  C
  C121     1.0000 0.78081  0.67513  0.30913  Biso   1.000  C
  C122     1.0000 0.32487  0.10567  0.30913  Biso   1.000  C
  C123     1.0000 0.89433  0.21919  0.30913  Biso   1.000  C
  C124     1.0000 0.44747  0.00847  0.64247  Biso   1.000  C
  C125     1.0000 0.99153  0.43901  0.64247  Biso   1.000  C
  C126     1.0000 0.56099  0.55253  0.64247  Biso   1.000  C
  H73      1.0000 0.92227  0.66852  0.04590  Biso   1.000  H
  H74      1.0000 0.33148  0.25375  0.04590  Biso   1.000  H
  H75      1.0000 0.74625  0.07773  0.04590  Biso   1.000  H
  H76      1.0000 0.58894  0.00185  0.37923  Biso   1.000  H
  H77      1.0000 0.99815  0.58708  0.37923  Biso   1.000  H
  H78      1.0000 0.41292  0.41106  0.37923  Biso   1.000  H
  H79      1.0000 0.25560  0.33519  0.71257  Biso   1.000  H
  H80      1.0000 0.66481  0.92042  0.71257  Biso   1.000  H
  H81      1.0000 0.07958  0.74440  0.71257  Biso   1.000  H
  H82      1.0000 0.07773  0.33148  0.95410  Biso   1.000  H
  H83      1.0000 0.66852  0.74625  0.95410  Biso   1.000  H
  H84      1.0000 0.25375  0.92227  0.95410  Biso   1.000  H
  H85      1.0000 0.74440  0.66481  0.28743  Biso   1.000  H
  H86      1.0000 0.33519  0.07958  0.28743  Biso   1.000  H
  H87      1.0000 0.92042  0.25560  0.28743  Biso   1.000  H
  H88      1.0000 0.41106  0.99815  0.62077  Biso   1.000  H
  H89      1.0000 0.00185  0.41292  0.62077  Biso   1.000  H
  H90      1.0000 0.58708  0.58894  0.62077  Biso   1.000  H
  C127     1.0000 0.79699  0.61683  0.02530  Biso   1.000  C
  C128     1.0000 0.38317  0.18016  0.02530  Biso   1.000  C
  C129     1.0000 0.81984  0.20301  0.02530  Biso   1.000  C
  C130     1.0000 0.46366  0.95016  0.35863  Biso   1.000  C
  C131     1.0000 0.04984  0.51349  0.35863  Biso   1.000  C
  C132     1.0000 0.48651  0.53634  0.35863  Biso   1.000  C
  C133     1.0000 0.13032  0.28350  0.69197  Biso   1.000  C
  C134     1.0000 0.71650  0.84683  0.69197  Biso   1.000  C
  C135     1.0000 0.15317  0.86968  0.69197  Biso   1.000  C
  C136     1.0000 0.20301  0.38317  0.97470  Biso   1.000  C
  C137     1.0000 0.61683  0.81984  0.97470  Biso   1.000  C
  C138     1.0000 0.18016  0.79699  0.97470  Biso   1.000  C
  C139     1.0000 0.86968  0.71650  0.30803  Biso   1.000  C
  C140     1.0000 0.28350  0.15317  0.30803  Biso   1.000  C
  C141     1.0000 0.84683  0.13032  0.30803  Biso   1.000  C
  C142     1.0000 0.53634  0.04984  0.64137  Biso   1.000  C
  C143     1.0000 0.95016  0.48651  0.64137  Biso   1.000  C
  C144     1.0000 0.51349  0.46366  0.64137  Biso   1.000  C
  H91      1.0000 0.76043  0.59252  0.05031  Biso   1.000  H
  H92      1.0000 0.40748  0.16791  0.05031  Biso   1.000  H
  H93      1.0000 0.83209  0.23957  0.05031  Biso   1.000  H
  H94      1.0000 0.42710  0.92585  0.38364  Biso   1.000  H
  H95      1.0000 0.07415  0.50124  0.38364  Biso   1.000  H
  H96      1.0000 0.49876  0.57290  0.38364  Biso   1.000  H
  H97      1.0000 0.09376  0.25919  0.71698  Biso   1.000  H
  H98      1.0000 0.74081  0.83458  0.71698  Biso   1.000  H
  H99      1.0000 0.16542  0.90624  0.71698  Biso   1.000  H
  H100     1.0000 0.23957  0.40748  0.94969  Biso   1.000  H
  H101     1.0000 0.59252  0.83209  0.94969  Biso   1.000  H
  H102     1.0000 0.16791  0.76043  0.94969  Biso   1.000  H
  H103     1.0000 0.90624  0.74081  0.28302  Biso   1.000  H
  H104     1.0000 0.25919  0.16542  0.28302  Biso   1.000  H
  H105     1.0000 0.83458  0.09376  0.28302  Biso   1.000  H
  H106     1.0000 0.57290  0.07415  0.61636  Biso   1.000  H
  H107     1.0000 0.92585  0.49876  0.61636  Biso   1.000  H
  H108     1.0000 0.50124  0.42710  0.61636  Biso   1.000  H
  N1       1.0000 0.75052  0.71154  0.66160  Biso   1.000  N
  N2       1.0000 0.28846  0.03898  0.66160  Biso   1.000  N
  N3       1.0000 0.96102  0.24948  0.66160  Biso   1.000  N
  N4       1.0000 0.41719  0.04487  0.99493  Biso   1.000  N
  N5       1.0000 0.95513  0.37231  0.99493  Biso   1.000  N
  N6       1.0000 0.62769  0.58281  0.99493  Biso   1.000  N
  N7       1.0000 0.08385  0.37821  0.32827  Biso   1.000  N
  N8       1.0000 0.62179  0.70565  0.32827  Biso   1.000  N
  N9       1.0000 0.29435  0.91615  0.32827  Biso   1.000  N
  N10      1.0000 0.24948  0.28846  0.33840  Biso   1.000  N
  N11      1.0000 0.71154  0.96102  0.33840  Biso   1.000  N
  N12      1.0000 0.03898  0.75052  0.33840  Biso   1.000  N
  N13      1.0000 0.91615  0.62179  0.67173  Biso   1.000  N
  N14      1.0000 0.37821  0.29435  0.67173  Biso   1.000  N
  N15      1.0000 0.70565  0.08385  0.67173  Biso   1.000  N
  N16      1.0000 0.58281  0.95513  0.00507  Biso   1.000  N
  N17      1.0000 0.04487  0.62769  0.00507  Biso   1.000  N
  N18      1.0000 0.37231  0.41719  0.00507  Biso   1.000  N
  N19      1.0000 0.70862  0.74461  0.53370  Biso   1.000  N
  N20      1.0000 0.25539  0.96401  0.53370  Biso   1.000  N
  N21      1.0000 0.03599  0.29138  0.53370  Biso   1.000  N
  N22      1.0000 0.37529  0.07794  0.86703  Biso   1.000  N
  N23      1.0000 0.92206  0.29734  0.86703  Biso   1.000  N
  N24      1.0000 0.70266  0.62471  0.86703  Biso   1.000  N
  N25      1.0000 0.04195  0.41128  0.20037  Biso   1.000  N
  N26      1.0000 0.58872  0.63068  0.20037  Biso   1.000  N
  N27      1.0000 0.36932  0.95805  0.20037  Biso   1.000  N
  N28      1.0000 0.29138  0.25539  0.46630  Biso   1.000  N
  N29      1.0000 0.74461  0.03599  0.46630  Biso   1.000  N
  N30      1.0000 0.96401  0.70862  0.46630  Biso   1.000  N
  N31      1.0000 0.95805  0.58872  0.79963  Biso   1.000  N
  N32      1.0000 0.41128  0.36932  0.79963  Biso   1.000  N
  N33      1.0000 0.63068  0.04195  0.79963  Biso   1.000  N
  N34      1.0000 0.62471  0.92206  0.13297  Biso   1.000  N
  N35      1.0000 0.07794  0.70266  0.13297  Biso   1.000  N
  N36      1.0000 0.29734  0.37529  0.13297  Biso   1.000  N
  N37      1.0000 0.89743  0.74880  0.72630  Biso   1.000  N
  N38      1.0000 0.25120  0.14863  0.72630  Biso   1.000  N
  N39      1.0000 0.85137  0.10257  0.72630  Biso   1.000  N
  N40      1.0000 0.56410  0.08213  0.05963  Biso   1.000  N
  N41      1.0000 0.91787  0.48196  0.05963  Biso   1.000  N
  N42      1.0000 0.51804  0.43590  0.05963  Biso   1.000  N
  N43      1.0000 0.23076  0.41547  0.39297  Biso   1.000  N
  N44      1.0000 0.58453  0.81530  0.39297  Biso   1.000  N
  N45      1.0000 0.18470  0.76924  0.39297  Biso   1.000  N
  N46      1.0000 0.10257  0.25120  0.27370  Biso   1.000  N
  N47      1.0000 0.74880  0.85137  0.27370  Biso   1.000  N
  N48      1.0000 0.14863  0.89743  0.27370  Biso   1.000  N
  N49      1.0000 0.76924  0.58453  0.60703  Biso   1.000  N
  N50      1.0000 0.41547  0.18470  0.60703  Biso   1.000  N
  N51      1.0000 0.81530  0.23076  0.60703  Biso   1.000  N
  N52      1.0000 0.43590  0.91787  0.94037  Biso   1.000  N
  N53      1.0000 0.08213  0.51804  0.94037  Biso   1.000  N
  N54      1.0000 0.48196  0.56410  0.94037  Biso   1.000  N
  N55      1.0000 0.84390  0.73480  0.70550  Biso   1.000  N
  N56      1.0000 0.26520  0.10910  0.70550  Biso   1.000  N
  N57      1.0000 0.89090  0.15610  0.70550  Biso   1.000  N
  N58      1.0000 0.51057  0.06813  0.03883  Biso   1.000  N
  N59      1.0000 0.93187  0.44243  0.03883  Biso   1.000  N
  N60      1.0000 0.55757  0.48943  0.03883  Biso   1.000  N
  N61      1.0000 0.17723  0.40147  0.37217  Biso   1.000  N
  N62      1.0000 0.59853  0.77577  0.37217  Biso   1.000  N
  N63      1.0000 0.22423  0.82277  0.37217  Biso   1.000  N
  N64      1.0000 0.15610  0.26520  0.29450  Biso   1.000  N
  N65      1.0000 0.73480  0.89090  0.29450  Biso   1.000  N
  N66      1.0000 0.10910  0.84390  0.29450  Biso   1.000  N
  N67      1.0000 0.82277  0.59853  0.62783  Biso   1.000  N
  N68      1.0000 0.40147  0.22423  0.62783  Biso   1.000  N
  N69      1.0000 0.77577  0.17723  0.62783  Biso   1.000  N
  N70      1.0000 0.48943  0.93187  0.96117  Biso   1.000  N
  N71      1.0000 0.06813  0.55757  0.96117  Biso   1.000  N
  N72      1.0000 0.44243  0.51057  0.96117  Biso   1.000  N
  N73      1.0000 0.81235  0.65370  0.92750  Biso   1.000  N
  N74      1.0000 0.34630  0.15865  0.92750  Biso   1.000  N
  N75      1.0000 0.84135  0.18765  0.92750  Biso   1.000  N
  N76      1.0000 0.47902  0.98703  0.26083  Biso   1.000  N
  N77      1.0000 0.01297  0.49198  0.26083  Biso   1.000  N
  N78      1.0000 0.50802  0.52098  0.26083  Biso   1.000  N
  N79      1.0000 0.14568  0.32037  0.59417  Biso   1.000  N
  N80      1.0000 0.67963  0.82532  0.59417  Biso   1.000  N
  N81      1.0000 0.17468  0.85432  0.59417  Biso   1.000  N
  N82      1.0000 0.18765  0.34630  0.07250  Biso   1.000  N
  N83      1.0000 0.65370  0.84135  0.07250  Biso   1.000  N
  N84      1.0000 0.15865  0.81235  0.07250  Biso   1.000  N
  N85      1.0000 0.85432  0.67963  0.40583  Biso   1.000  N
  N86      1.0000 0.32037  0.17468  0.40583  Biso   1.000  N
  N87      1.0000 0.82532  0.14568  0.40583  Biso   1.000  N
  N88      1.0000 0.52098  0.01297  0.73917  Biso   1.000  N
  N89      1.0000 0.98703  0.50802  0.73917  Biso   1.000  N
  N90      1.0000 0.49198  0.47902  0.73917  Biso   1.000  N
  N91      1.0000 0.84047  0.61834  0.08550  Biso   1.000  N
  N92      1.0000 0.38166  0.22213  0.08550  Biso   1.000  N
  N93      1.0000 0.77787  0.15953  0.08550  Biso   1.000  N
  N94      1.0000 0.50714  0.95167  0.41883  Biso   1.000  N
  N95      1.0000 0.04833  0.55546  0.41883  Biso   1.000  N
  N96      1.0000 0.44454  0.49286  0.41883  Biso   1.000  N
  N97      1.0000 0.17380  0.28501  0.75217  Biso   1.000  N
  N98      1.0000 0.71499  0.88880  0.75217  Biso   1.000  N
  N99      1.0000 0.11120  0.82620  0.75217  Biso   1.000  N
  N100     1.0000 0.15953  0.38166  0.91450  Biso   1.000  N
  N101     1.0000 0.61834  0.77787  0.91450  Biso   1.000  N
  N102     1.0000 0.22213  0.84047  0.91450  Biso   1.000  N
  N103     1.0000 0.82620  0.71499  0.24783  Biso   1.000  N
  N104     1.0000 0.28501  0.11120  0.24783  Biso   1.000  N
  N105     1.0000 0.88880  0.17380  0.24783  Biso   1.000  N
  N106     1.0000 0.49286  0.04833  0.58117  Biso   1.000  N
  N107     1.0000 0.95167  0.44454  0.58117  Biso   1.000  N
  N108     1.0000 0.55546  0.50714  0.58117  Biso   1.000  N
  H109     1.0000 0.83956  0.59706  0.15313  Biso   1.000  H
  H110     1.0000 0.40294  0.24250  0.15313  Biso   1.000  H
  H111     1.0000 0.75750  0.16044  0.15313  Biso   1.000  H
  H112     1.0000 0.50623  0.93039  0.48646  Biso   1.000  H
  H113     1.0000 0.06961  0.57583  0.48646  Biso   1.000  H
  H114     1.0000 0.42417  0.49377  0.48646  Biso   1.000  H
  H115     1.0000 0.17289  0.26373  0.81980  Biso   1.000  H
  H116     1.0000 0.73627  0.90917  0.81980  Biso   1.000  H
  H117     1.0000 0.09083  0.82711  0.81980  Biso   1.000  H
  H118     1.0000 0.16044  0.40294  0.84687  Biso   1.000  H
  H119     1.0000 0.59706  0.75750  0.84687  Biso   1.000  H
  H120     1.0000 0.24250  0.83956  0.84687  Biso   1.000  H
  H121     1.0000 0.82711  0.73627  0.18020  Biso   1.000  H
  H122     1.0000 0.26373  0.09083  0.18020  Biso   1.000  H
  H123     1.0000 0.90917  0.17289  0.18020  Biso   1.000  H
  H124     1.0000 0.49377  0.06961  0.51354  Biso   1.000  H
  H125     1.0000 0.93039  0.42417  0.51354  Biso   1.000  H
  H126     1.0000 0.57583  0.50623  0.51354  Biso   1.000  H
  C145     1.0000 0.85220  0.78270  0.59070  Biso   1.000  C
  C146     1.0000 0.21730  0.06950  0.59070  Biso   1.000  C
  C147     1.0000 0.93050  0.14780  0.59070  Biso   1.000  C
  C148     1.0000 0.51887  0.11603  0.92403  Biso   1.000  C
  C149     1.0000 0.88397  0.40283  0.92403  Biso   1.000  C
  C150     1.0000 0.59717  0.48113  0.92403  Biso   1.000  C
  C151     1.0000 0.18553  0.44937  0.25737  Biso   1.000  C
  C152     1.0000 0.55063  0.73617  0.25737  Biso   1.000  C
  C153     1.0000 0.26383  0.81447  0.25737  Biso   1.000  C
  C154     1.0000 0.14780  0.21730  0.40930  Biso   1.000  C
  C155     1.0000 0.78270  0.93050  0.40930  Biso   1.000  C
  C156     1.0000 0.06950  0.85220  0.40930  Biso   1.000  C
  C157     1.0000 0.81447  0.55063  0.74263  Biso   1.000  C
  C158     1.0000 0.44937  0.26383  0.74263  Biso   1.000  C
  C159     1.0000 0.73617  0.18553  0.74263  Biso   1.000  C
  C160     1.0000 0.48113  0.88397  0.07597  Biso   1.000  C
  C161     1.0000 0.11603  0.59717  0.07597  Biso   1.000  C
  C162     1.0000 0.40283  0.51887  0.07597  Biso   1.000  C
  H127     1.0000 0.87021  0.81250  0.52880  Biso   1.000  H
  H128     1.0000 0.18750  0.05771  0.52880  Biso   1.000  H
  H129     1.0000 0.94229  0.12979  0.52880  Biso   1.000  H
  H130     1.0000 0.53688  0.14583  0.86213  Biso   1.000  H
  H131     1.0000 0.85417  0.39104  0.86213  Biso   1.000  H
  H132     1.0000 0.60896  0.46312  0.86213  Biso   1.000  H
  H133     1.0000 0.20354  0.47917  0.19547  Biso   1.000  H
  H134     1.0000 0.52083  0.72438  0.19547  Biso   1.000  H
  H135     1.0000 0.27562  0.79646  0.19547  Biso   1.000  H
  H136     1.0000 0.12979  0.18750  0.47120  Biso   1.000  H
  H137     1.0000 0.81250  0.94229  0.47120  Biso   1.000  H
  H138     1.0000 0.05771  0.87021  0.47120  Biso   1.000  H
  H139     1.0000 0.79646  0.52083  0.80453  Biso   1.000  H
  H140     1.0000 0.47917  0.27562  0.80453  Biso   1.000  H
  H141     1.0000 0.72438  0.20354  0.80453  Biso   1.000  H
  H142     1.0000 0.46312  0.85417  0.13787  Biso   1.000  H
  H143     1.0000 0.14583  0.60896  0.13787  Biso   1.000  H
  H144     1.0000 0.39104  0.53688  0.13787  Biso   1.000  H
  C163     1.0000 0.89110  0.72170  0.83060  Biso   1.000  C
  C164     1.0000 0.27830  0.16940  0.83060  Biso   1.000  C
  C165     1.0000 0.83060  0.10890  0.83060  Biso   1.000  C
  C166     1.0000 0.55777  0.05503  0.16393  Biso   1.000  C
  C167     1.0000 0.94497  0.50273  0.16393  Biso   1.000  C
  C168     1.0000 0.49727  0.44223  0.16393  Biso   1.000  C
  C169     1.0000 0.22443  0.38837  0.49727  Biso   1.000  C
  C170     1.0000 0.61163  0.83607  0.49727  Biso   1.000  C
  C171     1.0000 0.16393  0.77557  0.49727  Biso   1.000  C
  C172     1.0000 0.10890  0.27830  0.16940  Biso   1.000  C
  C173     1.0000 0.72170  0.83060  0.16940  Biso   1.000  C
  C174     1.0000 0.16940  0.89110  0.16940  Biso   1.000  C
  C175     1.0000 0.77557  0.61163  0.50273  Biso   1.000  C
  C176     1.0000 0.38837  0.16393  0.50273  Biso   1.000  C
  C177     1.0000 0.83607  0.22443  0.50273  Biso   1.000  C
  C178     1.0000 0.44223  0.94497  0.83607  Biso   1.000  C
  C179     1.0000 0.05503  0.49727  0.83607  Biso   1.000  C
  C180     1.0000 0.50273  0.55777  0.83607  Biso   1.000  C
  H145     1.0000 0.92921  0.74349  0.82005  Biso   1.000  H
  H146     1.0000 0.25651  0.18572  0.82005  Biso   1.000  H
  H147     1.0000 0.81428  0.07079  0.82005  Biso   1.000  H
  H148     1.0000 0.59588  0.07682  0.15338  Biso   1.000  H
  H149     1.0000 0.92318  0.51905  0.15338  Biso   1.000  H
  H150     1.0000 0.48095  0.40412  0.15338  Biso   1.000  H
  H151     1.0000 0.26254  0.41016  0.48672  Biso   1.000  H
  H152     1.0000 0.58984  0.85239  0.48672  Biso   1.000  H
  H153     1.0000 0.14761  0.73746  0.48672  Biso   1.000  H
  H154     1.0000 0.07079  0.25651  0.17995  Biso   1.000  H
  H155     1.0000 0.74349  0.81428  0.17995  Biso   1.000  H
  H156     1.0000 0.18572  0.92921  0.17995  Biso   1.000  H
  H157     1.0000 0.73746  0.58984  0.51328  Biso   1.000  H
  H158     1.0000 0.41016  0.14761  0.51328  Biso   1.000  H
  H159     1.0000 0.85239  0.26254  0.51328  Biso   1.000  H
  H160     1.0000 0.40412  0.92318  0.84662  Biso   1.000  H
  H161     1.0000 0.07682  0.48095  0.84662  Biso   1.000  H
  H162     1.0000 0.51905  0.59588  0.84662  Biso   1.000  H
  N109     1.0000 0.88500  0.77250  0.66420  Biso   1.000  N
  N110     1.0000 0.22750  0.11250  0.66420  Biso   1.000  N
  N111     1.0000 0.88750  0.11500  0.66420  Biso   1.000  N
  N112     1.0000 0.55167  0.10583  0.99753  Biso   1.000  N
  N113     1.0000 0.89417  0.44583  0.99753  Biso   1.000  N
  N114     1.0000 0.55417  0.44833  0.99753  Biso   1.000  N
  N115     1.0000 0.21833  0.43917  0.33087  Biso   1.000  N
  N116     1.0000 0.56083  0.77917  0.33087  Biso   1.000  N
  N117     1.0000 0.22083  0.78167  0.33087  Biso   1.000  N
  N118     1.0000 0.11500  0.22750  0.33580  Biso   1.000  N
  N119     1.0000 0.77250  0.88750  0.33580  Biso   1.000  N
  N120     1.0000 0.11250  0.88500  0.33580  Biso   1.000  N
  N121     1.0000 0.78167  0.56083  0.66913  Biso   1.000  N
  N122     1.0000 0.43917  0.22083  0.66913  Biso   1.000  N
  N123     1.0000 0.77917  0.21833  0.66913  Biso   1.000  N
  N124     1.0000 0.44833  0.89417  0.00247  Biso   1.000  N
  N125     1.0000 0.10583  0.55417  0.00247  Biso   1.000  N
  N126     1.0000 0.44583  0.55167  0.00247  Biso   1.000  N
  N127     1.0000 0.85770  0.72940  0.75640  Biso   1.000  N
  N128     1.0000 0.27060  0.12830  0.75640  Biso   1.000  N
  N129     1.0000 0.87170  0.14230  0.75640  Biso   1.000  N
  N130     1.0000 0.52437  0.06273  0.08973  Biso   1.000  N
  N131     1.0000 0.93727  0.46163  0.08973  Biso   1.000  N
  N132     1.0000 0.53837  0.47563  0.08973  Biso   1.000  N
  N133     1.0000 0.19103  0.39607  0.42307  Biso   1.000  N
  N134     1.0000 0.60393  0.79497  0.42307  Biso   1.000  N
  N135     1.0000 0.20503  0.80897  0.42307  Biso   1.000  N
  N136     1.0000 0.14230  0.27060  0.24360  Biso   1.000  N
  N137     1.0000 0.72940  0.87170  0.24360  Biso   1.000  N
  N138     1.0000 0.12830  0.85770  0.24360  Biso   1.000  N
  N139     1.0000 0.80897  0.60393  0.57693  Biso   1.000  N
  N140     1.0000 0.39607  0.20503  0.57693  Biso   1.000  N
  N141     1.0000 0.79497  0.19103  0.57693  Biso   1.000  N
  N142     1.0000 0.47563  0.93727  0.91027  Biso   1.000  N
  N143     1.0000 0.06273  0.53837  0.91027  Biso   1.000  N
  N144     1.0000 0.46163  0.52437  0.91027  Biso   1.000  N
