data_image0
_cell_length_a       27.9457
_cell_length_b       27.9457
_cell_length_c       9.7132
_cell_angle_alpha    90
_cell_angle_beta     90
_cell_angle_gamma    120

_symmetry_space_group_name_H-M    "P 1"
_symmetry_int_tables_number       1

loop_
  _symmetry_equiv_pos_as_xyz
  'x, y, z'

loop_
  _atom_site_label
  _atom_site_occupancy
  _atom_site_fract_x
  _atom_site_fract_y
  _atom_site_fract_z
  _atom_site_thermal_displace_type
  _atom_site_B_iso_or_equiv
  _atom_site_type_symbol
  Cu1      1.0000 0.76117  0.64954  0.01733  Biso   1.000  Cu
  Cu2      1.0000 0.35046  0.11163  0.01733  Biso   1.000  Cu
  Cu3      1.0000 0.88837  0.23883  0.01733  Biso   1.000  Cu
  Cu4      1.0000 0.42784  0.98287  0.35066  Biso   1.000  Cu
  Cu5      1.0000 0.01713  0.44496  0.35066  Biso   1.000  Cu
  Cu6      1.0000 0.55504  0.57216  0.35066  Biso   1.000  Cu
  Cu7      1.0000 0.09450  0.31621  0.68400  Biso   1.000  Cu
  Cu8      1.0000 0.68379  0.77830  0.68400  Biso   1.000  Cu
  Cu9      1.0000 0.22170  0.90550  0.68400  Biso   1.000  Cu
  Cu10     1.0000 0.23883  0.35046  0.98267  Biso   1.000  Cu
  Cu11     1.0000 0.64954  0.88837  0.98267  Biso   1.000  Cu
  Cu12     1.0000 0.11163  0.76117  0.98267  Biso   1.000  Cu
  Cu13     1.0000 0.90550  0.68379  0.31600  Biso   1.000  Cu
  Cu14     1.0000 0.31621  0.22170  0.31600  Biso   1.000  Cu
  Cu15     1.0000 0.77830  0.09450  0.31600  Biso   1.000  Cu
  Cu16     1.0000 0.57216  0.01713  0.64934  Biso   1.000  Cu
  Cu17     1.0000 0.98287  0.55504  0.64934  Biso   1.000  Cu
  Cu18     1.0000 0.44496  0.42784  0.64934  Biso   1.000  Cu
  N1       1.0000 0.70549  0.62058  0.16332  Biso   1.000  N
  N2       1.0000 0.37942  0.08491  0.16332  Biso   1.000  N
  N3       1.0000 0.91509  0.29451  0.16332  Biso   1.000  N
  N4       1.0000 0.37216  0.95391  0.49665  Biso   1.000  N
  N5       1.0000 0.04609  0.41824  0.49665  Biso   1.000  N
  N6       1.0000 0.58176  0.62784  0.49665  Biso   1.000  N
  N7       1.0000 0.03882  0.28725  0.82999  Biso   1.000  N
  N8       1.0000 0.71275  0.75158  0.82999  Biso   1.000  N
  N9       1.0000 0.24842  0.96118  0.82999  Biso   1.000  N
  N10      1.0000 0.29451  0.37942  0.83668  Biso   1.000  N
  N11      1.0000 0.62058  0.91509  0.83668  Biso   1.000  N
  N12      1.0000 0.08491  0.70549  0.83668  Biso   1.000  N
  N13      1.0000 0.96118  0.71275  0.17001  Biso   1.000  N
  N14      1.0000 0.28725  0.24842  0.17001  Biso   1.000  N
  N15      1.0000 0.75158  0.03882  0.17001  Biso   1.000  N
  N16      1.0000 0.62784  0.04609  0.50335  Biso   1.000  N
  N17      1.0000 0.95391  0.58176  0.50335  Biso   1.000  N
  N18      1.0000 0.41824  0.37216  0.50335  Biso   1.000  N
  N19      1.0000 0.62948  0.58731  0.29192  Biso   1.000  N
  N20      1.0000 0.41269  0.04217  0.29192  Biso   1.000  N
  N21      1.0000 0.95783  0.37052  0.29192  Biso   1.000  N
  N22      1.0000 0.29615  0.92064  0.62525  Biso   1.000  N
  N23      1.0000 0.07936  0.37550  0.62525  Biso   1.000  N
  N24      1.0000 0.62450  0.70385  0.62525  Biso   1.000  N
  N25      1.0000 0.96281  0.25398  0.95859  Biso   1.000  N
  N26      1.0000 0.74602  0.70884  0.95859  Biso   1.000  N
  N27      1.0000 0.29116  0.03719  0.95859  Biso   1.000  N
  N28      1.0000 0.37052  0.41269  0.70808  Biso   1.000  N
  N29      1.0000 0.58731  0.95783  0.70808  Biso   1.000  N
  N30      1.0000 0.04217  0.62948  0.70808  Biso   1.000  N
  N31      1.0000 0.03719  0.74602  0.04141  Biso   1.000  N
  N32      1.0000 0.25398  0.29116  0.04141  Biso   1.000  N
  N33      1.0000 0.70884  0.96281  0.04141  Biso   1.000  N
  N34      1.0000 0.70385  0.07936  0.37475  Biso   1.000  N
  N35      1.0000 0.92064  0.62450  0.37475  Biso   1.000  N
  N36      1.0000 0.37550  0.29615  0.37475  Biso   1.000  N
  N37      1.0000 0.82908  0.67890  0.90400  Biso   1.000  N
  N38      1.0000 0.32110  0.15018  0.90400  Biso   1.000  N
  N39      1.0000 0.84982  0.17092  0.90400  Biso   1.000  N
  N40      1.0000 0.49575  0.01223  0.23733  Biso   1.000  N
  N41      1.0000 0.98777  0.48351  0.23733  Biso   1.000  N
  N42      1.0000 0.51649  0.50425  0.23733  Biso   1.000  N
  N43      1.0000 0.16241  0.34557  0.57067  Biso   1.000  N
  N44      1.0000 0.65443  0.81685  0.57067  Biso   1.000  N
  N45      1.0000 0.18315  0.83759  0.57067  Biso   1.000  N
  N46      1.0000 0.17092  0.32110  0.09600  Biso   1.000  N
  N47      1.0000 0.67890  0.84982  0.09600  Biso   1.000  N
  N48      1.0000 0.15018  0.82908  0.09600  Biso   1.000  N
  N49      1.0000 0.83759  0.65443  0.42933  Biso   1.000  N
  N50      1.0000 0.34557  0.18315  0.42933  Biso   1.000  N
  N51      1.0000 0.81685  0.16241  0.42933  Biso   1.000  N
  N52      1.0000 0.50425  0.98777  0.76267  Biso   1.000  N
  N53      1.0000 0.01223  0.51649  0.76267  Biso   1.000  N
  N54      1.0000 0.48351  0.49575  0.76267  Biso   1.000  N
  N55      1.0000 0.89246  0.71293  0.74370  Biso   1.000  N
  N56      1.0000 0.28707  0.17953  0.74370  Biso   1.000  N
  N57      1.0000 0.82047  0.10754  0.74370  Biso   1.000  N
  N58      1.0000 0.55913  0.04626  0.07703  Biso   1.000  N
  N59      1.0000 0.95374  0.51286  0.07703  Biso   1.000  N
  N60      1.0000 0.48714  0.44087  0.07703  Biso   1.000  N
  N61      1.0000 0.22579  0.37960  0.41037  Biso   1.000  N
  N62      1.0000 0.62040  0.84620  0.41037  Biso   1.000  N
  N63      1.0000 0.15380  0.77421  0.41037  Biso   1.000  N
  N64      1.0000 0.10754  0.28707  0.25630  Biso   1.000  N
  N65      1.0000 0.71293  0.82047  0.25630  Biso   1.000  N
  N66      1.0000 0.17953  0.89246  0.25630  Biso   1.000  N
  N67      1.0000 0.77421  0.62040  0.58963  Biso   1.000  N
  N68      1.0000 0.37960  0.15380  0.58963  Biso   1.000  N
  N69      1.0000 0.84620  0.22579  0.58963  Biso   1.000  N
  N70      1.0000 0.44087  0.95374  0.92297  Biso   1.000  N
  N71      1.0000 0.04626  0.48714  0.92297  Biso   1.000  N
  N72      1.0000 0.51286  0.55913  0.92297  Biso   1.000  N
  H1       1.0000 0.91302  0.73403  0.67575  Biso   1.000  H
  H2       1.0000 0.26597  0.17899  0.67575  Biso   1.000  H
  H3       1.0000 0.82101  0.08698  0.67575  Biso   1.000  H
  H4       1.0000 0.57969  0.06736  0.00908  Biso   1.000  H
  H5       1.0000 0.93264  0.51232  0.00908  Biso   1.000  H
  H6       1.0000 0.48768  0.42031  0.00908  Biso   1.000  H
  H7       1.0000 0.24635  0.40070  0.34242  Biso   1.000  H
  H8       1.0000 0.59930  0.84566  0.34242  Biso   1.000  H
  H9       1.0000 0.15434  0.75365  0.34242  Biso   1.000  H
  H10      1.0000 0.08698  0.26597  0.32425  Biso   1.000  H
  H11      1.0000 0.73403  0.82101  0.32425  Biso   1.000  H
  H12      1.0000 0.17899  0.91302  0.32425  Biso   1.000  H
  H13      1.0000 0.75365  0.59930  0.65758  Biso   1.000  H
  H14      1.0000 0.40070  0.15434  0.65758  Biso   1.000  H
  H15      1.0000 0.84566  0.24635  0.65758  Biso   1.000  H
  H16      1.0000 0.42031  0.93264  0.99092  Biso   1.000  H
  H17      1.0000 0.06736  0.48768  0.99092  Biso   1.000  H
  H18      1.0000 0.51232  0.57969  0.99092  Biso   1.000  H
  C1       1.0000 0.66168  0.62469  0.19590  Biso   1.000  C
  C2       1.0000 0.37531  0.03699  0.19590  Biso   1.000  C
  C3       1.0000 0.96301  0.33832  0.19590  Biso   1.000  C
  C4       1.0000 0.32835  0.95802  0.52923  Biso   1.000  C
  C5       1.0000 0.04198  0.37032  0.52923  Biso   1.000  C
  C6       1.0000 0.62968  0.67165  0.52923  Biso   1.000  C
  C7       1.0000 0.99501  0.29136  0.86257  Biso   1.000  C
  C8       1.0000 0.70864  0.70366  0.86257  Biso   1.000  C
  C9       1.0000 0.29634  0.00499  0.86257  Biso   1.000  C
  C10      1.0000 0.33832  0.37531  0.80410  Biso   1.000  C
  C11      1.0000 0.62469  0.96301  0.80410  Biso   1.000  C
  C12      1.0000 0.03699  0.66168  0.80410  Biso   1.000  C
  C13      1.0000 0.00499  0.70864  0.13743  Biso   1.000  C
  C14      1.0000 0.29136  0.29634  0.13743  Biso   1.000  C
  C15      1.0000 0.70366  0.99501  0.13743  Biso   1.000  C
  C16      1.0000 0.67165  0.04198  0.47077  Biso   1.000  C
  C17      1.0000 0.95802  0.62968  0.47077  Biso   1.000  C
  C18      1.0000 0.37032  0.32835  0.47077  Biso   1.000  C
  H19      1.0000 0.65373  0.65101  0.15625  Biso   1.000  H
  H20      1.0000 0.34899  0.00272  0.15625  Biso   1.000  H
  H21      1.0000 0.99728  0.34627  0.15625  Biso   1.000  H
  H22      1.0000 0.32040  0.98434  0.48958  Biso   1.000  H
  H23      1.0000 0.01566  0.33605  0.48958  Biso   1.000  H
  H24      1.0000 0.66395  0.67960  0.48958  Biso   1.000  H
  H25      1.0000 0.98706  0.31768  0.82292  Biso   1.000  H
  H26      1.0000 0.68232  0.66939  0.82292  Biso   1.000  H
  H27      1.0000 0.33061  0.01294  0.82292  Biso   1.000  H
  H28      1.0000 0.34627  0.34899  0.84375  Biso   1.000  H
  H29      1.0000 0.65101  0.99728  0.84375  Biso   1.000  H
  H30      1.0000 0.00272  0.65373  0.84375  Biso   1.000  H
  H31      1.0000 0.01294  0.68232  0.17708  Biso   1.000  H
  H32      1.0000 0.31768  0.33061  0.17708  Biso   1.000  H
  H33      1.0000 0.66939  0.98706  0.17708  Biso   1.000  H
  H34      1.0000 0.67960  0.01566  0.51042  Biso   1.000  H
  H35      1.0000 0.98434  0.66395  0.51042  Biso   1.000  H
  H36      1.0000 0.33605  0.32040  0.51042  Biso   1.000  H
  C19      1.0000 0.65458  0.55765  0.32120  Biso   1.000  C
  C20      1.0000 0.44235  0.09693  0.32120  Biso   1.000  C
  C21      1.0000 0.90307  0.34542  0.32120  Biso   1.000  C
  C22      1.0000 0.32125  0.89098  0.65453  Biso   1.000  C
  C23      1.0000 0.10902  0.43026  0.65453  Biso   1.000  C
  C24      1.0000 0.56974  0.67875  0.65453  Biso   1.000  C
  C25      1.0000 0.98791  0.22432  0.98787  Biso   1.000  C
  C26      1.0000 0.77568  0.76360  0.98787  Biso   1.000  C
  C27      1.0000 0.23640  0.01209  0.98787  Biso   1.000  C
  C28      1.0000 0.34542  0.44235  0.67880  Biso   1.000  C
  C29      1.0000 0.55765  0.90307  0.67880  Biso   1.000  C
  C30      1.0000 0.09693  0.65458  0.67880  Biso   1.000  C
  C31      1.0000 0.01209  0.77568  0.01213  Biso   1.000  C
  C32      1.0000 0.22432  0.23640  0.01213  Biso   1.000  C
  C33      1.0000 0.76360  0.98791  0.01213  Biso   1.000  C
  C34      1.0000 0.67875  0.10902  0.34547  Biso   1.000  C
  C35      1.0000 0.89098  0.56974  0.34547  Biso   1.000  C
  C36      1.0000 0.43026  0.32125  0.34547  Biso   1.000  C
  H37      1.0000 0.64190  0.52804  0.38513  Biso   1.000  H
  H38      1.0000 0.47196  0.11386  0.38513  Biso   1.000  H
  H39      1.0000 0.88614  0.35810  0.38513  Biso   1.000  H
  H40      1.0000 0.30857  0.86137  0.71846  Biso   1.000  H
  H41      1.0000 0.13863  0.44719  0.71846  Biso   1.000  H
  H42      1.0000 0.55281  0.69143  0.71846  Biso   1.000  H
  H43      1.0000 0.97523  0.19471  0.05180  Biso   1.000  H
  H44      1.0000 0.80529  0.78053  0.05180  Biso   1.000  H
  H45      1.0000 0.21947  0.02477  0.05180  Biso   1.000  H
  H46      1.0000 0.35810  0.47196  0.61487  Biso   1.000  H
  H47      1.0000 0.52804  0.88614  0.61487  Biso   1.000  H
  H48      1.0000 0.11386  0.64190  0.61487  Biso   1.000  H
  H49      1.0000 0.02477  0.80529  0.94820  Biso   1.000  H
  H50      1.0000 0.19471  0.21947  0.94820  Biso   1.000  H
  H51      1.0000 0.78053  0.97523  0.94820  Biso   1.000  H
  H52      1.0000 0.69143  0.13863  0.28154  Biso   1.000  H
  H53      1.0000 0.86137  0.55281  0.28154  Biso   1.000  H
  H54      1.0000 0.44719  0.30857  0.28154  Biso   1.000  H
  C37      1.0000 0.70164  0.57798  0.24210  Biso   1.000  C
  C38      1.0000 0.42202  0.12366  0.24210  Biso   1.000  C
  C39      1.0000 0.87634  0.29836  0.24210  Biso   1.000  C
  C40      1.0000 0.36831  0.91131  0.57543  Biso   1.000  C
  C41      1.0000 0.08869  0.45699  0.57543  Biso   1.000  C
  C42      1.0000 0.54301  0.63169  0.57543  Biso   1.000  C
  C43      1.0000 0.03497  0.24465  0.90877  Biso   1.000  C
  C44      1.0000 0.75535  0.79033  0.90877  Biso   1.000  C
  C45      1.0000 0.20967  0.96503  0.90877  Biso   1.000  C
  C46      1.0000 0.29836  0.42202  0.75790  Biso   1.000  C
  C47      1.0000 0.57798  0.87634  0.75790  Biso   1.000  C
  C48      1.0000 0.12366  0.70164  0.75790  Biso   1.000  C
  C49      1.0000 0.96503  0.75535  0.09123  Biso   1.000  C
  C50      1.0000 0.24465  0.20967  0.09123  Biso   1.000  C
  C51      1.0000 0.79033  0.03497  0.09123  Biso   1.000  C
  C52      1.0000 0.63169  0.08869  0.42457  Biso   1.000  C
  C53      1.0000 0.91131  0.54301  0.42457  Biso   1.000  C
  C54      1.0000 0.45699  0.36831  0.42457  Biso   1.000  C
  C55      1.0000 0.85742  0.65012  0.90330  Biso   1.000  C
  C56      1.0000 0.34988  0.20730  0.90330  Biso   1.000  C
  C57      1.0000 0.79270  0.14258  0.90330  Biso   1.000  C
  C58      1.0000 0.52409  0.98345  0.23663  Biso   1.000  C
  C59      1.0000 0.01655  0.54063  0.23663  Biso   1.000  C
  C60      1.0000 0.45937  0.47591  0.23663  Biso   1.000  C
  C61      1.0000 0.19075  0.31679  0.56997  Biso   1.000  C
  C62      1.0000 0.68321  0.87397  0.56997  Biso   1.000  C
  C63      1.0000 0.12603  0.80925  0.56997  Biso   1.000  C
  C64      1.0000 0.14258  0.34988  0.09670  Biso   1.000  C
  C65      1.0000 0.65012  0.79270  0.09670  Biso   1.000  C
  C66      1.0000 0.20730  0.85742  0.09670  Biso   1.000  C
  C67      1.0000 0.80925  0.68321  0.43003  Biso   1.000  C
  C68      1.0000 0.31679  0.12603  0.43003  Biso   1.000  C
  C69      1.0000 0.87397  0.19075  0.43003  Biso   1.000  C
  C70      1.0000 0.47591  0.01655  0.76337  Biso   1.000  C
  C71      1.0000 0.98345  0.45937  0.76337  Biso   1.000  C
  C72      1.0000 0.54063  0.52409  0.76337  Biso   1.000  C
  C73      1.0000 0.89669  0.67146  0.80280  Biso   1.000  C
  C74      1.0000 0.32854  0.22523  0.80280  Biso   1.000  C
  C75      1.0000 0.77477  0.10331  0.80280  Biso   1.000  C
  C76      1.0000 0.56336  0.00479  0.13613  Biso   1.000  C
  C77      1.0000 0.99521  0.55856  0.13613  Biso   1.000  C
  C78      1.0000 0.44144  0.43664  0.13613  Biso   1.000  C
  C79      1.0000 0.23002  0.33813  0.46947  Biso   1.000  C
  C80      1.0000 0.66187  0.89190  0.46947  Biso   1.000  C
  C81      1.0000 0.10810  0.76998  0.46947  Biso   1.000  C
  C82      1.0000 0.10331  0.32854  0.19720  Biso   1.000  C
  C83      1.0000 0.67146  0.77477  0.19720  Biso   1.000  C
  C84      1.0000 0.22523  0.89669  0.19720  Biso   1.000  C
  C85      1.0000 0.76998  0.66187  0.53053  Biso   1.000  C
  C86      1.0000 0.33813  0.10810  0.53053  Biso   1.000  C
  C87      1.0000 0.89190  0.23002  0.53053  Biso   1.000  C
  C88      1.0000 0.43664  0.99521  0.86387  Biso   1.000  C
  C89      1.0000 0.00479  0.44144  0.86387  Biso   1.000  C
  C90      1.0000 0.55856  0.56336  0.86387  Biso   1.000  C
  H55      1.0000 0.92204  0.65952  0.77910  Biso   1.000  H
  H56      1.0000 0.34048  0.26252  0.77910  Biso   1.000  H
  H57      1.0000 0.73748  0.07796  0.77910  Biso   1.000  H
  H58      1.0000 0.58871  0.99285  0.11243  Biso   1.000  H
  H59      1.0000 0.00715  0.59585  0.11243  Biso   1.000  H
  H60      1.0000 0.40415  0.41129  0.11243  Biso   1.000  H
  H61      1.0000 0.25537  0.32619  0.44577  Biso   1.000  H
  H62      1.0000 0.67381  0.92919  0.44577  Biso   1.000  H
  H63      1.0000 0.07081  0.74463  0.44577  Biso   1.000  H
  H64      1.0000 0.07796  0.34048  0.22090  Biso   1.000  H
  H65      1.0000 0.65952  0.73748  0.22090  Biso   1.000  H
  H66      1.0000 0.26252  0.92204  0.22090  Biso   1.000  H
  H67      1.0000 0.74463  0.67381  0.55423  Biso   1.000  H
  H68      1.0000 0.32619  0.07081  0.55423  Biso   1.000  H
  H69      1.0000 0.92919  0.25537  0.55423  Biso   1.000  H
  H70      1.0000 0.41129  0.00715  0.88757  Biso   1.000  H
  H71      1.0000 0.99285  0.40415  0.88757  Biso   1.000  H
  H72      1.0000 0.59585  0.58871  0.88757  Biso   1.000  H
  C91      1.0000 0.85117  0.71646  0.80680  Biso   1.000  C
  C92      1.0000 0.28354  0.13471  0.80680  Biso   1.000  C
  C93      1.0000 0.86529  0.14883  0.80680  Biso   1.000  C
  C94      1.0000 0.51784  0.04979  0.14013  Biso   1.000  C
  C95      1.0000 0.95021  0.46804  0.14013  Biso   1.000  C
  C96      1.0000 0.53196  0.48216  0.14013  Biso   1.000  C
  C97      1.0000 0.18450  0.38313  0.47347  Biso   1.000  C
  C98      1.0000 0.61687  0.80138  0.47347  Biso   1.000  C
  C99      1.0000 0.19862  0.81550  0.47347  Biso   1.000  C
  C100     1.0000 0.14883  0.28354  0.19320  Biso   1.000  C
  C101     1.0000 0.71646  0.86529  0.19320  Biso   1.000  C
  C102     1.0000 0.13471  0.85117  0.19320  Biso   1.000  C
  C103     1.0000 0.81550  0.61687  0.52653  Biso   1.000  C
  C104     1.0000 0.38313  0.19862  0.52653  Biso   1.000  C
  C105     1.0000 0.80138  0.18450  0.52653  Biso   1.000  C
  C106     1.0000 0.48216  0.95021  0.85987  Biso   1.000  C
  C107     1.0000 0.04979  0.53196  0.85987  Biso   1.000  C
  C108     1.0000 0.46804  0.51784  0.85987  Biso   1.000  C
  H73      1.0000 0.83980  0.74235  0.78415  Biso   1.000  H
  H74      1.0000 0.25765  0.09745  0.78415  Biso   1.000  H
  H75      1.0000 0.90255  0.16020  0.78415  Biso   1.000  H
  H76      1.0000 0.50647  0.07568  0.11748  Biso   1.000  H
  H77      1.0000 0.92432  0.43078  0.11748  Biso   1.000  H
  H78      1.0000 0.56922  0.49353  0.11748  Biso   1.000  H
  H79      1.0000 0.17313  0.40902  0.45082  Biso   1.000  H
  H80      1.0000 0.59098  0.76412  0.45082  Biso   1.000  H
  H81      1.0000 0.23588  0.82687  0.45082  Biso   1.000  H
  H82      1.0000 0.16020  0.25765  0.21585  Biso   1.000  H
  H83      1.0000 0.74235  0.90255  0.21585  Biso   1.000  H
  H84      1.0000 0.09745  0.83980  0.21585  Biso   1.000  H
  H85      1.0000 0.82687  0.59098  0.54918  Biso   1.000  H
  H86      1.0000 0.40902  0.23588  0.54918  Biso   1.000  H
  H87      1.0000 0.76412  0.17313  0.54918  Biso   1.000  H
  H88      1.0000 0.49353  0.92432  0.88252  Biso   1.000  H
  H89      1.0000 0.07568  0.56922  0.88252  Biso   1.000  H
  H90      1.0000 0.43078  0.50647  0.88252  Biso   1.000  H
  Cl1      1.0000 0.69759  0.57472  0.84243  Biso   1.000  Cl
  Cl2      1.0000 0.42528  0.12287  0.84243  Biso   1.000  Cl
  Cl3      1.0000 0.87713  0.30241  0.84243  Biso   1.000  Cl
  Cl4      1.0000 0.36426  0.90805  0.17576  Biso   1.000  Cl
  Cl5      1.0000 0.09195  0.45620  0.17576  Biso   1.000  Cl
  Cl6      1.0000 0.54380  0.63574  0.17576  Biso   1.000  Cl
  Cl7      1.0000 0.03092  0.24139  0.50910  Biso   1.000  Cl
  Cl8      1.0000 0.75861  0.78954  0.50910  Biso   1.000  Cl
  Cl9      1.0000 0.21046  0.96908  0.50910  Biso   1.000  Cl
  Cl10     1.0000 0.30241  0.42528  0.15757  Biso   1.000  Cl
  Cl11     1.0000 0.57472  0.87713  0.15757  Biso   1.000  Cl
  Cl12     1.0000 0.12287  0.69759  0.15757  Biso   1.000  Cl
  Cl13     1.0000 0.96908  0.75861  0.49090  Biso   1.000  Cl
  Cl14     1.0000 0.24139  0.21046  0.49090  Biso   1.000  Cl
  Cl15     1.0000 0.78954  0.03092  0.49090  Biso   1.000  Cl
  Cl16     1.0000 0.63574  0.09195  0.82424  Biso   1.000  Cl
  Cl17     1.0000 0.90805  0.54380  0.82424  Biso   1.000  Cl
  Cl18     1.0000 0.45620  0.36426  0.82424  Biso   1.000  Cl
  N73      1.0000 0.81675  0.58069  0.10060  Biso   1.000  N
  N74      1.0000 0.41931  0.23606  0.10060  Biso   1.000  N
  N75      1.0000 0.76394  0.18325  0.10060  Biso   1.000  N
  N76      1.0000 0.48342  0.91402  0.43393  Biso   1.000  N
  N77      1.0000 0.08598  0.56939  0.43393  Biso   1.000  N
  N78      1.0000 0.43061  0.51658  0.43393  Biso   1.000  N
  N79      1.0000 0.15008  0.24736  0.76727  Biso   1.000  N
  N80      1.0000 0.75264  0.90273  0.76727  Biso   1.000  N
  N81      1.0000 0.09727  0.84992  0.76727  Biso   1.000  N
  N82      1.0000 0.18325  0.41931  0.89940  Biso   1.000  N
  N83      1.0000 0.58069  0.76394  0.89940  Biso   1.000  N
  N84      1.0000 0.23606  0.81675  0.89940  Biso   1.000  N
  N85      1.0000 0.84992  0.75264  0.23273  Biso   1.000  N
  N86      1.0000 0.24736  0.09727  0.23273  Biso   1.000  N
  N87      1.0000 0.90273  0.15008  0.23273  Biso   1.000  N
  N88      1.0000 0.51658  0.08598  0.56607  Biso   1.000  N
  N89      1.0000 0.91402  0.43061  0.56607  Biso   1.000  N
  N90      1.0000 0.56939  0.48342  0.56607  Biso   1.000  N
  C109     1.0000 0.74460  0.56860  0.21830  Biso   1.000  C
  C110     1.0000 0.43140  0.17600  0.21830  Biso   1.000  C
  C111     1.0000 0.82400  0.25540  0.21830  Biso   1.000  C
  C112     1.0000 0.41127  0.90193  0.55163  Biso   1.000  C
  C113     1.0000 0.09807  0.50933  0.55163  Biso   1.000  C
  C114     1.0000 0.49067  0.58873  0.55163  Biso   1.000  C
  C115     1.0000 0.07793  0.23527  0.88497  Biso   1.000  C
  C116     1.0000 0.76473  0.84267  0.88497  Biso   1.000  C
  C117     1.0000 0.15733  0.92207  0.88497  Biso   1.000  C
  C118     1.0000 0.25540  0.43140  0.78170  Biso   1.000  C
  C119     1.0000 0.56860  0.82400  0.78170  Biso   1.000  C
  C120     1.0000 0.17600  0.74460  0.78170  Biso   1.000  C
  C121     1.0000 0.92207  0.76473  0.11503  Biso   1.000  C
  C122     1.0000 0.23527  0.15733  0.11503  Biso   1.000  C
  C123     1.0000 0.84267  0.07793  0.11503  Biso   1.000  C
  C124     1.0000 0.58873  0.09807  0.44837  Biso   1.000  C
  C125     1.0000 0.90193  0.49067  0.44837  Biso   1.000  C
  C126     1.0000 0.50933  0.41127  0.44837  Biso   1.000  C
  H91      1.0000 0.74963  0.54291  0.27129  Biso   1.000  H
  H92      1.0000 0.45709  0.20672  0.27129  Biso   1.000  H
  H93      1.0000 0.79328  0.25037  0.27129  Biso   1.000  H
  H94      1.0000 0.41630  0.87624  0.60462  Biso   1.000  H
  H95      1.0000 0.12376  0.54005  0.60462  Biso   1.000  H
  H96      1.0000 0.45995  0.58370  0.60462  Biso   1.000  H
  H97      1.0000 0.08296  0.20958  0.93796  Biso   1.000  H
  H98      1.0000 0.79042  0.87339  0.93796  Biso   1.000  H
  H99      1.0000 0.12661  0.91704  0.93796  Biso   1.000  H
  H100     1.0000 0.25037  0.45709  0.72871  Biso   1.000  H
  H101     1.0000 0.54291  0.79328  0.72871  Biso   1.000  H
  H102     1.0000 0.20672  0.74963  0.72871  Biso   1.000  H
  H103     1.0000 0.91704  0.79042  0.06204  Biso   1.000  H
  H104     1.0000 0.20958  0.12661  0.06204  Biso   1.000  H
  H105     1.0000 0.87339  0.08296  0.06204  Biso   1.000  H
  H106     1.0000 0.58370  0.12376  0.39538  Biso   1.000  H
  H107     1.0000 0.87624  0.45995  0.39538  Biso   1.000  H
  H108     1.0000 0.54005  0.41630  0.39538  Biso   1.000  H
  C127     1.0000 0.85240  0.60810  0.00000  Biso   1.000  C
  C128     1.0000 0.39190  0.24430  0.00000  Biso   1.000  C
  C129     1.0000 0.75570  0.14760  0.00000  Biso   1.000  C
  C130     1.0000 0.51907  0.94143  0.33333  Biso   1.000  C
  C131     1.0000 0.05857  0.57763  0.33333  Biso   1.000  C
  C132     1.0000 0.42237  0.48093  0.33333  Biso   1.000  C
  C133     1.0000 0.18573  0.27477  0.66667  Biso   1.000  C
  C134     1.0000 0.72523  0.91097  0.66667  Biso   1.000  C
  C135     1.0000 0.08903  0.81427  0.66667  Biso   1.000  C
  C136     1.0000 0.14760  0.39190  0.00000  Biso   1.000  C
  C137     1.0000 0.60810  0.75570  0.00000  Biso   1.000  C
  C138     1.0000 0.24430  0.85240  0.00000  Biso   1.000  C
  C139     1.0000 0.81427  0.72523  0.33333  Biso   1.000  C
  C140     1.0000 0.27477  0.08903  0.33333  Biso   1.000  C
  C141     1.0000 0.91097  0.18573  0.33333  Biso   1.000  C
  C142     1.0000 0.48093  0.05857  0.66667  Biso   1.000  C
  C143     1.0000 0.94143  0.42237  0.66667  Biso   1.000  C
  C144     1.0000 0.57763  0.51907  0.66667  Biso   1.000  C
  H109     1.0000 0.88014  0.59820  0.98916  Biso   1.000  H
  H110     1.0000 0.40180  0.28194  0.98916  Biso   1.000  H
  H111     1.0000 0.71806  0.11986  0.98916  Biso   1.000  H
  H112     1.0000 0.54681  0.93153  0.32249  Biso   1.000  H
  H113     1.0000 0.06847  0.61527  0.32249  Biso   1.000  H
  H114     1.0000 0.38473  0.45319  0.32249  Biso   1.000  H
  H115     1.0000 0.21347  0.26487  0.65583  Biso   1.000  H
  H116     1.0000 0.73513  0.94861  0.65583  Biso   1.000  H
  H117     1.0000 0.05139  0.78653  0.65583  Biso   1.000  H
  H118     1.0000 0.11986  0.40180  0.01084  Biso   1.000  H
  H119     1.0000 0.59820  0.71806  0.01084  Biso   1.000  H
  H120     1.0000 0.28194  0.88014  0.01084  Biso   1.000  H
  H121     1.0000 0.78653  0.73513  0.34417  Biso   1.000  H
  H122     1.0000 0.26487  0.05139  0.34417  Biso   1.000  H
  H123     1.0000 0.94861  0.21347  0.34417  Biso   1.000  H
  H124     1.0000 0.45319  0.06847  0.67751  Biso   1.000  H
  H125     1.0000 0.93153  0.38473  0.67751  Biso   1.000  H
  H126     1.0000 0.61527  0.54681  0.67751  Biso   1.000  H
  N91      1.0000 0.77745  0.59642  0.12070  Biso   1.000  N
  N92      1.0000 0.40358  0.18103  0.12070  Biso   1.000  N
  N93      1.0000 0.81897  0.22255  0.12070  Biso   1.000  N
  N94      1.0000 0.44412  0.92975  0.45403  Biso   1.000  N
  N95      1.0000 0.07025  0.51436  0.45403  Biso   1.000  N
  N96      1.0000 0.48564  0.55588  0.45403  Biso   1.000  N
  N97      1.0000 0.11078  0.26309  0.78737  Biso   1.000  N
  N98      1.0000 0.73691  0.84770  0.78737  Biso   1.000  N
  N99      1.0000 0.15230  0.88922  0.78737  Biso   1.000  N
  N100     1.0000 0.22255  0.40358  0.87930  Biso   1.000  N
  N101     1.0000 0.59642  0.81897  0.87930  Biso   1.000  N
  N102     1.0000 0.18103  0.77745  0.87930  Biso   1.000  N
  N103     1.0000 0.88922  0.73691  0.21263  Biso   1.000  N
  N104     1.0000 0.26309  0.15230  0.21263  Biso   1.000  N
  N105     1.0000 0.84770  0.11078  0.21263  Biso   1.000  N
  N106     1.0000 0.55588  0.07025  0.54597  Biso   1.000  N
  N107     1.0000 0.92975  0.48564  0.54597  Biso   1.000  N
  N108     1.0000 0.51436  0.44412  0.54597  Biso   1.000  N
  C145     1.0000 0.73610  0.54890  0.23830  Biso   1.000  C
  C146     1.0000 0.45110  0.18720  0.23830  Biso   1.000  C
  C147     1.0000 0.81280  0.26390  0.23830  Biso   1.000  C
  C148     1.0000 0.40277  0.88223  0.57163  Biso   1.000  C
  C149     1.0000 0.11777  0.52053  0.57163  Biso   1.000  C
  C150     1.0000 0.47947  0.59723  0.57163  Biso   1.000  C
  C151     1.0000 0.06943  0.21557  0.90497  Biso   1.000  C
  C152     1.0000 0.78443  0.85387  0.90497  Biso   1.000  C
  C153     1.0000 0.14613  0.93057  0.90497  Biso   1.000  C
  C154     1.0000 0.26390  0.45110  0.76170  Biso   1.000  C
  C155     1.0000 0.54890  0.81280  0.76170  Biso   1.000  C
  C156     1.0000 0.18720  0.73610  0.76170  Biso   1.000  C
  C157     1.0000 0.93057  0.78443  0.09503  Biso   1.000  C
  C158     1.0000 0.21557  0.14613  0.09503  Biso   1.000  C
  C159     1.0000 0.85387  0.06943  0.09503  Biso   1.000  C
  C160     1.0000 0.59723  0.11777  0.42837  Biso   1.000  C
  C161     1.0000 0.88223  0.47947  0.42837  Biso   1.000  C
  C162     1.0000 0.52053  0.40277  0.42837  Biso   1.000  C
  H127     1.0000 0.72339  0.51865  0.30021  Biso   1.000  H
  H128     1.0000 0.48135  0.20474  0.30021  Biso   1.000  H
  H129     1.0000 0.79526  0.27661  0.30021  Biso   1.000  H
  H130     1.0000 0.39006  0.85198  0.63354  Biso   1.000  H
  H131     1.0000 0.14802  0.53807  0.63354  Biso   1.000  H
  H132     1.0000 0.46193  0.60994  0.63354  Biso   1.000  H
  H133     1.0000 0.05672  0.18532  0.96688  Biso   1.000  H
  H134     1.0000 0.81468  0.87141  0.96688  Biso   1.000  H
  H135     1.0000 0.12859  0.94328  0.96688  Biso   1.000  H
  H136     1.0000 0.27661  0.48135  0.69979  Biso   1.000  H
  H137     1.0000 0.51865  0.79526  0.69979  Biso   1.000  H
  H138     1.0000 0.20474  0.72339  0.69979  Biso   1.000  H
  H139     1.0000 0.94328  0.81468  0.03312  Biso   1.000  H
  H140     1.0000 0.18532  0.12859  0.03312  Biso   1.000  H
  H141     1.0000 0.87141  0.05672  0.03312  Biso   1.000  H
  H142     1.0000 0.60994  0.14802  0.36646  Biso   1.000  H
  H143     1.0000 0.85198  0.46193  0.36646  Biso   1.000  H
  H144     1.0000 0.53807  0.39006  0.36646  Biso   1.000  H
  C163     1.0000 0.83750  0.60440  0.99800  Biso   1.000  C
  C164     1.0000 0.39560  0.23310  0.99800  Biso   1.000  C
  C165     1.0000 0.76690  0.16250  0.99800  Biso   1.000  C
  C166     1.0000 0.50417  0.93773  0.33133  Biso   1.000  C
  C167     1.0000 0.06227  0.56643  0.33133  Biso   1.000  C
  C168     1.0000 0.43357  0.49583  0.33133  Biso   1.000  C
  C169     1.0000 0.17083  0.27107  0.66467  Biso   1.000  C
  C170     1.0000 0.72893  0.89977  0.66467  Biso   1.000  C
  C171     1.0000 0.10023  0.82917  0.66467  Biso   1.000  C
  C172     1.0000 0.16250  0.39560  0.00200  Biso   1.000  C
  C173     1.0000 0.60440  0.76690  0.00200  Biso   1.000  C
  C174     1.0000 0.23310  0.83750  0.00200  Biso   1.000  C
  C175     1.0000 0.82917  0.72893  0.33533  Biso   1.000  C
  C176     1.0000 0.27107  0.10023  0.33533  Biso   1.000  C
  C177     1.0000 0.89977  0.17083  0.33533  Biso   1.000  C
  C178     1.0000 0.49583  0.06227  0.66867  Biso   1.000  C
  C179     1.0000 0.93773  0.43357  0.66867  Biso   1.000  C
  C180     1.0000 0.56643  0.50417  0.66867  Biso   1.000  C
  H145     1.0000 0.85195  0.58016  0.00528  Biso   1.000  H
  H146     1.0000 0.41984  0.27179  0.00528  Biso   1.000  H
  H147     1.0000 0.72821  0.14805  0.00528  Biso   1.000  H
  H148     1.0000 0.51862  0.91349  0.33861  Biso   1.000  H
  H149     1.0000 0.08651  0.60512  0.33861  Biso   1.000  H
  H150     1.0000 0.39488  0.48138  0.33861  Biso   1.000  H
  H151     1.0000 0.18528  0.24683  0.67195  Biso   1.000  H
  H152     1.0000 0.75317  0.93846  0.67195  Biso   1.000  H
  H153     1.0000 0.06154  0.81472  0.67195  Biso   1.000  H
  H154     1.0000 0.14805  0.41984  0.99472  Biso   1.000  H
  H155     1.0000 0.58016  0.72821  0.99472  Biso   1.000  H
  H156     1.0000 0.27179  0.85195  0.99472  Biso   1.000  H
  H157     1.0000 0.81472  0.75317  0.32805  Biso   1.000  H
  H158     1.0000 0.24683  0.06154  0.32805  Biso   1.000  H
  H159     1.0000 0.93846  0.18528  0.32805  Biso   1.000  H
  H160     1.0000 0.48138  0.08651  0.66139  Biso   1.000  H
  H161     1.0000 0.91349  0.39488  0.66139  Biso   1.000  H
  H162     1.0000 0.60512  0.51862  0.66139  Biso   1.000  H
  N109     1.0000 0.78012  0.55780  0.16560  Biso   1.000  N
  N110     1.0000 0.44220  0.22232  0.16560  Biso   1.000  N
  N111     1.0000 0.77768  0.21988  0.16560  Biso   1.000  N
  N112     1.0000 0.44679  0.89113  0.49893  Biso   1.000  N
  N113     1.0000 0.10887  0.55565  0.49893  Biso   1.000  N
  N114     1.0000 0.44435  0.55321  0.49893  Biso   1.000  N
  N115     1.0000 0.11345  0.22447  0.83227  Biso   1.000  N
  N116     1.0000 0.77553  0.88899  0.83227  Biso   1.000  N
  N117     1.0000 0.11101  0.88655  0.83227  Biso   1.000  N
  N118     1.0000 0.21988  0.44220  0.83440  Biso   1.000  N
  N119     1.0000 0.55780  0.77768  0.83440  Biso   1.000  N
  N120     1.0000 0.22232  0.78012  0.83440  Biso   1.000  N
  N121     1.0000 0.88655  0.77553  0.16773  Biso   1.000  N
  N122     1.0000 0.22447  0.11101  0.16773  Biso   1.000  N
  N123     1.0000 0.88899  0.11345  0.16773  Biso   1.000  N
  N124     1.0000 0.55321  0.10887  0.50107  Biso   1.000  N
  N125     1.0000 0.89113  0.44435  0.50107  Biso   1.000  N
  N126     1.0000 0.55565  0.44679  0.50107  Biso   1.000  N
  N127     1.0000 0.79700  0.60080  0.07250  Biso   1.000  N
  N128     1.0000 0.39920  0.19620  0.07250  Biso   1.000  N
  N129     1.0000 0.80380  0.20300  0.07250  Biso   1.000  N
  N130     1.0000 0.46367  0.93413  0.40583  Biso   1.000  N
  N131     1.0000 0.06587  0.52953  0.40583  Biso   1.000  N
  N132     1.0000 0.47047  0.53633  0.40583  Biso   1.000  N
  N133     1.0000 0.13033  0.26747  0.73917  Biso   1.000  N
  N134     1.0000 0.73253  0.86287  0.73917  Biso   1.000  N
  N135     1.0000 0.13713  0.86967  0.73917  Biso   1.000  N
  N136     1.0000 0.20300  0.39920  0.92750  Biso   1.000  N
  N137     1.0000 0.60080  0.80380  0.92750  Biso   1.000  N
  N138     1.0000 0.19620  0.79700  0.92750  Biso   1.000  N
  N139     1.0000 0.86967  0.73253  0.26083  Biso   1.000  N
  N140     1.0000 0.26747  0.13713  0.26083  Biso   1.000  N
  N141     1.0000 0.86287  0.13033  0.26083  Biso   1.000  N
  N142     1.0000 0.53633  0.06587  0.59417  Biso   1.000  N
  N143     1.0000 0.93413  0.47047  0.59417  Biso   1.000  N
  N144     1.0000 0.52953  0.46367  0.59417  Biso   1.000  N
