data_image0
_cell_length_a       8.362
_cell_length_b       10.605
_cell_length_c       14.617
_cell_angle_alpha    73.26
_cell_angle_beta     86.23
_cell_angle_gamma    69.45

_symmetry_space_group_name_H-M    "P 1"
_symmetry_int_tables_number       1

loop_
  _symmetry_equiv_pos_as_xyz
  'x, y, z'

loop_
  _atom_site_label
  _atom_site_occupancy
  _atom_site_fract_x
  _atom_site_fract_y
  _atom_site_fract_z
  _atom_site_thermal_displace_type
  _atom_site_B_iso_or_equiv
  _atom_site_type_symbol
  Cu1      1.0000 0.57175  0.58089  0.72313  Biso   1.000  Cu
  Cu2      1.0000 0.42825  0.41911  0.27687  Biso   1.000  Cu
  N1       1.0000 0.75010  0.67320  0.71020  Biso   1.000  N
  N2       1.0000 0.24990  0.32680  0.28980  Biso   1.000  N
  N3       1.0000 0.53650  0.68560  0.58830  Biso   1.000  N
  N4       1.0000 0.46350  0.31440  0.41170  Biso   1.000  N
  N5       1.0000 0.38860  0.52030  0.68410  Biso   1.000  N
  N6       1.0000 0.61140  0.47970  0.31590  Biso   1.000  N
  O1       1.0000 0.68350  0.41220  0.82980  Biso   1.000  O
  O2       1.0000 0.31650  0.58780  0.17020  Biso   1.000  O
  O3       1.0000 0.81920  0.32500  0.71490  Biso   1.000  O
  O4       1.0000 0.18080  0.67500  0.28510  Biso   1.000  O
  O5       1.0000 0.34780  0.88870  0.71360  Biso   1.000  O
  O6       1.0000 0.65220  0.11130  0.28640  Biso   1.000  O
  O7       1.0000 0.42330  0.68170  0.82140  Biso   1.000  O
  O8       1.0000 0.57670  0.31830  0.17860  Biso   1.000  O
  O9       1.0000 0.11440  0.35080  0.95820  Biso   1.000  O
  O10      1.0000 0.88560  0.64920  0.04180  Biso   1.000  O
  H1       1.0000 0.07670  0.41550  0.98520  Biso   1.000  H
  H2       1.0000 0.92330  0.58450  0.01480  Biso   1.000  H
  H3       1.0000 0.20070  0.29350  0.93200  Biso   1.000  H
  H4       1.0000 0.79930  0.70650  0.06800  Biso   1.000  H
  O11      1.0000 0.26100  0.55610  0.98300  Biso   1.000  O
  O12      1.0000 0.73900  0.44390  0.01700  Biso   1.000  O
  H5       1.0000 0.33560  0.57470  0.94380  Biso   1.000  H
  H6       1.0000 0.66440  0.42530  0.05620  Biso   1.000  H
  H7       1.0000 0.31240  0.46460  0.99270  Biso   1.000  H
  H8       1.0000 0.68760  0.53540  0.00730  Biso   1.000  H
  O13      1.0000 0.05240  0.12560  0.63560  Biso   1.000  O
  O14      1.0000 0.94760  0.87440  0.36440  Biso   1.000  O
  H9       1.0000 0.16000  0.05920  0.67070  Biso   1.000  H
  H10      1.0000 0.84000  0.94080  0.32930  Biso   1.000  H
  H11      1.0000 0.99330  0.19880  0.65840  Biso   1.000  H
  H12      1.0000 0.00670  0.80120  0.34160  Biso   1.000  H
  C1       1.0000 0.86030  0.65690  0.77790  Biso   1.000  C
  C2       1.0000 0.13970  0.34310  0.22210  Biso   1.000  C
  H13      1.0000 0.85840  0.59700  0.83830  Biso   1.000  H
  H14      1.0000 0.14160  0.40300  0.16170  Biso   1.000  H
  C3       1.0000 0.97720  0.72480  0.76230  Biso   1.000  C
  C4       1.0000 0.02280  0.27520  0.23770  Biso   1.000  C
  H15      1.0000 0.05140  0.71200  0.81150  Biso   1.000  H
  H16      1.0000 0.94860  0.28800  0.18850  Biso   1.000  H
  C5       1.0000 0.98250  0.81150  0.67310  Biso   1.000  C
  C6       1.0000 0.01750  0.18850  0.32690  Biso   1.000  C
  H17      1.0000 0.06230  0.85660  0.66060  Biso   1.000  H
  H18      1.0000 0.93770  0.14340  0.33940  Biso   1.000  H
  C7       1.0000 0.86750  0.83120  0.60200  Biso   1.000  C
  C8       1.0000 0.13250  0.16880  0.39800  Biso   1.000  C
  H19      1.0000 0.86760  0.89110  0.54140  Biso   1.000  H
  H20      1.0000 0.13240  0.10890  0.45860  Biso   1.000  H
  C9       1.0000 0.75250  0.76080  0.62230  Biso   1.000  C
  C10      1.0000 0.24750  0.23920  0.37770  Biso   1.000  C
  C11      1.0000 0.62550  0.77040  0.55330  Biso   1.000  C
  C12      1.0000 0.37450  0.22960  0.44670  Biso   1.000  C
  C13      1.0000 0.59170  0.85670  0.45970  Biso   1.000  C
  C14      1.0000 0.40830  0.14330  0.54030  Biso   1.000  C
  H21      1.0000 0.65090  0.91780  0.43430  Biso   1.000  H
  H22      1.0000 0.34910  0.08220  0.56570  Biso   1.000  H
  C15      1.0000 0.46890  0.84920  0.40600  Biso   1.000  C
  C16      1.0000 0.53110  0.15080  0.59400  Biso   1.000  C
  H23      1.0000 0.44470  0.90640  0.34340  Biso   1.000  H
  H24      1.0000 0.55530  0.09360  0.65660  Biso   1.000  H
  C17      1.0000 0.38030  0.75890  0.44250  Biso   1.000  C
  C18      1.0000 0.61970  0.24110  0.55750  Biso   1.000  C
  H25      1.0000 0.29850  0.75310  0.40530  Biso   1.000  H
  H26      1.0000 0.70150  0.24690  0.59470  Biso   1.000  H
  C19      1.0000 0.41780  0.67710  0.53650  Biso   1.000  C
  C20      1.0000 0.58220  0.32290  0.46350  Biso   1.000  C
  C21      1.0000 0.33410  0.57850  0.59110  Biso   1.000  C
  C22      1.0000 0.66590  0.42150  0.40890  Biso   1.000  C
  C23      1.0000 0.21230  0.54580  0.55380  Biso   1.000  C
  C24      1.0000 0.78770  0.45420  0.44620  Biso   1.000  C
  H27      1.0000 0.17890  0.58410  0.48940  Biso   1.000  H
  H28      1.0000 0.82110  0.41590  0.51060  Biso   1.000  H
  C25      1.0000 0.14010  0.45500  0.61370  Biso   1.000  C
  C26      1.0000 0.85990  0.54500  0.38630  Biso   1.000  C
  H29      1.0000 0.05850  0.43040  0.58990  Biso   1.000  H
  H30      1.0000 0.94150  0.56960  0.41010  Biso   1.000  H
  C27      1.0000 0.18990  0.40190  0.70830  Biso   1.000  C
  C28      1.0000 0.81010  0.59810  0.29170  Biso   1.000  C
  H31      1.0000 0.13920  0.34360  0.74990  Biso   1.000  H
  H32      1.0000 0.86080  0.65640  0.25010  Biso   1.000  H
  C29      1.0000 0.31540  0.43520  0.74160  Biso   1.000  C
  C30      1.0000 0.68460  0.56480  0.25840  Biso   1.000  C
  H33      1.0000 0.35020  0.39740  0.80590  Biso   1.000  H
  H34      1.0000 0.64980  0.60260  0.19410  Biso   1.000  H
  C31      1.0000 0.78810  0.31340  0.80090  Biso   1.000  C
  C32      1.0000 0.21190  0.68660  0.19910  Biso   1.000  C
  C33      1.0000 0.87370  0.17700  0.87600  Biso   1.000  C
  C34      1.0000 0.12630  0.82300  0.12400  Biso   1.000  C
  H35      1.0000 0.84500  0.19010  0.93880  Biso   1.000  H
  H36      1.0000 0.15500  0.80990  0.06120  Biso   1.000  H
  H37      1.0000 0.99670  0.15110  0.87120  Biso   1.000  H
  H38      1.0000 0.00330  0.84890  0.12880  Biso   1.000  H
  C35      1.0000 0.82050  0.05750  0.86590  Biso   1.000  C
  C36      1.0000 0.17950  0.94250  0.13410  Biso   1.000  C
  H39      1.0000 0.86620  0.03400  0.80780  Biso   1.000  H
  H40      1.0000 0.13380  0.96600  0.19220  Biso   1.000  H
  H41      1.0000 0.87040  0.97520  0.91940  Biso   1.000  H
  H42      1.0000 0.12960  0.02480  0.08060  Biso   1.000  H
  C37      1.0000 0.62720  0.09340  0.86260  Biso   1.000  C
  C38      1.0000 0.37280  0.90660  0.13740  Biso   1.000  C
  H43      1.0000 0.57950  0.13120  0.91530  Biso   1.000  H
  H44      1.0000 0.42050  0.86880  0.08470  Biso   1.000  H
  H45      1.0000 0.57950  0.16600  0.80370  Biso   1.000  H
  H46      1.0000 0.42050  0.83400  0.19630  Biso   1.000  H
  C39      1.0000 0.57310  0.96860  0.86820  Biso   1.000  C
  C40      1.0000 0.42690  0.03140  0.13180  Biso   1.000  C
  H47      1.0000 0.61860  0.89630  0.92750  Biso   1.000  H
  H48      1.0000 0.38140  0.10370  0.07250  Biso   1.000  H
  H49      1.0000 0.62120  0.92980  0.81580  Biso   1.000  H
  H50      1.0000 0.37880  0.07020  0.18420  Biso   1.000  H
  C41      1.0000 0.37940  0.00920  0.86330  Biso   1.000  C
  C42      1.0000 0.62060  0.99080  0.13670  Biso   1.000  C
  H51      1.0000 0.33520  0.07500  0.80140  Biso   1.000  H
  H52      1.0000 0.66480  0.92500  0.19860  Biso   1.000  H
  H53      1.0000 0.33070  0.05610  0.91180  Biso   1.000  H
  H54      1.0000 0.66930  0.94390  0.08820  Biso   1.000  H
  C43      1.0000 0.32300  0.88230  0.87810  Biso   1.000  C
  C44      1.0000 0.67700  0.11770  0.12190  Biso   1.000  C
  H55      1.0000 0.37570  0.81310  0.93740  Biso   1.000  H
  H56      1.0000 0.62430  0.18690  0.06260  Biso   1.000  H
  H57      1.0000 0.20010  0.91210  0.88470  Biso   1.000  H
  H58      1.0000 0.79990  0.08790  0.11530  Biso   1.000  H
  C45      1.0000 0.36840  0.81360  0.79760  Biso   1.000  C
  C46      1.0000 0.63160  0.18640  0.20240  Biso   1.000  C
