data_image0
_cell_length_a       10.335
_cell_length_b       21.193
_cell_length_c       8.58
_cell_angle_alpha    90
_cell_angle_beta     111.99
_cell_angle_gamma    90

_symmetry_space_group_name_H-M    "P 1"
_symmetry_int_tables_number       1

loop_
  _symmetry_equiv_pos_as_xyz
  'x, y, z'

loop_
  _atom_site_label
  _atom_site_occupancy
  _atom_site_fract_x
  _atom_site_fract_y
  _atom_site_fract_z
  _atom_site_thermal_displace_type
  _atom_site_B_iso_or_equiv
  _atom_site_type_symbol
  Cu1      1.0000 0.50000  0.61674  0.75000  Biso   1.000  Cu
  Cu2      1.0000 0.00000  0.11674  0.75000  Biso   1.000  Cu
  Cu3      1.0000 0.50000  0.38326  0.25000  Biso   1.000  Cu
  Cu4      1.0000 0.00000  0.88326  0.25000  Biso   1.000  Cu
  O1       1.0000 0.64792  0.54973  0.75289  Biso   1.000  O
  O2       1.0000 0.35208  0.54973  0.74711  Biso   1.000  O
  O3       1.0000 0.14792  0.04973  0.75289  Biso   1.000  O
  O4       1.0000 0.85208  0.04973  0.74711  Biso   1.000  O
  O5       1.0000 0.35208  0.45027  0.24711  Biso   1.000  O
  O6       1.0000 0.64792  0.45027  0.25289  Biso   1.000  O
  O7       1.0000 0.85208  0.95027  0.24711  Biso   1.000  O
  O8       1.0000 0.14792  0.95027  0.25289  Biso   1.000  O
  O9       1.0000 0.75893  0.63619  0.72940  Biso   1.000  O
  O10      1.0000 0.24107  0.63619  0.77060  Biso   1.000  O
  O11      1.0000 0.25893  0.13619  0.72940  Biso   1.000  O
  O12      1.0000 0.74107  0.13619  0.77060  Biso   1.000  O
  O13      1.0000 0.24107  0.36381  0.27060  Biso   1.000  O
  O14      1.0000 0.75893  0.36381  0.22940  Biso   1.000  O
  O15      1.0000 0.74107  0.86381  0.27060  Biso   1.000  O
  O16      1.0000 0.25893  0.86381  0.22940  Biso   1.000  O
  N1       1.0000 0.41861  0.63492  0.49980  Biso   1.000  N
  N2       1.0000 0.58139  0.63492  0.00020  Biso   1.000  N
  N3       1.0000 0.91861  0.13492  0.49980  Biso   1.000  N
  N4       1.0000 0.08139  0.13492  0.00020  Biso   1.000  N
  N5       1.0000 0.58139  0.36508  0.50020  Biso   1.000  N
  N6       1.0000 0.41861  0.36508  0.99980  Biso   1.000  N
  N7       1.0000 0.08139  0.86508  0.50020  Biso   1.000  N
  N8       1.0000 0.91861  0.86508  0.99980  Biso   1.000  N
  N9       1.0000 0.50000  0.70957  0.75000  Biso   1.000  N
  N10      1.0000 0.00000  0.20957  0.75000  Biso   1.000  N
  N11      1.0000 0.50000  0.29043  0.25000  Biso   1.000  N
  N12      1.0000 0.00000  0.79043  0.25000  Biso   1.000  N
  C1       1.0000 0.38090  0.59137  0.37810  Biso   1.000  C
  C2       1.0000 0.61910  0.59137  0.12190  Biso   1.000  C
  C3       1.0000 0.88090  0.09137  0.37810  Biso   1.000  C
  C4       1.0000 0.11910  0.09137  0.12190  Biso   1.000  C
  C5       1.0000 0.61910  0.40863  0.62190  Biso   1.000  C
  C6       1.0000 0.38090  0.40863  0.87810  Biso   1.000  C
  C7       1.0000 0.11910  0.90863  0.62190  Biso   1.000  C
  C8       1.0000 0.88090  0.90863  0.87810  Biso   1.000  C
  H1       1.0000 0.39160  0.54890  0.40710  Biso   1.000  H
  H2       1.0000 0.60840  0.54890  0.09290  Biso   1.000  H
  H3       1.0000 0.89160  0.04890  0.40710  Biso   1.000  H
  H4       1.0000 0.10840  0.04890  0.09290  Biso   1.000  H
  H5       1.0000 0.60840  0.45110  0.59290  Biso   1.000  H
  H6       1.0000 0.39160  0.45110  0.90710  Biso   1.000  H
  H7       1.0000 0.10840  0.95110  0.59290  Biso   1.000  H
  H8       1.0000 0.89160  0.95110  0.90710  Biso   1.000  H
  C9       1.0000 0.32630  0.60809  0.20940  Biso   1.000  C
  C10      1.0000 0.67370  0.60809  0.29060  Biso   1.000  C
  C11      1.0000 0.82630  0.10809  0.20940  Biso   1.000  C
  C12      1.0000 0.17370  0.10809  0.29060  Biso   1.000  C
  C13      1.0000 0.67370  0.39191  0.79060  Biso   1.000  C
  C14      1.0000 0.32630  0.39191  0.70940  Biso   1.000  C
  C15      1.0000 0.17370  0.89191  0.79060  Biso   1.000  C
  C16      1.0000 0.82630  0.89191  0.70940  Biso   1.000  C
  H9       1.0000 0.30170  0.57710  0.12650  Biso   1.000  H
  H10      1.0000 0.69830  0.57710  0.37350  Biso   1.000  H
  H11      1.0000 0.80170  0.07710  0.12650  Biso   1.000  H
  H12      1.0000 0.19830  0.07710  0.37350  Biso   1.000  H
  H13      1.0000 0.69830  0.42290  0.87350  Biso   1.000  H
  H14      1.0000 0.30170  0.42290  0.62650  Biso   1.000  H
  H15      1.0000 0.19830  0.92290  0.87350  Biso   1.000  H
  H16      1.0000 0.80170  0.92290  0.62650  Biso   1.000  H
  C17      1.0000 0.30870  0.67083  0.16600  Biso   1.000  C
  C18      1.0000 0.69130  0.67083  0.33400  Biso   1.000  C
  C19      1.0000 0.80870  0.17083  0.16600  Biso   1.000  C
  C20      1.0000 0.19130  0.17083  0.33400  Biso   1.000  C
  C21      1.0000 0.69130  0.32917  0.83400  Biso   1.000  C
  C22      1.0000 0.30870  0.32917  0.66600  Biso   1.000  C
  C23      1.0000 0.19130  0.82917  0.83400  Biso   1.000  C
  C24      1.0000 0.80870  0.82917  0.66600  Biso   1.000  C
  H17      1.0000 0.27120  0.68270  0.05350  Biso   1.000  H
  H18      1.0000 0.72880  0.68270  0.44650  Biso   1.000  H
  H19      1.0000 0.77120  0.18270  0.05350  Biso   1.000  H
  H20      1.0000 0.22880  0.18270  0.44650  Biso   1.000  H
  H21      1.0000 0.72880  0.31730  0.94650  Biso   1.000  H
  H22      1.0000 0.27120  0.31730  0.55350  Biso   1.000  H
  H23      1.0000 0.22880  0.81730  0.94650  Biso   1.000  H
  H24      1.0000 0.77120  0.81730  0.55350  Biso   1.000  H
  C25      1.0000 0.34740  0.71616  0.29140  Biso   1.000  C
  C26      1.0000 0.65260  0.71616  0.20860  Biso   1.000  C
  C27      1.0000 0.84740  0.21616  0.29140  Biso   1.000  C
  C28      1.0000 0.15260  0.21616  0.20860  Biso   1.000  C
  C29      1.0000 0.65260  0.28384  0.70860  Biso   1.000  C
  C30      1.0000 0.34740  0.28384  0.79140  Biso   1.000  C
  C31      1.0000 0.15260  0.78384  0.70860  Biso   1.000  C
  C32      1.0000 0.84740  0.78384  0.79140  Biso   1.000  C
  H25      1.0000 0.33650  0.75890  0.26460  Biso   1.000  H
  H26      1.0000 0.66350  0.75890  0.23540  Biso   1.000  H
  H27      1.0000 0.83650  0.25890  0.26460  Biso   1.000  H
  H28      1.0000 0.16350  0.25890  0.23540  Biso   1.000  H
  H29      1.0000 0.66350  0.24110  0.73540  Biso   1.000  H
  H30      1.0000 0.33650  0.24110  0.76460  Biso   1.000  H
  H31      1.0000 0.16350  0.74110  0.73540  Biso   1.000  H
  H32      1.0000 0.83650  0.74110  0.76460  Biso   1.000  H
  C33      1.0000 0.40251  0.69670  0.45710  Biso   1.000  C
  C34      1.0000 0.59749  0.69670  0.04290  Biso   1.000  C
  C35      1.0000 0.90251  0.19670  0.45710  Biso   1.000  C
  C36      1.0000 0.09749  0.19670  0.04290  Biso   1.000  C
  C37      1.0000 0.59749  0.30330  0.54290  Biso   1.000  C
  C38      1.0000 0.40251  0.30330  0.95710  Biso   1.000  C
  C39      1.0000 0.09749  0.80330  0.54290  Biso   1.000  C
  C40      1.0000 0.90251  0.80330  0.95710  Biso   1.000  C
  C41      1.0000 0.45047  0.74018  0.60340  Biso   1.000  C
  C42      1.0000 0.54953  0.74018  0.89660  Biso   1.000  C
  C43      1.0000 0.95047  0.24018  0.60340  Biso   1.000  C
  C44      1.0000 0.04953  0.24018  0.89660  Biso   1.000  C
  C45      1.0000 0.54953  0.25982  0.39660  Biso   1.000  C
  C46      1.0000 0.45047  0.25982  0.10340  Biso   1.000  C
  C47      1.0000 0.04953  0.75982  0.39660  Biso   1.000  C
  C48      1.0000 0.95047  0.75982  0.10340  Biso   1.000  C
  C49      1.0000 0.44800  0.80545  0.59870  Biso   1.000  C
  C50      1.0000 0.55200  0.80545  0.90130  Biso   1.000  C
  C51      1.0000 0.94800  0.30545  0.59870  Biso   1.000  C
  C52      1.0000 0.05200  0.30545  0.90130  Biso   1.000  C
  C53      1.0000 0.55200  0.19455  0.40130  Biso   1.000  C
  C54      1.0000 0.44800  0.19455  0.09870  Biso   1.000  C
  C55      1.0000 0.05200  0.69455  0.40130  Biso   1.000  C
  C56      1.0000 0.94800  0.69455  0.09870  Biso   1.000  C
  H33      1.0000 0.41240  0.82700  0.49700  Biso   1.000  H
  H34      1.0000 0.58760  0.82700  0.00300  Biso   1.000  H
  H35      1.0000 0.91240  0.32700  0.49700  Biso   1.000  H
  H36      1.0000 0.08760  0.32700  0.00300  Biso   1.000  H
  H37      1.0000 0.58760  0.17300  0.50300  Biso   1.000  H
  H38      1.0000 0.41240  0.17300  0.99700  Biso   1.000  H
  H39      1.0000 0.08760  0.67300  0.50300  Biso   1.000  H
  H40      1.0000 0.91240  0.67300  0.99700  Biso   1.000  H
  C57      1.0000 0.50000  0.83774  0.75000  Biso   1.000  C
  C58      1.0000 0.00000  0.33774  0.75000  Biso   1.000  C
  C59      1.0000 0.50000  0.16226  0.25000  Biso   1.000  C
  C60      1.0000 0.00000  0.66226  0.25000  Biso   1.000  C
  H41      1.0000 0.50000  0.88160  0.75000  Biso   1.000  H
  H42      1.0000 0.00000  0.38160  0.75000  Biso   1.000  H
  H43      1.0000 0.50000  0.11840  0.25000  Biso   1.000  H
  H44      1.0000 0.00000  0.61840  0.25000  Biso   1.000  H
  C61      1.0000 0.75125  0.57828  0.74370  Biso   1.000  C
  C62      1.0000 0.24875  0.57828  0.75630  Biso   1.000  C
  C63      1.0000 0.25125  0.07828  0.74370  Biso   1.000  C
  C64      1.0000 0.74875  0.07828  0.75630  Biso   1.000  C
  C65      1.0000 0.24875  0.42172  0.25630  Biso   1.000  C
  C66      1.0000 0.75125  0.42172  0.24370  Biso   1.000  C
  C67      1.0000 0.74875  0.92172  0.25630  Biso   1.000  C
  C68      1.0000 0.25125  0.92172  0.24370  Biso   1.000  C
  C69      1.0000 0.87550  0.53725  0.74800  Biso   1.000  C
  C70      1.0000 0.12450  0.53725  0.75200  Biso   1.000  C
  C71      1.0000 0.37550  0.03725  0.74800  Biso   1.000  C
  C72      1.0000 0.62450  0.03725  0.75200  Biso   1.000  C
  C73      1.0000 0.12450  0.46275  0.25200  Biso   1.000  C
  C74      1.0000 0.87550  0.46275  0.24800  Biso   1.000  C
  C75      1.0000 0.62450  0.96275  0.25200  Biso   1.000  C
  C76      1.0000 0.37550  0.96275  0.24800  Biso   1.000  C
  H45      1.0000 0.90380  0.51070  0.84720  Biso   1.000  H
  H46      1.0000 0.09620  0.51070  0.65280  Biso   1.000  H
  H47      1.0000 0.40380  0.01070  0.84720  Biso   1.000  H
  H48      1.0000 0.59620  0.01070  0.65280  Biso   1.000  H
  H49      1.0000 0.09620  0.48930  0.15280  Biso   1.000  H
  H50      1.0000 0.90380  0.48930  0.34720  Biso   1.000  H
  H51      1.0000 0.59620  0.98930  0.15280  Biso   1.000  H
  H52      1.0000 0.40380  0.98930  0.34720  Biso   1.000  H
  H53      1.0000 0.84550  0.50990  0.65020  Biso   1.000  H
  H54      1.0000 0.15450  0.50990  0.84980  Biso   1.000  H
  H55      1.0000 0.34550  0.00990  0.65020  Biso   1.000  H
  H56      1.0000 0.65450  0.00990  0.84980  Biso   1.000  H
  H57      1.0000 0.15450  0.49010  0.34980  Biso   1.000  H
  H58      1.0000 0.84550  0.49010  0.15020  Biso   1.000  H
  H59      1.0000 0.65450  0.99010  0.34980  Biso   1.000  H
  H60      1.0000 0.34550  0.99010  0.15020  Biso   1.000  H
  C77      1.0000 0.00000  0.57545  0.75000  Biso   1.000  C
  C78      1.0000 0.50000  0.07545  0.75000  Biso   1.000  C
  C79      1.0000 0.00000  0.42455  0.25000  Biso   1.000  C
  C80      1.0000 0.50000  0.92455  0.25000  Biso   1.000  C
  H61      1.0000 0.02960  0.60240  0.84830  Biso   1.000  H
  H62      1.0000 0.97040  0.60240  0.65170  Biso   1.000  H
  H63      1.0000 0.52960  0.10240  0.84830  Biso   1.000  H
  H64      1.0000 0.47040  0.10240  0.65170  Biso   1.000  H
  H65      1.0000 0.97040  0.39760  0.15170  Biso   1.000  H
  H66      1.0000 0.02960  0.39760  0.34830  Biso   1.000  H
  H67      1.0000 0.47040  0.89760  0.15170  Biso   1.000  H
  H68      1.0000 0.52960  0.89760  0.34830  Biso   1.000  H
