data_image0
_cell_length_a       12.0201
_cell_length_b       6.1495
_cell_length_c       14.8576
_cell_angle_alpha    90
_cell_angle_beta     94.172
_cell_angle_gamma    90

_symmetry_space_group_name_H-M    "P 1"
_symmetry_int_tables_number       1

loop_
  _symmetry_equiv_pos_as_xyz
  'x, y, z'

loop_
  _atom_site_label
  _atom_site_occupancy
  _atom_site_fract_x
  _atom_site_fract_y
  _atom_site_fract_z
  _atom_site_thermal_displace_type
  _atom_site_B_iso_or_equiv
  _atom_site_type_symbol
  Cu1      1.0000 0.16388  0.66571  0.05860  Biso   1.000  Cu
  Cu2      1.0000 0.83612  0.16571  0.94140  Biso   1.000  Cu
  C1       1.0000 0.36160  0.65660  0.16447  Biso   1.000  C
  C2       1.0000 0.63840  0.15660  0.83553  Biso   1.000  C
  C3       1.0000 0.28340  0.53630  0.22456  Biso   1.000  C
  C4       1.0000 0.71660  0.03630  0.77544  Biso   1.000  C
  H1       1.0000 0.26250  0.64250  0.27140  Biso   1.000  H
  H2       1.0000 0.73750  0.14250  0.72860  Biso   1.000  H
  C5       1.0000 0.33800  0.34250  0.27530  Biso   1.000  C
  C6       1.0000 0.66200  0.84250  0.72470  Biso   1.000  C
  H3       1.0000 0.35650  0.22900  0.23150  Biso   1.000  H
  H4       1.0000 0.64350  0.72900  0.76850  Biso   1.000  H
  H5       1.0000 0.40830  0.39010  0.30840  Biso   1.000  H
  H6       1.0000 0.59170  0.89010  0.69160  Biso   1.000  H
  C7       1.0000 0.26090  0.24940  0.34075  Biso   1.000  C
  C8       1.0000 0.73910  0.74940  0.65925  Biso   1.000  C
  C9       1.0000 0.25070  0.34520  0.42460  Biso   1.000  C
  C10      1.0000 0.74930  0.84520  0.57540  Biso   1.000  C
  H7       1.0000 0.29530  0.46800  0.44170  Biso   1.000  H
  H8       1.0000 0.70470  0.96800  0.55830  Biso   1.000  H
  C11      1.0000 0.17640  0.26390  0.48380  Biso   1.000  C
  C12      1.0000 0.82360  0.76390  0.51620  Biso   1.000  C
  H9       1.0000 0.17050  0.33250  0.54060  Biso   1.000  H
  H10      1.0000 0.82950  0.83250  0.45940  Biso   1.000  H
  C13      1.0000 0.11040  0.08350  0.46080  Biso   1.000  C
  C14      1.0000 0.88960  0.58350  0.53920  Biso   1.000  C
  H11      1.0000 0.06020  0.02680  0.50140  Biso   1.000  H
  H12      1.0000 0.93980  0.52680  0.49860  Biso   1.000  H
  C15      1.0000 0.12000  0.98850  0.37680  Biso   1.000  C
  C16      1.0000 0.88000  0.48850  0.62320  Biso   1.000  C
  C17      1.0000 0.19330  0.07300  0.31630  Biso   1.000  C
  C18      1.0000 0.80670  0.57300  0.68370  Biso   1.000  C
  H13      1.0000 0.19660  0.00920  0.25830  Biso   1.000  H
  H14      1.0000 0.80340  0.50920  0.74170  Biso   1.000  H
  C19      1.0000 0.05410  0.79730  0.34940  Biso   1.000  C
  C20      1.0000 0.94590  0.29730  0.65060  Biso   1.000  C
  C21      1.0000 0.00950  0.52920  0.92425  Biso   1.000  C
  C22      1.0000 0.99050  0.02920  0.07575  Biso   1.000  C
  C23      1.0000 0.09490  0.65050  0.87116  Biso   1.000  C
  C24      1.0000 0.90510  0.15050  0.12884  Biso   1.000  C
  H15      1.0000 0.05460  0.74370  0.82430  Biso   1.000  H
  H16      1.0000 0.94540  0.24370  0.17570  Biso   1.000  H
  C25      1.0000 0.16570  0.48340  0.82472  Biso   1.000  C
  C26      1.0000 0.83430  0.98340  0.17528  Biso   1.000  C
  H17      1.0000 0.21440  0.40890  0.87170  Biso   1.000  H
  H18      1.0000 0.78560  0.90890  0.12830  Biso   1.000  H
  H19      1.0000 0.11510  0.37240  0.79610  Biso   1.000  H
  H20      1.0000 0.88490  0.87240  0.20390  Biso   1.000  H
  C27      1.0000 0.23820  0.56990  0.75406  Biso   1.000  C
  C28      1.0000 0.76180  0.06990  0.24594  Biso   1.000  C
  C29      1.0000 0.22160  0.77350  0.71480  Biso   1.000  C
  C30      1.0000 0.77840  0.27350  0.28520  Biso   1.000  C
  H21      1.0000 0.16440  0.86520  0.73410  Biso   1.000  H
  H22      1.0000 0.83560  0.36520  0.26590  Biso   1.000  H
  C31      1.0000 0.28840  0.84570  0.64650  Biso   1.000  C
  C32      1.0000 0.71160  0.34570  0.35350  Biso   1.000  C
  H23      1.0000 0.27610  0.98560  0.62060  Biso   1.000  H
  H24      1.0000 0.72390  0.48560  0.37940  Biso   1.000  H
  C33      1.0000 0.37090  0.71550  0.61740  Biso   1.000  C
  C34      1.0000 0.62910  0.21550  0.38260  Biso   1.000  C
  H25      1.0000 0.41550  0.76350  0.57100  Biso   1.000  H
  H26      1.0000 0.58450  0.26350  0.42900  Biso   1.000  H
  C35      1.0000 0.38860  0.51230  0.65670  Biso   1.000  C
  C36      1.0000 0.61140  0.01230  0.34330  Biso   1.000  C
  C37      1.0000 0.32320  0.43960  0.72477  Biso   1.000  C
  C38      1.0000 0.67680  0.93960  0.27523  Biso   1.000  C
  H27      1.0000 0.33690  0.30050  0.75120  Biso   1.000  H
  H28      1.0000 0.66310  0.80050  0.24880  Biso   1.000  H
  C39      1.0000 0.47460  0.37460  0.62470  Biso   1.000  C
  C40      1.0000 0.52540  0.87460  0.37530  Biso   1.000  C
  N1       1.0000 0.17870  0.48040  0.16977  Biso   1.000  N
  N2       1.0000 0.82130  0.98040  0.83023  Biso   1.000  N
  N3       1.0000 0.00610  0.64530  0.32612  Biso   1.000  N
  N4       1.0000 0.99390  0.14530  0.67388  Biso   1.000  N
  N5       1.0000 0.16604  0.79100  0.93374  Biso   1.000  N
  N6       1.0000 0.83396  0.29100  0.06626  Biso   1.000  N
  N7       1.0000 0.54250  0.27010  0.59660  Biso   1.000  N
  N8       1.0000 0.45750  0.77010  0.40340  Biso   1.000  N
  O1       1.0000 0.31504  0.75850  0.09613  Biso   1.000  O
  O2       1.0000 0.68496  0.25850  0.90387  Biso   1.000  O
  O3       1.0000 0.46283  0.66120  0.18545  Biso   1.000  O
  O4       1.0000 0.53717  0.16120  0.81455  Biso   1.000  O
  O5       1.0000 0.02962  0.51620  0.01058  Biso   1.000  O
  O6       1.0000 0.97038  0.01620  0.98942  Biso   1.000  O
  O7       1.0000 0.92894  0.44490  0.88187  Biso   1.000  O
  O8       1.0000 0.07106  0.94490  0.11813  Biso   1.000  O
  O9       1.0000 0.40840  0.85040  0.90322  Biso   1.000  O
  O10      1.0000 0.59160  0.35040  0.09678  Biso   1.000  O
  H29      1.0000 0.39380  0.81220  0.95610  Biso   1.000  H
  H30      1.0000 0.60620  0.31220  0.04390  Biso   1.000  H
  H31      1.0000 0.44770  0.96300  0.89580  Biso   1.000  H
  H32      1.0000 0.55230  0.46300  0.10420  Biso   1.000  H
  O11      1.0000 0.55367  0.91870  0.05495  Biso   1.000  O
  O12      1.0000 0.44633  0.41870  0.94505  Biso   1.000  O
  H33      1.0000 0.61810  0.88840  0.07910  Biso   1.000  H
  H34      1.0000 0.38190  0.38840  0.92090  Biso   1.000  H
  H35      1.0000 0.51050  0.00160  0.08210  Biso   1.000  H
  H36      1.0000 0.48950  0.50160  0.91790  Biso   1.000  H
  O13      1.0000 0.28770  0.20860  0.04385  Biso   1.000  O
  O14      1.0000 0.71230  0.70860  0.95615  Biso   1.000  O
  H37      1.0000 0.33190  0.26600  0.00860  Biso   1.000  H
  H38      1.0000 0.66810  0.76600  0.99140  Biso   1.000  H
  H39      1.0000 0.28600  0.25480  0.09770  Biso   1.000  H
  H40      1.0000 0.71400  0.75480  0.90230  Biso   1.000  H
