data_image0
_cell_length_a       7.87
_cell_length_b       11.259
_cell_length_c       7.807
_cell_angle_alpha    90
_cell_angle_beta     90
_cell_angle_gamma    90

_symmetry_space_group_name_H-M    "P 1"
_symmetry_int_tables_number       1

loop_
  _symmetry_equiv_pos_as_xyz
  'x, y, z'

loop_
  _atom_site_label
  _atom_site_occupancy
  _atom_site_fract_x
  _atom_site_fract_y
  _atom_site_fract_z
  _atom_site_thermal_displace_type
  _atom_site_B_iso_or_equiv
  _atom_site_type_symbol
  Cu1      1.0000 0.50000  0.00000  0.25000  Biso   1.000  Cu
  Cu2      1.0000 0.00000  0.50000  0.75000  Biso   1.000  Cu
  Cu3      1.0000 0.50000  0.00000  0.75000  Biso   1.000  Cu
  Cu4      1.0000 0.00000  0.50000  0.25000  Biso   1.000  Cu
  N1       1.0000 0.32992  0.05847  0.08735  Biso   1.000  N
  N2       1.0000 0.82992  0.55847  0.58735  Biso   1.000  N
  N3       1.0000 0.67008  0.94153  0.08735  Biso   1.000  N
  N4       1.0000 0.82992  0.44153  0.91265  Biso   1.000  N
  N5       1.0000 0.17008  0.44153  0.58735  Biso   1.000  N
  N6       1.0000 0.32992  0.94153  0.41265  Biso   1.000  N
  N7       1.0000 0.17008  0.55847  0.91265  Biso   1.000  N
  N8       1.0000 0.67008  0.05847  0.41265  Biso   1.000  N
  N9       1.0000 0.67008  0.94153  0.91265  Biso   1.000  N
  N10      1.0000 0.17008  0.44153  0.41265  Biso   1.000  N
  N11      1.0000 0.32992  0.05847  0.91265  Biso   1.000  N
  N12      1.0000 0.17008  0.55847  0.08735  Biso   1.000  N
  N13      1.0000 0.82992  0.55847  0.41265  Biso   1.000  N
  N14      1.0000 0.67008  0.05847  0.58735  Biso   1.000  N
  N15      1.0000 0.82992  0.44153  0.08735  Biso   1.000  N
  N16      1.0000 0.32992  0.94153  0.58735  Biso   1.000  N
  C1       1.0000 0.19767  0.12540  0.13994  Biso   1.000  C
  C2       1.0000 0.69767  0.62540  0.63994  Biso   1.000  C
  C3       1.0000 0.80233  0.87460  0.13994  Biso   1.000  C
  C4       1.0000 0.69767  0.37460  0.86006  Biso   1.000  C
  C5       1.0000 0.30233  0.37460  0.63994  Biso   1.000  C
  C6       1.0000 0.19767  0.87460  0.36006  Biso   1.000  C
  C7       1.0000 0.30233  0.62540  0.86006  Biso   1.000  C
  C8       1.0000 0.80233  0.12540  0.36006  Biso   1.000  C
  C9       1.0000 0.80233  0.87460  0.86006  Biso   1.000  C
  C10      1.0000 0.30233  0.37460  0.36006  Biso   1.000  C
  C11      1.0000 0.19767  0.12540  0.86006  Biso   1.000  C
  C12      1.0000 0.30233  0.62540  0.13994  Biso   1.000  C
  C13      1.0000 0.69767  0.62540  0.36006  Biso   1.000  C
  C14      1.0000 0.80233  0.12540  0.63994  Biso   1.000  C
  C15      1.0000 0.69767  0.37460  0.13994  Biso   1.000  C
  C16      1.0000 0.19767  0.87460  0.63994  Biso   1.000  C
  C17      1.0000 0.11080  0.17064  0.00000  Biso   1.000  C
  C18      1.0000 0.61080  0.67064  0.50000  Biso   1.000  C
  C19      1.0000 0.88920  0.82936  0.00000  Biso   1.000  C
  C20      1.0000 0.61080  0.32936  0.00000  Biso   1.000  C
  C21      1.0000 0.38920  0.32936  0.50000  Biso   1.000  C
  C22      1.0000 0.11080  0.82936  0.50000  Biso   1.000  C
  C23      1.0000 0.38920  0.67064  0.00000  Biso   1.000  C
  C24      1.0000 0.88920  0.17064  0.50000  Biso   1.000  C
  H1       1.0000 0.16500  0.14040  0.26200  Biso   1.000  H
  H2       1.0000 0.66500  0.64040  0.76200  Biso   1.000  H
  H3       1.0000 0.83500  0.85960  0.26200  Biso   1.000  H
  H4       1.0000 0.66500  0.35960  0.73800  Biso   1.000  H
  H5       1.0000 0.33500  0.35960  0.76200  Biso   1.000  H
  H6       1.0000 0.16500  0.85960  0.23800  Biso   1.000  H
  H7       1.0000 0.33500  0.64040  0.73800  Biso   1.000  H
  H8       1.0000 0.83500  0.14040  0.23800  Biso   1.000  H
  H9       1.0000 0.83500  0.85960  0.73800  Biso   1.000  H
  H10      1.0000 0.33500  0.35960  0.23800  Biso   1.000  H
  H11      1.0000 0.16500  0.14040  0.73800  Biso   1.000  H
  H12      1.0000 0.33500  0.64040  0.26200  Biso   1.000  H
  H13      1.0000 0.66500  0.64040  0.23800  Biso   1.000  H
  H14      1.0000 0.83500  0.14040  0.76200  Biso   1.000  H
  H15      1.0000 0.66500  0.35960  0.26200  Biso   1.000  H
  H16      1.0000 0.16500  0.85960  0.76200  Biso   1.000  H
  H17      1.0000 0.02400  0.23200  0.00000  Biso   1.000  H
  H18      1.0000 0.52400  0.73200  0.50000  Biso   1.000  H
  H19      1.0000 0.97600  0.76800  0.00000  Biso   1.000  H
  H20      1.0000 0.52400  0.26800  0.00000  Biso   1.000  H
  H21      1.0000 0.47600  0.26800  0.50000  Biso   1.000  H
  H22      1.0000 0.02400  0.76800  0.50000  Biso   1.000  H
  H23      1.0000 0.47600  0.73200  0.00000  Biso   1.000  H
  H24      1.0000 0.97600  0.23200  0.50000  Biso   1.000  H
