data_image0
_cell_length_a       7.917
_cell_length_b       11.491
_cell_length_c       7.778
_cell_angle_alpha    90
_cell_angle_beta     90
_cell_angle_gamma    90

_symmetry_space_group_name_H-M    "P 1"
_symmetry_int_tables_number       1

loop_
  _symmetry_equiv_pos_as_xyz
  'x, y, z'

loop_
  _atom_site_label
  _atom_site_occupancy
  _atom_site_fract_x
  _atom_site_fract_y
  _atom_site_fract_z
  _atom_site_thermal_displace_type
  _atom_site_B_iso_or_equiv
  _atom_site_type_symbol
  Cu1      1.0000 0.50000  0.00000  0.25000  Biso   1.000  Cu
  Cu2      1.0000 0.00000  0.50000  0.75000  Biso   1.000  Cu
  Cu3      1.0000 0.50000  0.00000  0.75000  Biso   1.000  Cu
  Cu4      1.0000 0.00000  0.50000  0.25000  Biso   1.000  Cu
  N1       1.0000 0.33190  0.05890  0.08740  Biso   1.000  N
  N2       1.0000 0.83190  0.55890  0.58740  Biso   1.000  N
  N3       1.0000 0.66810  0.94110  0.08740  Biso   1.000  N
  N4       1.0000 0.83190  0.44110  0.91260  Biso   1.000  N
  N5       1.0000 0.16810  0.44110  0.58740  Biso   1.000  N
  N6       1.0000 0.33190  0.94110  0.41260  Biso   1.000  N
  N7       1.0000 0.16810  0.55890  0.91260  Biso   1.000  N
  N8       1.0000 0.66810  0.05890  0.41260  Biso   1.000  N
  N9       1.0000 0.66810  0.94110  0.91260  Biso   1.000  N
  N10      1.0000 0.16810  0.44110  0.41260  Biso   1.000  N
  N11      1.0000 0.33190  0.05890  0.91260  Biso   1.000  N
  N12      1.0000 0.16810  0.55890  0.08740  Biso   1.000  N
  N13      1.0000 0.83190  0.55890  0.41260  Biso   1.000  N
  N14      1.0000 0.66810  0.05890  0.58740  Biso   1.000  N
  N15      1.0000 0.83190  0.44110  0.08740  Biso   1.000  N
  N16      1.0000 0.33190  0.94110  0.58740  Biso   1.000  N
  C1       1.0000 0.20050  0.12420  0.13920  Biso   1.000  C
  C2       1.0000 0.70050  0.62420  0.63920  Biso   1.000  C
  C3       1.0000 0.79950  0.87580  0.13920  Biso   1.000  C
  C4       1.0000 0.70050  0.37580  0.86080  Biso   1.000  C
  C5       1.0000 0.29950  0.37580  0.63920  Biso   1.000  C
  C6       1.0000 0.20050  0.87580  0.36080  Biso   1.000  C
  C7       1.0000 0.29950  0.62420  0.86080  Biso   1.000  C
  C8       1.0000 0.79950  0.12420  0.36080  Biso   1.000  C
  C9       1.0000 0.79950  0.87580  0.86080  Biso   1.000  C
  C10      1.0000 0.29950  0.37580  0.36080  Biso   1.000  C
  C11      1.0000 0.20050  0.12420  0.86080  Biso   1.000  C
  C12      1.0000 0.29950  0.62420  0.13920  Biso   1.000  C
  C13      1.0000 0.70050  0.62420  0.36080  Biso   1.000  C
  C14      1.0000 0.79950  0.12420  0.63920  Biso   1.000  C
  C15      1.0000 0.70050  0.37580  0.13920  Biso   1.000  C
  C16      1.0000 0.20050  0.87580  0.63920  Biso   1.000  C
  C17      1.0000 0.11540  0.16800  0.00000  Biso   1.000  C
  C18      1.0000 0.61540  0.66800  0.50000  Biso   1.000  C
  C19      1.0000 0.88460  0.83200  0.00000  Biso   1.000  C
  C20      1.0000 0.61540  0.33200  0.00000  Biso   1.000  C
  C21      1.0000 0.38460  0.33200  0.50000  Biso   1.000  C
  C22      1.0000 0.11540  0.83200  0.50000  Biso   1.000  C
  C23      1.0000 0.38460  0.66800  0.00000  Biso   1.000  C
  C24      1.0000 0.88460  0.16800  0.50000  Biso   1.000  C
  H1       1.0000 0.16200  0.14000  0.26200  Biso   1.000  H
  H2       1.0000 0.66200  0.64000  0.76200  Biso   1.000  H
  H3       1.0000 0.83800  0.86000  0.26200  Biso   1.000  H
  H4       1.0000 0.66200  0.36000  0.73800  Biso   1.000  H
  H5       1.0000 0.33800  0.36000  0.76200  Biso   1.000  H
  H6       1.0000 0.16200  0.86000  0.23800  Biso   1.000  H
  H7       1.0000 0.33800  0.64000  0.73800  Biso   1.000  H
  H8       1.0000 0.83800  0.14000  0.23800  Biso   1.000  H
  H9       1.0000 0.83800  0.86000  0.73800  Biso   1.000  H
  H10      1.0000 0.33800  0.36000  0.23800  Biso   1.000  H
  H11      1.0000 0.16200  0.14000  0.73800  Biso   1.000  H
  H12      1.0000 0.33800  0.64000  0.26200  Biso   1.000  H
  H13      1.0000 0.66200  0.64000  0.23800  Biso   1.000  H
  H14      1.0000 0.83800  0.14000  0.76200  Biso   1.000  H
  H15      1.0000 0.66200  0.36000  0.26200  Biso   1.000  H
  H16      1.0000 0.16200  0.86000  0.76200  Biso   1.000  H
  H17      1.0000 0.04400  0.21700  0.00000  Biso   1.000  H
  H18      1.0000 0.54400  0.71700  0.50000  Biso   1.000  H
  H19      1.0000 0.95600  0.78300  0.00000  Biso   1.000  H
  H20      1.0000 0.54400  0.28300  0.00000  Biso   1.000  H
  H21      1.0000 0.45600  0.28300  0.50000  Biso   1.000  H
  H22      1.0000 0.04400  0.78300  0.50000  Biso   1.000  H
  H23      1.0000 0.45600  0.71700  0.00000  Biso   1.000  H
  H24      1.0000 0.95600  0.21700  0.50000  Biso   1.000  H
