data_image0
_cell_length_a       14.5813
_cell_length_b       15.1621
_cell_length_c       17.2778
_cell_angle_alpha    92.579
_cell_angle_beta     103.472
_cell_angle_gamma    113.193

_symmetry_space_group_name_H-M    "P 1"
_symmetry_int_tables_number       1

loop_
  _symmetry_equiv_pos_as_xyz
  'x, y, z'

loop_
  _atom_site_label
  _atom_site_occupancy
  _atom_site_fract_x
  _atom_site_fract_y
  _atom_site_fract_z
  _atom_site_thermal_displace_type
  _atom_site_B_iso_or_equiv
  _atom_site_type_symbol
  C1       1.0000 0.00770  0.45130  0.59260  Biso   1.000  C
  C2       1.0000 0.99230  0.54870  0.40740  Biso   1.000  C
  H1       1.0000 0.04770  0.48650  0.55820  Biso   1.000  H
  H2       1.0000 0.95230  0.51350  0.44180  Biso   1.000  H
  H3       1.0000 0.01270  0.49580  0.63630  Biso   1.000  H
  H4       1.0000 0.98730  0.50420  0.36370  Biso   1.000  H
  H5       1.0000 0.93640  0.41700  0.56220  Biso   1.000  H
  H6       1.0000 0.06360  0.58300  0.43780  Biso   1.000  H
  C3       1.0000 0.14900  0.41750  0.67950  Biso   1.000  C
  C4       1.0000 0.85100  0.58250  0.32050  Biso   1.000  C
  C5       1.0000 0.20940  0.51390  0.70060  Biso   1.000  C
  C6       1.0000 0.79060  0.48610  0.29940  Biso   1.000  C
  H7       1.0000 0.18560  0.56000  0.68300  Biso   1.000  H
  H8       1.0000 0.81440  0.44000  0.31700  Biso   1.000  H
  C7       1.0000 0.30890  0.54010  0.75010  Biso   1.000  C
  C8       1.0000 0.69110  0.45990  0.24990  Biso   1.000  C
  H9       1.0000 0.35390  0.60560  0.76190  Biso   1.000  H
  H10      1.0000 0.64610  0.39440  0.23810  Biso   1.000  H
  C9       1.0000 0.34380  0.47650  0.78180  Biso   1.000  C
  C10      1.0000 0.65620  0.52350  0.21820  Biso   1.000  C
  H11      1.0000 0.40810  0.49780  0.81940  Biso   1.000  H
  H12      1.0000 0.59190  0.50220  0.18060  Biso   1.000  H
  C11      1.0000 0.28190  0.37810  0.75710  Biso   1.000  C
  C12      1.0000 0.71810  0.62190  0.24290  Biso   1.000  C
  C13      1.0000 0.17860  0.34610  0.70350  Biso   1.000  C
  C14      1.0000 0.82140  0.65390  0.29650  Biso   1.000  C
  C15      1.0000 0.32320  0.31070  0.78630  Biso   1.000  C
  C16      1.0000 0.67680  0.68930  0.21370  Biso   1.000  C
  H13      1.0000 0.38850  0.33710  0.82310  Biso   1.000  H
  H14      1.0000 0.61150  0.66290  0.17690  Biso   1.000  H
  C17      1.0000 0.32280  0.15240  0.80290  Biso   1.000  C
  C18      1.0000 0.67720  0.84760  0.19710  Biso   1.000  C
  H15      1.0000 0.28690  0.12170  0.84170  Biso   1.000  H
  H16      1.0000 0.71310  0.87830  0.15830  Biso   1.000  H
  H17      1.0000 0.39570  0.18870  0.83080  Biso   1.000  H
  H18      1.0000 0.60430  0.81130  0.16920  Biso   1.000  H
  C19      1.0000 0.31010  0.07450  0.73590  Biso   1.000  C
  C20      1.0000 0.68990  0.92550  0.26410  Biso   1.000  C
  H19      1.0000 0.31030  0.01670  0.75920  Biso   1.000  H
  H20      1.0000 0.68970  0.98330  0.24080  Biso   1.000  H
  C21      1.0000 0.39230  0.10820  0.69290  Biso   1.000  C
  C22      1.0000 0.60770  0.89180  0.30710  Biso   1.000  C
  H21      1.0000 0.39710  0.16790  0.67240  Biso   1.000  H
  H22      1.0000 0.60290  0.83210  0.32760  Biso   1.000  H
  H23      1.0000 0.45930  0.11890  0.72820  Biso   1.000  H
  H24      1.0000 0.54070  0.88110  0.27180  Biso   1.000  H
  C23      1.0000 0.41700  0.99880  0.60710  Biso   1.000  C
  C24      1.0000 0.58300  0.00120  0.39290  Biso   1.000  C
  H25      1.0000 0.48660  0.03100  0.63520  Biso   1.000  H
  H26      1.0000 0.51340  0.96900  0.36480  Biso   1.000  H
  C25      1.0000 0.39070  0.92150  0.54640  Biso   1.000  C
  C26      1.0000 0.60930  0.07850  0.45360  Biso   1.000  C
  C27      1.0000 0.28920  0.87330  0.49180  Biso   1.000  C
  C28      1.0000 0.71080  0.12670  0.50820  Biso   1.000  C
  C29      1.0000 0.26590  0.79030  0.43110  Biso   1.000  C
  C30      1.0000 0.73410  0.20970  0.56890  Biso   1.000  C
  C31      1.0000 0.34720  0.76270  0.42540  Biso   1.000  C
  C32      1.0000 0.65280  0.23730  0.57460  Biso   1.000  C
  H27      1.0000 0.33200  0.70940  0.38790  Biso   1.000  H
  H28      1.0000 0.66800  0.29060  0.61210  Biso   1.000  H
  C33      1.0000 0.44790  0.81190  0.47340  Biso   1.000  C
  C34      1.0000 0.55210  0.18810  0.52660  Biso   1.000  C
  H29      1.0000 0.50050  0.79590  0.46480  Biso   1.000  H
  H30      1.0000 0.49950  0.20410  0.53520  Biso   1.000  H
  C35      1.0000 0.46950  0.88620  0.53510  Biso   1.000  C
  C36      1.0000 0.53050  0.11380  0.46490  Biso   1.000  C
  H31      1.0000 0.53570  0.91470  0.57060  Biso   1.000  H
  H32      1.0000 0.46430  0.08530  0.42940  Biso   1.000  H
  C37      1.0000 0.14790  0.69570  0.30880  Biso   1.000  C
  C38      1.0000 0.85210  0.30430  0.69120  Biso   1.000  C
  H33      1.0000 0.16800  0.64260  0.31400  Biso   1.000  H
  H34      1.0000 0.83200  0.35740  0.68600  Biso   1.000  H
  H35      1.0000 0.18930  0.74100  0.28030  Biso   1.000  H
  H36      1.0000 0.81070  0.25900  0.71970  Biso   1.000  H
  H37      1.0000 0.07600  0.67150  0.27960  Biso   1.000  H
  H38      1.0000 0.92400  0.32850  0.72040  Biso   1.000  H
  N1       1.0000 0.28000  0.21790  0.76730  Biso   1.000  N
  N2       1.0000 0.72000  0.78210  0.23270  Biso   1.000  N
  N3       1.0000 0.35760  0.02760  0.62620  Biso   1.000  N
  N4       1.0000 0.64240  0.97240  0.37380  Biso   1.000  N
  N5       1.0000 0.14940  0.74400  0.60010  Biso   1.000  N
  N6       1.0000 0.85060  0.25600  0.39990  Biso   1.000  N
  N7       1.0000 0.07080  0.10070  0.84570  Biso   1.000  N
  N8       1.0000 0.92920  0.89930  0.15430  Biso   1.000  N
  N9       1.0000 0.20600  0.12390  0.43740  Biso   1.000  N
  N10      1.0000 0.79400  0.87610  0.56260  Biso   1.000  N
  O1       1.0000 0.04950  0.37870  0.62600  Biso   1.000  O
  O2       1.0000 0.95050  0.62130  0.37400  Biso   1.000  O
  O3       1.0000 0.11490  0.25550  0.67830  Biso   1.000  O
  O4       1.0000 0.88510  0.74450  0.32170  Biso   1.000  O
  O5       1.0000 0.21210  0.05020  0.67950  Biso   1.000  O
  O6       1.0000 0.78790  0.94980  0.32050  Biso   1.000  O
  O7       1.0000 0.21290  0.89440  0.49240  Biso   1.000  O
  O8       1.0000 0.78710  0.10560  0.50760  Biso   1.000  O
  O9       1.0000 0.16350  0.74400  0.38790  Biso   1.000  O
  O10      1.0000 0.83650  0.25600  0.61210  Biso   1.000  O
  O11      1.0000 0.02670  0.07690  0.60200  Biso   1.000  O
  O12      1.0000 0.97330  0.92310  0.39800  Biso   1.000  O
  O13      1.0000 0.06130  0.91140  0.54230  Biso   1.000  O
  O14      1.0000 0.93870  0.08860  0.45770  Biso   1.000  O
  O15      1.0000 0.09020  0.86810  0.31900  Biso   1.000  O
  O16      1.0000 0.90980  0.13190  0.68100  Biso   1.000  O
  H39      1.0000 0.05520  0.90400  0.29720  Biso   1.000  H
  H40      1.0000 0.94480  0.09600  0.70280  Biso   1.000  H
  H41      1.0000 0.07990  0.82220  0.27730  Biso   1.000  H
  H42      1.0000 0.92010  0.17780  0.72270  Biso   1.000  H
  O17      1.0000 0.88790  0.72480  0.47830  Biso   1.000  O
  O18      1.0000 0.11210  0.27520  0.52170  Biso   1.000  O
  H43      1.0000 0.84440  0.75670  0.47000  Biso   1.000  H
  H44      1.0000 0.15560  0.24330  0.53000  Biso   1.000  H
  H45      1.0000 0.90420  0.72280  0.53370  Biso   1.000  H
  H46      1.0000 0.09580  0.27720  0.46630  Biso   1.000  H
  O19      1.0000 0.07680  0.71800  0.53650  Biso   1.000  O
  O20      1.0000 0.92320  0.28200  0.46350  Biso   1.000  O
  O21      1.0000 0.18800  0.69560  0.63170  Biso   1.000  O
  O22      1.0000 0.81200  0.30440  0.36830  Biso   1.000  O
  O23      1.0000 0.18960  0.82200  0.64700  Biso   1.000  O
  O24      1.0000 0.81040  0.17800  0.35300  Biso   1.000  O
  O25      1.0000 0.10690  0.08370  0.91210  Biso   1.000  O
  O26      1.0000 0.89310  0.91630  0.08790  Biso   1.000  O
  O27      1.0000 0.07280  0.05910  0.78260  Biso   1.000  O
  O28      1.0000 0.92720  0.94090  0.21740  Biso   1.000  O
  O29      1.0000 0.03240  0.16040  0.83890  Biso   1.000  O
  O30      1.0000 0.96760  0.83960  0.16110  Biso   1.000  O
  O31      1.0000 0.18110  0.09900  0.49850  Biso   1.000  O
  O32      1.0000 0.81890  0.90100  0.50150  Biso   1.000  O
  O33      1.0000 0.29640  0.16370  0.43690  Biso   1.000  O
  O34      1.0000 0.70360  0.83630  0.56310  Biso   1.000  O
  O35      1.0000 0.13350  0.08860  0.36980  Biso   1.000  O
  O36      1.0000 0.86650  0.91140  0.63020  Biso   1.000  O
  Cu1      1.0000 0.15763  0.14689  0.68214  Biso   1.000  Cu
  Cu2      1.0000 0.84237  0.85311  0.31786  Biso   1.000  Cu
  Cu3      1.0000 0.21141  0.97373  0.58450  Biso   1.000  Cu
  Cu4      1.0000 0.78859  0.02627  0.41550  Biso   1.000  Cu
  Cu5      1.0000 0.00000  0.00000  0.50000  Biso   1.000  Cu
  Ho1      1.0000 0.03564  0.79947  0.43036  Biso   1.000  Ho
  Ho2      1.0000 0.96436  0.20053  0.56964  Biso   1.000  Ho
  H47      1.0000 0.98800  0.05900  0.63200  Biso   1.000  H
  H48      1.0000 0.01200  0.94100  0.36800  Biso   1.000  H
  H49      1.0000 0.02600  0.87900  0.57100  Biso   1.000  H
  H50      1.0000 0.97400  0.12100  0.42900  Biso   1.000  H
  C39      1.0000 0.75830  0.25520  0.94500  Biso   1.000  C
  C40      1.0000 0.24170  0.74480  0.05500  Biso   1.000  C
  H51      1.0000 0.73970  0.25110  0.88740  Biso   1.000  H
  H52      1.0000 0.26030  0.74890  0.11260  Biso   1.000  H
  H53      1.0000 0.71100  0.19830  0.96000  Biso   1.000  H
  H54      1.0000 0.28900  0.80170  0.04000  Biso   1.000  H
  H55      1.0000 0.75490  0.31180  0.96890  Biso   1.000  H
  H56      1.0000 0.24510  0.68820  0.03110  Biso   1.000  H
  C41      1.0000 0.93720  0.32740  0.93980  Biso   1.000  C
  C42      1.0000 0.06280  0.67260  0.06020  Biso   1.000  C
  C43      1.0000 0.92330  0.39450  0.89470  Biso   1.000  C
  C44      1.0000 0.07670  0.60550  0.10530  Biso   1.000  C
  H57      1.0000 0.85980  0.39880  0.88280  Biso   1.000  H
  H58      1.0000 0.14020  0.60120  0.11720  Biso   1.000  H
  C45      1.0000 0.00060  0.45500  0.86670  Biso   1.000  C
  C46      1.0000 0.99940  0.54500  0.13330  Biso   1.000  C
  H59      1.0000 0.99190  0.50290  0.83810  Biso   1.000  H
  H60      1.0000 0.00810  0.49710  0.16190  Biso   1.000  H
  C47      1.0000 0.09350  0.44440  0.88150  Biso   1.000  C
  C48      1.0000 0.90650  0.55560  0.11850  Biso   1.000  C
  H61      1.0000 0.14600  0.48420  0.86060  Biso   1.000  H
  H62      1.0000 0.85400  0.51580  0.13940  Biso   1.000  H
  C49      1.0000 0.10990  0.37350  0.92830  Biso   1.000  C
  C50      1.0000 0.89010  0.62650  0.07170  Biso   1.000  C
  C51      1.0000 0.03000  0.31650  0.95660  Biso   1.000  C
  C52      1.0000 0.97000  0.68350  0.04340  Biso   1.000  C
  C53      1.0000 0.20990  0.36900  0.94380  Biso   1.000  C
  C54      1.0000 0.79010  0.63100  0.05620  Biso   1.000  C
  H63      1.0000 0.26010  0.41340  0.92340  Biso   1.000  H
  H64      1.0000 0.73990  0.58660  0.07660  Biso   1.000  H
  C55      1.0000 0.33400  0.30590  0.99600  Biso   1.000  C
  C56      1.0000 0.66600  0.69410  0.00400  Biso   1.000  C
  H65      1.0000 0.33360  0.26460  0.95130  Biso   1.000  H
  H66      1.0000 0.66640  0.73540  0.04870  Biso   1.000  H
  H67      1.0000 0.38730  0.37060  0.99940  Biso   1.000  H
  H68      1.0000 0.61270  0.62940  0.00060  Biso   1.000  H
  C57      1.0000 0.35790  0.26520  0.07570  Biso   1.000  C
  C58      1.0000 0.64210  0.73480  0.92430  Biso   1.000  C
  H69      1.0000 0.37600  0.31550  0.12130  Biso   1.000  H
  H70      1.0000 0.62400  0.68450  0.87870  Biso   1.000  H
  C59      1.0000 0.44760  0.23330  0.08430  Biso   1.000  C
  C60      1.0000 0.55240  0.76670  0.91570  Biso   1.000  C
  H71      1.0000 0.47240  0.22480  0.13940  Biso   1.000  H
  H72      1.0000 0.52760  0.77520  0.86060  Biso   1.000  H
  H73      1.0000 0.50490  0.28100  0.06870  Biso   1.000  H
  H74      1.0000 0.49510  0.71900  0.93130  Biso   1.000  H
  C61      1.0000 0.45450  0.12030  0.98590  Biso   1.000  C
  C62      1.0000 0.54550  0.87970  0.01410  Biso   1.000  C
  H75      1.0000 0.52030  0.16680  0.98830  Biso   1.000  H
  H76      1.0000 0.47970  0.83320  0.01170  Biso   1.000  H
  C63      1.0000 0.41610  0.02880  0.93260  Biso   1.000  C
  C64      1.0000 0.58390  0.97120  0.06740  Biso   1.000  C
  C65      1.0000 0.47710  0.02120  0.88350  Biso   1.000  C
  C66      1.0000 0.52290  0.97880  0.11650  Biso   1.000  C
  H77      1.0000 0.53850  0.07410  0.88530  Biso   1.000  H
  H78      1.0000 0.46150  0.92590  0.11470  Biso   1.000  H
  C67      1.0000 0.44750  0.93510  0.83160  Biso   1.000  C
  C68      1.0000 0.55250  0.06490  0.16840  Biso   1.000  C
  H79      1.0000 0.48850  0.93050  0.79910  Biso   1.000  H
  H80      1.0000 0.51150  0.06950  0.20090  Biso   1.000  H
  C69      1.0000 0.35360  0.85520  0.82970  Biso   1.000  C
  C70      1.0000 0.64640  0.14480  0.17030  Biso   1.000  C
  H81      1.0000 0.33180  0.79750  0.79530  Biso   1.000  H
  H82      1.0000 0.66820  0.20250  0.20470  Biso   1.000  H
  C71      1.0000 0.29710  0.86360  0.87740  Biso   1.000  C
  C72      1.0000 0.70290  0.13640  0.12260  Biso   1.000  C
  C73      1.0000 0.32400  0.94970  0.92950  Biso   1.000  C
  C74      1.0000 0.67600  0.05030  0.07050  Biso   1.000  C
  C75      1.0000 0.18910  0.69120  0.85290  Biso   1.000  C
  C76      1.0000 0.81090  0.30880  0.14710  Biso   1.000  C
  H83      1.0000 0.25300  0.68430  0.87100  Biso   1.000  H
  H84      1.0000 0.74700  0.31570  0.12900  Biso   1.000  H
  H85      1.0000 0.13750  0.64600  0.87440  Biso   1.000  H
  H86      1.0000 0.86250  0.35400  0.12560  Biso   1.000  H
  H87      1.0000 0.16610  0.67830  0.79510  Biso   1.000  H
  H88      1.0000 0.83390  0.32170  0.20490  Biso   1.000  H
  N11      1.0000 0.23400  0.30950  0.98270  Biso   1.000  N
  N12      1.0000 0.76600  0.69050  0.01730  Biso   1.000  N
  N13      1.0000 0.40310  0.14150  0.03040  Biso   1.000  N
  N14      1.0000 0.59690  0.85850  0.96960  Biso   1.000  N
  O37      1.0000 0.86220  0.26180  0.97290  Biso   1.000  O
  O38      1.0000 0.13780  0.73820  0.02710  Biso   1.000  O
  O39      1.0000 0.03210  0.24530  0.00100  Biso   1.000  O
  O40      1.0000 0.96790  0.75470  0.99900  Biso   1.000  O
  O41      1.0000 0.26740  0.18410  0.07820  Biso   1.000  O
  O42      1.0000 0.73260  0.81590  0.92180  Biso   1.000  O
  O43      1.0000 0.25820  0.94890  0.97420  Biso   1.000  O
  O44      1.0000 0.74180  0.05110  0.02580  Biso   1.000  O
  O45      1.0000 0.20530  0.78980  0.88040  Biso   1.000  O
  O46      1.0000 0.79470  0.21020  0.11960  Biso   1.000  O
  O47      1.0000 0.12100  0.96950  0.03790  Biso   1.000  O
  O48      1.0000 0.87900  0.03050  0.96210  Biso   1.000  O
  O49      1.0000 0.05140  0.11480  0.08070  Biso   1.000  O
  O50      1.0000 0.94860  0.88520  0.91930  Biso   1.000  O
  O51      1.0000 0.90830  0.10440  0.18530  Biso   1.000  O
  O52      1.0000 0.09170  0.89560  0.81470  Biso   1.000  O
  H89      1.0000 0.97240  0.13610  0.22960  Biso   1.000  H
  H90      1.0000 0.02760  0.86390  0.77040  Biso   1.000  H
  H91      1.0000 0.89440  0.03600  0.18370  Biso   1.000  H
  H92      1.0000 0.10560  0.96400  0.81630  Biso   1.000  H
  O53      1.0000 0.02450  0.30360  0.15590  Biso   1.000  O
  O54      1.0000 0.97550  0.69640  0.84410  Biso   1.000  O
  H93      1.0000 0.09430  0.31780  0.16480  Biso   1.000  H
  H94      1.0000 0.90570  0.68220  0.83520  Biso   1.000  H
  H95      1.0000 0.01250  0.30120  0.20600  Biso   1.000  H
  H96      1.0000 0.98750  0.69880  0.79400  Biso   1.000  H
  Cu6      1.0000 0.14994  0.21563  0.03754  Biso   1.000  Cu
  Cu7      1.0000 0.85006  0.78437  0.96246  Biso   1.000  Cu
  Cu8      1.0000 0.26392  0.06224  0.03574  Biso   1.000  Cu
  Cu9      1.0000 0.73608  0.93776  0.96426  Biso   1.000  Cu
  Cu10     1.0000 0.00000  0.00000  0.00000  Biso   1.000  Cu
  Ho3      1.0000 0.91445  0.16026  0.06527  Biso   1.000  Ho
  Ho4      1.0000 0.08555  0.83974  0.93473  Biso   1.000  Ho
  H97      1.0000 0.07880  0.12800  0.13040  Biso   1.000  H
  H98      1.0000 0.92120  0.87200  0.86960  Biso   1.000  H
  H99      1.0000 0.12400  0.94500  0.08100  Biso   1.000  H
  H100     1.0000 0.87600  0.05500  0.91900  Biso   1.000  H
  O55      1.0000 0.29490  0.97270  0.30240  Biso   1.000  O
  O56      1.0000 0.70510  0.02730  0.69760  Biso   1.000  O
  O57      1.0000 0.19030  0.88620  0.17330  Biso   1.000  O
  O58      1.0000 0.80970  0.11380  0.82670  Biso   1.000  O
  O59      1.0000 0.36330  0.90660  0.22420  Biso   1.000  O
  O60      1.0000 0.63670  0.09340  0.77580  Biso   1.000  O
  O61      1.0000 0.32420  0.03520  0.18320  Biso   1.000  O
  O62      1.0000 0.67580  0.96480  0.81680  Biso   1.000  O
  Cl1      1.0000 0.29150  0.94960  0.22150  Biso   1.000  Cl
  Cl2      1.0000 0.70850  0.05040  0.77850  Biso   1.000  Cl
  O63      1.0000 0.21850  0.36810  0.15280  Biso   1.000  O
  O64      1.0000 0.78150  0.63190  0.84720  Biso   1.000  O
  H101     1.0000 0.23410  0.38100  0.20380  Biso   1.000  H
  H102     1.0000 0.76590  0.61900  0.79620  Biso   1.000  H
  H103     1.0000 0.24860  0.33410  0.13980  Biso   1.000  H
  H104     1.0000 0.75140  0.66590  0.86020  Biso   1.000  H
  O65      1.0000 0.17500  0.33820  0.35980  Biso   1.000  O
  O66      1.0000 0.82500  0.66180  0.64020  Biso   1.000  O
  O67      1.0000 0.03700  0.38550  0.29640  Biso   1.000  O
  O68      1.0000 0.96300  0.61450  0.70360  Biso   1.000  O
  O69      1.0000 0.11800  0.41280  0.42870  Biso   1.000  O
  O70      1.0000 0.88200  0.58720  0.57130  Biso   1.000  O
  O71      1.0000 0.23300  0.50190  0.32300  Biso   1.000  O
  O72      1.0000 0.76700  0.49810  0.67700  Biso   1.000  O
  Cl3      1.0000 0.15490  0.42890  0.35950  Biso   1.000  Cl
  Cl4      1.0000 0.84510  0.57110  0.64050  Biso   1.000  Cl
  O73      1.0000 0.28800  0.54580  0.08410  Biso   1.000  O
  O74      1.0000 0.71200  0.45420  0.91590  Biso   1.000  O
  O75      1.0000 0.43840  0.68820  0.10020  Biso   1.000  O
  O76      1.0000 0.56160  0.31180  0.89980  Biso   1.000  O
  O77      1.0000 0.36220  0.59360  0.97530  Biso   1.000  O
  O78      1.0000 0.63780  0.40640  0.02470  Biso   1.000  O
  O79      1.0000 0.44730  0.54010  0.08050  Biso   1.000  O
  O80      1.0000 0.55270  0.45990  0.91950  Biso   1.000  O
  Cl5      1.0000 0.38430  0.59160  0.06070  Biso   1.000  Cl
  Cl6      1.0000 0.61570  0.40840  0.93930  Biso   1.000  Cl
  O81      1.0000 0.29780  0.27090  0.58580  Biso   1.000  O
  O82      1.0000 0.70220  0.72910  0.41420  Biso   1.000  O
  H105     1.0000 0.30590  0.31470  0.55570  Biso   1.000  H
  H106     1.0000 0.69410  0.68530  0.44430  Biso   1.000  H
  H107     1.0000 0.35650  0.27270  0.61010  Biso   1.000  H
  H108     1.0000 0.64350  0.72730  0.38990  Biso   1.000  H
  O83      1.0000 0.00960  0.22420  0.33050  Biso   1.000  O
  O84      1.0000 0.99040  0.77580  0.66950  Biso   1.000  O
  H109     1.0000 0.97770  0.24090  0.35950  Biso   1.000  H
  H110     1.0000 0.02230  0.75910  0.64050  Biso   1.000  H
  H111     1.0000 0.01050  0.17010  0.34070  Biso   1.000  H
  H112     1.0000 0.98950  0.82990  0.65930  Biso   1.000  H
  O85      1.0000 0.83320  0.89940  0.78100  Biso   1.000  O
  O86      1.0000 0.16680  0.10060  0.21900  Biso   1.000  O
  H113     1.0000 0.87030  0.92130  0.74900  Biso   1.000  H
  H114     1.0000 0.12970  0.07870  0.25100  Biso   1.000  H
  H115     1.0000 0.80460  0.93680  0.78920  Biso   1.000  H
  H116     1.0000 0.19540  0.06320  0.21080  Biso   1.000  H
  O87      1.0000 0.42950  0.58680  0.30940  Biso   1.000  O
  O88      1.0000 0.57050  0.41320  0.69060  Biso   1.000  O
  H117     1.0000 0.43520  0.63590  0.28560  Biso   1.000  H
  H118     1.0000 0.56480  0.36410  0.71440  Biso   1.000  H
  H119     1.0000 0.44330  0.54760  0.28260  Biso   1.000  H
  H120     1.0000 0.55670  0.45240  0.71740  Biso   1.000  H
  O89      1.0000 0.32660  0.30130  0.28670  Biso   1.000  O
  O90      1.0000 0.67340  0.69870  0.71330  Biso   1.000  O
  H121     1.0000 0.37370  0.35580  0.28450  Biso   1.000  H
  H122     1.0000 0.62630  0.64420  0.71550  Biso   1.000  H
  H123     1.0000 0.29560  0.26990  0.23940  Biso   1.000  H
  H124     1.0000 0.70440  0.73010  0.76060  Biso   1.000  H
  O91      1.0000 0.34000  0.54300  0.50100  Biso   1.000  O
  O92      1.0000 0.66000  0.45700  0.49900  Biso   1.000  O
