data_image0
_cell_length_a       14.701
_cell_length_b       15.191
_cell_length_c       17.127
_cell_angle_alpha    92.802
_cell_angle_beta     102.775
_cell_angle_gamma    113.793

_symmetry_space_group_name_H-M    "P 1"
_symmetry_int_tables_number       1

loop_
  _symmetry_equiv_pos_as_xyz
  'x, y, z'

loop_
  _atom_site_label
  _atom_site_occupancy
  _atom_site_fract_x
  _atom_site_fract_y
  _atom_site_fract_z
  _atom_site_thermal_displace_type
  _atom_site_B_iso_or_equiv
  _atom_site_type_symbol
  Tb1      1.0000 0.53092  0.29695  0.43014  Biso   1.000  Tb
  Tb2      1.0000 0.46908  0.70305  0.56986  Biso   1.000  Tb
  Cu1      1.0000 0.70809  0.47233  0.58553  Biso   1.000  Cu
  Cu2      1.0000 0.29191  0.52767  0.41447  Biso   1.000  Cu
  Cu3      1.0000 0.34095  0.35196  0.31707  Biso   1.000  Cu
  Cu4      1.0000 0.65905  0.64804  0.68293  Biso   1.000  Cu
  Cu5      1.0000 0.50000  0.50000  0.50000  Biso   1.000  Cu
  O1       1.0000 0.66050  0.24200  0.38670  Biso   1.000  O
  O2       1.0000 0.33950  0.75800  0.61330  Biso   1.000  O
  O3       1.0000 0.70640  0.38860  0.49380  Biso   1.000  O
  O4       1.0000 0.29360  0.61140  0.50620  Biso   1.000  O
  O5       1.0000 0.71130  0.55050  0.68210  Biso   1.000  O
  O6       1.0000 0.28870  0.44950  0.31790  Biso   1.000  O
  O7       1.0000 0.55630  0.88270  0.62830  Biso   1.000  O
  O8       1.0000 0.44370  0.11730  0.37170  Biso   1.000  O
  O9       1.0000 0.61780  0.75480  0.67850  Biso   1.000  O
  O10      1.0000 0.38220  0.24520  0.32150  Biso   1.000  O
  O11      1.0000 0.47310  0.42360  0.39660  Biso   1.000  O
  O12      1.0000 0.52690  0.57640  0.60340  Biso   1.000  O
  O13      1.0000 0.55690  0.41010  0.54400  Biso   1.000  O
  O14      1.0000 0.44310  0.58990  0.45600  Biso   1.000  O
  O15      1.0000 0.38120  0.22490  0.48230  Biso   1.000  O
  O16      1.0000 0.61880  0.77510  0.51770  Biso   1.000  O
  H1       1.0000 0.39110  0.18880  0.51870  Biso   1.000  H
  H2       1.0000 0.60890  0.81120  0.48130  Biso   1.000  H
  H3       1.0000 0.32680  0.18790  0.44310  Biso   1.000  H
  H4       1.0000 0.67320  0.81210  0.55690  Biso   1.000  H
  O17      1.0000 0.58840  0.36580  0.31810  Biso   1.000  O
  O18      1.0000 0.41160  0.63420  0.68190  Biso   1.000  O
  H5       1.0000 0.65680  0.39410  0.32970  Biso   1.000  H
  H6       1.0000 0.34320  0.60590  0.67030  Biso   1.000  H
  H7       1.0000 0.56610  0.41070  0.30440  Biso   1.000  H
  H8       1.0000 0.43390  0.58930  0.69560  Biso   1.000  H
  O19      1.0000 0.56790  0.21150  0.54040  Biso   1.000  O
  O20      1.0000 0.43210  0.78850  0.45960  Biso   1.000  O
  O21      1.0000 0.69990  0.21540  0.63230  Biso   1.000  O
  O22      1.0000 0.30010  0.78460  0.36770  Biso   1.000  O
  O23      1.0000 0.66180  0.31090  0.66020  Biso   1.000  O
  O24      1.0000 0.33820  0.68910  0.33980  Biso   1.000  O
  N1       1.0000 0.85670  0.53050  0.62830  Biso   1.000  N
  N2       1.0000 0.14330  0.46950  0.37170  Biso   1.000  N
  N3       1.0000 0.78000  0.72020  0.76960  Biso   1.000  N
  N4       1.0000 0.22000  0.27980  0.23040  Biso   1.000  N
  N5       1.0000 0.63500  0.24000  0.60850  Biso   1.000  N
  N6       1.0000 0.36500  0.76000  0.39150  Biso   1.000  N
  C1       1.0000 0.64490  0.18980  0.30740  Biso   1.000  C
  C2       1.0000 0.35510  0.81020  0.69260  Biso   1.000  C
  H9       1.0000 0.63490  0.12400  0.31240  Biso   1.000  H
  H10      1.0000 0.36510  0.87600  0.68760  Biso   1.000  H
  H11      1.0000 0.70440  0.22160  0.28750  Biso   1.000  H
  H12      1.0000 0.29560  0.77840  0.71250  Biso   1.000  H
  H13      1.0000 0.58530  0.18930  0.27030  Biso   1.000  H
  H14      1.0000 0.41470  0.81070  0.72970  Biso   1.000  H
  C3       1.0000 0.76640  0.28970  0.43250  Biso   1.000  C
  C4       1.0000 0.23360  0.71030  0.56750  Biso   1.000  C
  C5       1.0000 0.84260  0.26320  0.42490  Biso   1.000  C
  C6       1.0000 0.15740  0.73680  0.57510  Biso   1.000  C
  H15      1.0000 0.82700  0.21150  0.38520  Biso   1.000  H
  H16      1.0000 0.17300  0.78850  0.61480  Biso   1.000  H
  C7       1.0000 0.93490  0.30680  0.47030  Biso   1.000  C
  C8       1.0000 0.06510  0.69320  0.52970  Biso   1.000  C
  H17      1.0000 0.98440  0.28630  0.46260  Biso   1.000  H
  H18      1.0000 0.01560  0.71370  0.53740  Biso   1.000  H
  C9       1.0000 0.96240  0.38460  0.53100  Biso   1.000  C
  C10      1.0000 0.03760  0.61540  0.46900  Biso   1.000  C
  H19      1.0000 0.02970  0.41570  0.56340  Biso   1.000  H
  H20      1.0000 0.97030  0.58430  0.43660  Biso   1.000  H
  C11      1.0000 0.88620  0.41650  0.54310  Biso   1.000  C
  C12      1.0000 0.11380  0.58350  0.45690  Biso   1.000  C
  C13      1.0000 0.78260  0.36590  0.49130  Biso   1.000  C
  C14      1.0000 0.21740  0.63410  0.50870  Biso   1.000  C
  C15      1.0000 0.91500  0.49810  0.60650  Biso   1.000  C
  C16      1.0000 0.08500  0.50190  0.39350  Biso   1.000  C
  H21      1.0000 0.98450  0.52970  0.63390  Biso   1.000  H
  H22      1.0000 0.01550  0.47030  0.36610  Biso   1.000  H
  C17      1.0000 0.88730  0.60320  0.69370  Biso   1.000  C
  C18      1.0000 0.11270  0.39680  0.30630  Biso   1.000  C
  H23      1.0000 0.89680  0.66460  0.67460  Biso   1.000  H
  H24      1.0000 0.10320  0.33540  0.32540  Biso   1.000  H
  H25      1.0000 0.95230  0.61100  0.72920  Biso   1.000  H
  H26      1.0000 0.04770  0.38900  0.27080  Biso   1.000  H
  C19      1.0000 0.80610  0.57530  0.73890  Biso   1.000  C
  C20      1.0000 0.19390  0.42470  0.26110  Biso   1.000  C
  H27      1.0000 0.80360  0.51750  0.76300  Biso   1.000  H
  H28      1.0000 0.19640  0.48250  0.23700  Biso   1.000  H
  C21      1.0000 0.51850  0.95380  0.59600  Biso   1.000  C
  C22      1.0000 0.48150  0.04620  0.40400  Biso   1.000  C
  H29      1.0000 0.55970  0.98930  0.56190  Biso   1.000  H
  H30      1.0000 0.44030  0.01070  0.43810  Biso   1.000  H
  H31      1.0000 0.52330  0.99830  0.64010  Biso   1.000  H
  H32      1.0000 0.47670  0.00170  0.35990  Biso   1.000  H
  H33      1.0000 0.44800  0.91990  0.56490  Biso   1.000  H
  H34      1.0000 0.55200  0.08010  0.43510  Biso   1.000  H
  C23      1.0000 0.65350  0.92040  0.67990  Biso   1.000  C
  C24      1.0000 0.34650  0.07960  0.32010  Biso   1.000  C
  C25      1.0000 0.71390  0.01440  0.70270  Biso   1.000  C
  C26      1.0000 0.28610  0.98560  0.29730  Biso   1.000  C
  H35      1.0000 0.69010  0.06010  0.68520  Biso   1.000  H
  H36      1.0000 0.30990  0.93990  0.31480  Biso   1.000  H
  C27      1.0000 0.81560  0.04610  0.75420  Biso   1.000  C
  C28      1.0000 0.18440  0.95390  0.24580  Biso   1.000  C
  H37      1.0000 0.85970  0.11210  0.76750  Biso   1.000  H
  H38      1.0000 0.14030  0.88790  0.23250  Biso   1.000  H
  C29      1.0000 0.84720  0.97840  0.78380  Biso   1.000  C
  C30      1.0000 0.15280  0.02160  0.21620  Biso   1.000  C
  H39      1.0000 0.91080  0.99850  0.82130  Biso   1.000  H
  H40      1.0000 0.08920  0.00150  0.17870  Biso   1.000  H
  C31      1.0000 0.78480  0.87930  0.75810  Biso   1.000  C
  C32      1.0000 0.21520  0.12070  0.24190  Biso   1.000  C
  C33      1.0000 0.68640  0.84930  0.70670  Biso   1.000  C
  C34      1.0000 0.31360  0.15070  0.29330  Biso   1.000  C
  C35      1.0000 0.82610  0.81120  0.78910  Biso   1.000  C
  C36      1.0000 0.17390  0.18880  0.21090  Biso   1.000  C
  H41      1.0000 0.89090  0.83700  0.82580  Biso   1.000  H
  H42      1.0000 0.10910  0.16300  0.17420  Biso   1.000  H
  C37      1.0000 0.82090  0.65280  0.80500  Biso   1.000  C
  C38      1.0000 0.17910  0.34720  0.19500  Biso   1.000  C
  H43      1.0000 0.78520  0.62290  0.84470  Biso   1.000  H
  H44      1.0000 0.21480  0.37710  0.15530  Biso   1.000  H
  H45      1.0000 0.89360  0.68840  0.83220  Biso   1.000  H
  H46      1.0000 0.10640  0.31160  0.16780  Biso   1.000  H
  Tb3      1.0000 0.58707  0.34159  0.93289  Biso   1.000  Tb
  Tb4      1.0000 0.41293  0.65841  0.06711  Biso   1.000  Tb
  Cu6      1.0000 0.23601  0.43545  0.96211  Biso   1.000  Cu
  Cu7      1.0000 0.76399  0.56455  0.03789  Biso   1.000  Cu
  Cu8      1.0000 0.34991  0.28222  0.95908  Biso   1.000  Cu
  Cu9      1.0000 0.65009  0.71778  0.04092  Biso   1.000  Cu
  Cu10     1.0000 0.50000  0.50000  0.00000  Biso   1.000  Cu
  O25      1.0000 0.29000  0.70680  0.11930  Biso   1.000  O
  O26      1.0000 0.71000  0.29320  0.88070  Biso   1.000  O
  O27      1.0000 0.23950  0.54660  0.02380  Biso   1.000  O
  O28      1.0000 0.76050  0.45340  0.97620  Biso   1.000  O
  O29      1.0000 0.23460  0.31230  0.91880  Biso   1.000  O
  O30      1.0000 0.76540  0.68770  0.08120  Biso   1.000  O
  O31      1.0000 0.46480  0.25190  0.99620  Biso   1.000  O
  O32      1.0000 0.53520  0.74810  0.00380  Biso   1.000  O
  O33      1.0000 0.63320  0.23600  0.02640  Biso   1.000  O
  O34      1.0000 0.36680  0.76400  0.97360  Biso   1.000  O
  O35      1.0000 0.45030  0.38640  0.91630  Biso   1.000  O
  O36      1.0000 0.54970  0.61360  0.08370  Biso   1.000  O
  O37      1.0000 0.37700  0.52570  0.96000  Biso   1.000  O
  O38      1.0000 0.62300  0.47430  0.04000  Biso   1.000  O
  O39      1.0000 0.60150  0.40480  0.81370  Biso   1.000  O
  O40      1.0000 0.39850  0.59520  0.18630  Biso   1.000  O
  H47      1.0000 0.58880  0.46070  0.81050  Biso   1.000  H
  H48      1.0000 0.41120  0.53930  0.18950  Biso   1.000  H
  H49      1.0000 0.55530  0.36090  0.76720  Biso   1.000  H
  H50      1.0000 0.44470  0.63910  0.23280  Biso   1.000  H
  O41      1.0000 0.47960  0.19880  0.83960  Biso   1.000  O
  O42      1.0000 0.52040  0.80120  0.16040  Biso   1.000  O
  H51      1.0000 0.48630  0.20640  0.78940  Biso   1.000  H
  H52      1.0000 0.51370  0.79360  0.21060  Biso   1.000  H
  H53      1.0000 0.41330  0.18170  0.83740  Biso   1.000  H
  H54      1.0000 0.58670  0.81830  0.16260  Biso   1.000  H
  N7       1.0000 0.09570  0.35500  0.96710  Biso   1.000  N
  N8       1.0000 0.90430  0.64500  0.03290  Biso   1.000  N
  N9       1.0000 0.26250  0.18550  0.01260  Biso   1.000  N
  N10      1.0000 0.73750  0.81450  0.98740  Biso   1.000  N
  C39      1.0000 0.30530  0.80290  0.15240  Biso   1.000  C
  C40      1.0000 0.69470  0.19710  0.84760  Biso   1.000  C
  H55      1.0000 0.32160  0.80970  0.21040  Biso   1.000  H
  H56      1.0000 0.67840  0.19030  0.78960  Biso   1.000  H
  H57      1.0000 0.24340  0.81130  0.13230  Biso   1.000  H
  H58      1.0000 0.75660  0.18870  0.86770  Biso   1.000  H
  H59      1.0000 0.36090  0.85130  0.13620  Biso   1.000  H
  H60      1.0000 0.63910  0.14870  0.86380  Biso   1.000  H
  C41      1.0000 0.19750  0.63160  0.12170  Biso   1.000  C
  C42      1.0000 0.80250  0.36840  0.87830  Biso   1.000  C
  C43      1.0000 0.13720  0.63730  0.16990  Biso   1.000  C
  C44      1.0000 0.86280  0.36270  0.83010  Biso   1.000  C
  H61      1.0000 0.15600  0.69420  0.20480  Biso   1.000  H
  H62      1.0000 0.84400  0.30580  0.79520  Biso   1.000  H
  C45      1.0000 0.04510  0.55410  0.16530  Biso   1.000  C
  C46      1.0000 0.95490  0.44590  0.83470  Biso   1.000  C
  H63      1.0000 0.00290  0.55580  0.19800  Biso   1.000  H
  H64      1.0000 0.99710  0.44420  0.80200  Biso   1.000  H
  C47      1.0000 0.01780  0.47190  0.11360  Biso   1.000  C
  C48      1.0000 0.98220  0.52810  0.88640  Biso   1.000  C
  H65      1.0000 0.95650  0.41810  0.11080  Biso   1.000  H
  H66      1.0000 0.04350  0.58190  0.88920  Biso   1.000  H
  C49      1.0000 0.08070  0.46670  0.06430  Biso   1.000  C
  C50      1.0000 0.91930  0.53330  0.93570  Biso   1.000  C
  C51      1.0000 0.17240  0.54380  0.06660  Biso   1.000  C
  C52      1.0000 0.82760  0.45620  0.93340  Biso   1.000  C
  C53      1.0000 0.04550  0.37330  0.01100  Biso   1.000  C
  C54      1.0000 0.95450  0.62670  0.98900  Biso   1.000  C
  H67      1.0000 0.98140  0.32450  0.00980  Biso   1.000  H
  H68      1.0000 0.01860  0.67550  0.99020  Biso   1.000  H
  C55      1.0000 0.05560  0.26180  0.91510  Biso   1.000  C
  C56      1.0000 0.94440  0.73820  0.08490  Biso   1.000  C
  H69      1.0000 0.02930  0.26810  0.85950  Biso   1.000  H
  H70      1.0000 0.97070  0.73190  0.14050  Biso   1.000  H
  H71      1.0000 0.99950  0.21370  0.93220  Biso   1.000  H
  H72      1.0000 0.00050  0.78630  0.06780  Biso   1.000  H
  C57      1.0000 0.14130  0.22950  0.92060  Biso   1.000  C
  C58      1.0000 0.85870  0.77050  0.07940  Biso   1.000  C
  H73      1.0000 0.12220  0.17920  0.87440  Biso   1.000  H
  H74      1.0000 0.87780  0.82080  0.12560  Biso   1.000  H
  C59      1.0000 0.16360  0.18990  0.99910  Biso   1.000  C
  C60      1.0000 0.83640  0.81010  0.00090  Biso   1.000  C
  H75      1.0000 0.16440  0.23170  0.04410  Biso   1.000  H
  H76      1.0000 0.83560  0.76830  0.95590  Biso   1.000  H
  H77      1.0000 0.10980  0.12530  0.99590  Biso   1.000  H
  H78      1.0000 0.89020  0.87470  0.00410  Biso   1.000  H
  C61      1.0000 0.28570  0.12690  0.05180  Biso   1.000  C
  C62      1.0000 0.71430  0.87310  0.94820  Biso   1.000  C
  H79      1.0000 0.23590  0.08360  0.07360  Biso   1.000  H
  H80      1.0000 0.76410  0.91640  0.92640  Biso   1.000  H
  C63      1.0000 0.38360  0.12070  0.06610  Biso   1.000  C
  C64      1.0000 0.61640  0.87930  0.93390  Biso   1.000  C
  C65      1.0000 0.39820  0.05030  0.11410  Biso   1.000  C
  C66      1.0000 0.60180  0.94970  0.88590  Biso   1.000  C
  H81      1.0000 0.34530  0.01170  0.13570  Biso   1.000  H
  H82      1.0000 0.65470  0.98830  0.86430  Biso   1.000  H
  C67      1.0000 0.48750  0.03820  0.12930  Biso   1.000  C
  C68      1.0000 0.51250  0.96180  0.87070  Biso   1.000  C
  H83      1.0000 0.49360  0.98930  0.15760  Biso   1.000  H
  H84      1.0000 0.50640  0.01070  0.84240  Biso   1.000  H
  C69      1.0000 0.56870  0.10040  0.10150  Biso   1.000  C
  C70      1.0000 0.43130  0.89960  0.89850  Biso   1.000  C
  H85      1.0000 0.63050  0.09400  0.11360  Biso   1.000  H
  H86      1.0000 0.36950  0.90600  0.88640  Biso   1.000  H
  C71      1.0000 0.56090  0.17140  0.05650  Biso   1.000  C
  C72      1.0000 0.43910  0.82860  0.94350  Biso   1.000  C
  C73      1.0000 0.46550  0.18080  0.03840  Biso   1.000  C
  C74      1.0000 0.53450  0.81920  0.96160  Biso   1.000  C
  C75      1.0000 0.73490  0.23930  0.05540  Biso   1.000  C
  C76      1.0000 0.26510  0.76070  0.94460  Biso   1.000  C
  H87      1.0000 0.73340  0.17760  0.03790  Biso   1.000  H
  H88      1.0000 0.26660  0.82240  0.96210  Biso   1.000  H
  H89      1.0000 0.75580  0.25300  0.11350  Biso   1.000  H
  H90      1.0000 0.24420  0.74700  0.88650  Biso   1.000  H
  H91      1.0000 0.78290  0.28950  0.03400  Biso   1.000  H
  H92      1.0000 0.21710  0.71050  0.96600  Biso   1.000  H
  O43      1.0000 0.39250  0.41140  0.08590  Biso   1.000  O
  O44      1.0000 0.60750  0.58860  0.91410  Biso   1.000  O
  O45      1.0000 0.43300  0.43930  0.21780  Biso   1.000  O
  O46      1.0000 0.56700  0.56070  0.78220  Biso   1.000  O
  O47      1.0000 0.46780  0.33450  0.15780  Biso   1.000  O
  O48      1.0000 0.53220  0.66550  0.84220  Biso   1.000  O
  N11      1.0000 0.42950  0.39570  0.14990  Biso   1.000  N
  N12      1.0000 0.57050  0.60430  0.85010  Biso   1.000  N
  O49      1.0000 0.80480  0.66640  0.44640  Biso   1.000  O
  O50      1.0000 0.19520  0.33360  0.55360  Biso   1.000  O
  O51      1.0000 0.68400  0.59810  0.49990  Biso   1.000  O
  O52      1.0000 0.31600  0.40190  0.50010  Biso   1.000  O
  O53      1.0000 0.63110  0.59000  0.36760  Biso   1.000  O
  O54      1.0000 0.36890  0.41000  0.63240  Biso   1.000  O
  N13      1.0000 0.70990  0.62150  0.43830  Biso   1.000  N
  N14      1.0000 0.29010  0.37850  0.56170  Biso   1.000  N
  Cl1      1.0000 0.21060  0.55100  0.77700  Biso   1.000  Cl
  Cl2      1.0000 0.78940  0.44900  0.22300  Biso   1.000  Cl
  O55      1.0000 0.14110  0.59900  0.77330  Biso   1.000  O
  O56      1.0000 0.85890  0.40100  0.22670  Biso   1.000  O
  O57      1.0000 0.20970  0.52970  0.69760  Biso   1.000  O
  O58      1.0000 0.79030  0.47030  0.30240  Biso   1.000  O
  O59      1.0000 0.17610  0.46390  0.81540  Biso   1.000  O
  O60      1.0000 0.82390  0.53610  0.18460  Biso   1.000  O
  O61      1.0000 0.31000  0.60990  0.82580  Biso   1.000  O
  O62      1.0000 0.69000  0.39010  0.17420  Biso   1.000  O
  O63      1.0000 0.28580  0.13880  0.84360  Biso   1.000  O
  O64      1.0000 0.71420  0.86120  0.15640  Biso   1.000  O
  H93      1.0000 0.28950  0.14160  0.79490  Biso   1.000  H
  H94      1.0000 0.71050  0.85840  0.20510  Biso   1.000  H
  H95      1.0000 0.24960  0.16730  0.85390  Biso   1.000  H
  H96      1.0000 0.75040  0.83270  0.14610  Biso   1.000  H
  Cl3      1.0000 0.64310  0.92810  0.35700  Biso   1.000  Cl
  Cl4      1.0000 0.35690  0.07190  0.64300  Biso   1.000  Cl
  O65      1.0000 0.66100  0.83590  0.36280  Biso   1.000  O
  O66      1.0000 0.33900  0.16410  0.63720  Biso   1.000  O
  O67      1.0000 0.64000  0.95200  0.44000  Biso   1.000  O
  O68      1.0000 0.36000  0.04800  0.56000  Biso   1.000  O
  O69      1.0000 0.53240  0.88100  0.31190  Biso   1.000  O
  O70      1.0000 0.46760  0.11900  0.68810  Biso   1.000  O
  O71      1.0000 0.71500  0.00300  0.31810  Biso   1.000  O
  O72      1.0000 0.28500  0.99700  0.68190  Biso   1.000  O
  Cl5      1.0000 0.88280  0.09600  0.07450  Biso   1.000  Cl
  Cl6      1.0000 0.11720  0.90400  0.92550  Biso   1.000  Cl
  O73      1.0000 0.94100  0.04150  0.08750  Biso   1.000  O
  O74      1.0000 0.05900  0.95850  0.91250  Biso   1.000  O
  O75      1.0000 0.93300  0.18870  0.11620  Biso   1.000  O
  O76      1.0000 0.06700  0.81130  0.88380  Biso   1.000  O
  O77      1.0000 0.78660  0.04480  0.09180  Biso   1.000  O
  O78      1.0000 0.21340  0.95520  0.90820  Biso   1.000  O
  O79      1.0000 0.85920  0.10450  0.98780  Biso   1.000  O
  O80      1.0000 0.14080  0.89550  0.01220  Biso   1.000  O
  O81      1.0000 0.89800  0.71500  0.30700  Biso   1.000  O
  O82      1.0000 0.10200  0.28500  0.69300  Biso   1.000  O
  H97      1.0000 0.86620  0.65760  0.31630  Biso   1.000  H
  H98      1.0000 0.13380  0.34240  0.68370  Biso   1.000  H
  H99      1.0000 0.86890  0.72060  0.26000  Biso   1.000  H
  H100     1.0000 0.13110  0.27940  0.74000  Biso   1.000  H
  O83      1.0000 0.80320  0.77220  0.59200  Biso   1.000  O
  O84      1.0000 0.19680  0.22780  0.40800  Biso   1.000  O
  H101     1.0000 0.75810  0.75400  0.54670  Biso   1.000  H
  H102     1.0000 0.24190  0.24600  0.45330  Biso   1.000  H
  H103     1.0000 0.86300  0.79950  0.58440  Biso   1.000  H
  H104     1.0000 0.13700  0.20050  0.41560  Biso   1.000  H
  O85      1.0000 0.82600  0.83700  0.29200  Biso   1.000  O
  O86      1.0000 0.17400  0.16300  0.70800  Biso   1.000  O
  H105     1.0000 0.86410  0.83290  0.33590  Biso   1.000  H
  H106     1.0000 0.13590  0.16710  0.66410  Biso   1.000  H
  H107     1.0000 0.76740  0.78880  0.28120  Biso   1.000  H
  H108     1.0000 0.23260  0.21120  0.71880  Biso   1.000  H
  O87      1.0000 0.97000  0.09900  0.32000  Biso   1.000  O
  O88      1.0000 0.03000  0.90100  0.68000  Biso   1.000  O
  H109     1.0000 0.94140  0.13780  0.32090  Biso   1.000  H
  H110     1.0000 0.05860  0.86220  0.67910  Biso   1.000  H
  H111     1.0000 0.99560  0.09440  0.36860  Biso   1.000  H
  H112     1.0000 0.00440  0.90560  0.63140  Biso   1.000  H
  O89      1.0000 0.50300  0.67800  0.33100  Biso   1.000  O
  O90      1.0000 0.49700  0.32200  0.66900  Biso   1.000  O
  H113     1.0000 0.44530  0.63000  0.32500  Biso   1.000  H
  H114     1.0000 0.55470  0.37000  0.67500  Biso   1.000  H
  H115     1.0000 0.49570  0.73090  0.33700  Biso   1.000  H
  H116     1.0000 0.50430  0.26910  0.66300  Biso   1.000  H
  O91      1.0000 0.66150  0.59750  0.22160  Biso   1.000  O
  O92      1.0000 0.33850  0.40250  0.77840  Biso   1.000  O
  H117     1.0000 0.66400  0.63080  0.26400  Biso   1.000  H
  H118     1.0000 0.33600  0.36920  0.73600  Biso   1.000  H
  H119     1.0000 0.71700  0.59030  0.22800  Biso   1.000  H
  H120     1.0000 0.28300  0.40970  0.77200  Biso   1.000  H
  O93      1.0000 0.10100  0.74600  0.31800  Biso   1.000  O
  O94      1.0000 0.89900  0.25400  0.68200  Biso   1.000  O
  O95      1.0000 0.11000  0.94700  0.45700  Biso   1.000  O
  O96      1.0000 0.89000  0.05300  0.54300  Biso   1.000  O
