data_image0
_cell_length_a       14.509
_cell_length_b       15.262
_cell_length_c       16.916
_cell_angle_alpha    93.812
_cell_angle_beta     100.88
_cell_angle_gamma    113.709

_symmetry_space_group_name_H-M    "P 1"
_symmetry_int_tables_number       1

loop_
  _symmetry_equiv_pos_as_xyz
  'x, y, z'

loop_
  _atom_site_label
  _atom_site_occupancy
  _atom_site_fract_x
  _atom_site_fract_y
  _atom_site_fract_z
  _atom_site_thermal_displace_type
  _atom_site_B_iso_or_equiv
  _atom_site_type_symbol
  C1       1.0000 0.70120  0.69990  0.84580  Biso   1.000  C
  C2       1.0000 0.29880  0.30010  0.15420  Biso   1.000  C
  H1       1.0000 0.68773  0.69253  0.78624  Biso   1.000  H
  H2       1.0000 0.31227  0.30747  0.21376  Biso   1.000  H
  H3       1.0000 0.64219  0.65118  0.86184  Biso   1.000  H
  H4       1.0000 0.35781  0.34882  0.13816  Biso   1.000  H
  H5       1.0000 0.76385  0.69088  0.86743  Biso   1.000  H
  H6       1.0000 0.23615  0.30912  0.13257  Biso   1.000  H
  C3       1.0000 0.80510  0.87030  0.87360  Biso   1.000  C
  C4       1.0000 0.19490  0.12970  0.12640  Biso   1.000  C
  C5       1.0000 0.86750  0.86380  0.82570  Biso   1.000  C
  C6       1.0000 0.13250  0.13620  0.17430  Biso   1.000  C
  H7       1.0000 0.85013  0.80479  0.79157  Biso   1.000  H
  H8       1.0000 0.14987  0.19521  0.20843  Biso   1.000  H
  C7       1.0000 0.96130  0.94870  0.82770  Biso   1.000  C
  C8       1.0000 0.03870  0.05130  0.17230  Biso   1.000  C
  H9       1.0000 0.00444  0.94702  0.79232  Biso   1.000  H
  H10      1.0000 0.99556  0.05298  0.20768  Biso   1.000  H
  C9       1.0000 0.98690  0.02900  0.87900  Biso   1.000  C
  C10      1.0000 0.01310  0.97100  0.12100  Biso   1.000  C
  H11      1.0000 0.04984  0.08323  0.88018  Biso   1.000  H
  H12      1.0000 0.95016  0.91677  0.11982  Biso   1.000  H
  C11      1.0000 0.92390  0.03830  0.93310  Biso   1.000  C
  C12      1.0000 0.07610  0.96170  0.06690  Biso   1.000  C
  C13      1.0000 0.83150  0.95510  0.92940  Biso   1.000  C
  C14      1.0000 0.16850  0.04490  0.07060  Biso   1.000  C
  C15      1.0000 0.95870  0.12580  0.98660  Biso   1.000  C
  C16      1.0000 0.04130  0.87420  0.01340  Biso   1.000  C
  H13      1.0000 0.02533  0.17497  0.98816  Biso   1.000  H
  H14      1.0000 0.97467  0.82503  0.01184  Biso   1.000  H
  C17      1.0000 0.85870  0.26960  0.08090  Biso   1.000  C
  C18      1.0000 0.14130  0.73040  0.91910  Biso   1.000  C
  H15      1.0000 0.87612  0.32015  0.12884  Biso   1.000  H
  H16      1.0000 0.12388  0.67985  0.87116  Biso   1.000  H
  C19      1.0000 0.84430  0.31200  0.00250  Biso   1.000  C
  C20      1.0000 0.15570  0.68800  0.99750  Biso   1.000  C
  H17      1.0000 0.89964  0.37806  0.00772  Biso   1.000  H
  H18      1.0000 0.10036  0.62194  0.99228  Biso   1.000  H
  H19      1.0000 0.84591  0.27069  0.95561  Biso   1.000  H
  H20      1.0000 0.15409  0.72931  0.04439  Biso   1.000  H
  C21      1.0000 0.71770  0.37460  0.94990  Biso   1.000  C
  C22      1.0000 0.28230  0.62540  0.05010  Biso   1.000  C
  H21      1.0000 0.76838  0.41734  0.92546  Biso   1.000  H
  H22      1.0000 0.23162  0.58266  0.07454  Biso   1.000  H
  C23      1.0000 0.62160  0.38110  0.93810  Biso   1.000  C
  C24      1.0000 0.37840  0.61890  0.06190  Biso   1.000  C
  C25      1.0000 0.61060  0.45090  0.89350  Biso   1.000  C
  C26      1.0000 0.38940  0.54910  0.10650  Biso   1.000  C
  H23      1.0000 0.66786  0.49376  0.87510  Biso   1.000  H
  H24      1.0000 0.33214  0.50624  0.12490  Biso   1.000  H
  C27      1.0000 0.51570  0.45890  0.87510  Biso   1.000  C
  C28      1.0000 0.48430  0.54110  0.12490  Biso   1.000  C
  H25      1.0000 0.50837  0.50626  0.84393  Biso   1.000  H
  H26      1.0000 0.49163  0.49374  0.15607  Biso   1.000  H
  C29      1.0000 0.43540  0.39840  0.90240  Biso   1.000  C
  C30      1.0000 0.56460  0.60160  0.09760  Biso   1.000  C
  H27      1.0000 0.37212  0.40505  0.89077  Biso   1.000  H
  H28      1.0000 0.62788  0.59495  0.10923  Biso   1.000  H
  C31      1.0000 0.44130  0.32820  0.94590  Biso   1.000  C
  C32      1.0000 0.55870  0.67180  0.05410  Biso   1.000  C
  C33      1.0000 0.53610  0.31920  0.96400  Biso   1.000  C
  C34      1.0000 0.46390  0.68080  0.03600  Biso   1.000  C
  C35      1.0000 0.26300  0.25220  0.94730  Biso   1.000  C
  C36      1.0000 0.73700  0.74780  0.05270  Biso   1.000  C
  H29      1.0000 0.25904  0.31270  0.96535  Biso   1.000  H
  H30      1.0000 0.74096  0.68730  0.03465  Biso   1.000  H
  H31      1.0000 0.21521  0.19903  0.96916  Biso   1.000  H
  H32      1.0000 0.78479  0.80097  0.03084  Biso   1.000  H
  H33      1.0000 0.24405  0.23825  0.88764  Biso   1.000  H
  H34      1.0000 0.75595  0.76175  0.11236  Biso   1.000  H
  C37      1.0000 0.63300  0.67800  0.30380  Biso   1.000  C
  C38      1.0000 0.36700  0.32200  0.69620  Biso   1.000  C
  H35      1.0000 0.67868  0.71781  0.27201  Biso   1.000  H
  H36      1.0000 0.32132  0.28219  0.72799  Biso   1.000  H
  H37      1.0000 0.56049  0.65947  0.27595  Biso   1.000  H
  H38      1.0000 0.43951  0.34053  0.72405  Biso   1.000  H
  H39      1.0000 0.64402  0.61883  0.30904  Biso   1.000  H
  H40      1.0000 0.35598  0.38117  0.69096  Biso   1.000  H
  C39      1.0000 0.75970  0.78010  0.42850  Biso   1.000  C
  C40      1.0000 0.24030  0.21990  0.57150  Biso   1.000  C
  C41      1.0000 0.83450  0.75370  0.41510  Biso   1.000  C
  C42      1.0000 0.16550  0.24630  0.58490  Biso   1.000  C
  H41      1.0000 0.81912  0.70312  0.37204  Biso   1.000  H
  H42      1.0000 0.18088  0.29688  0.62796  Biso   1.000  H
  C43      1.0000 0.93320  0.80020  0.46410  Biso   1.000  C
  C44      1.0000 0.06680  0.19980  0.53590  Biso   1.000  C
  H43      1.0000 0.98485  0.77895  0.45736  Biso   1.000  H
  H44      1.0000 0.01515  0.22105  0.54264  Biso   1.000  H
  C45      1.0000 0.95670  0.87880  0.52360  Biso   1.000  C
  C46      1.0000 0.04330  0.12120  0.47640  Biso   1.000  C
  H45      1.0000 0.02551  0.91276  0.55582  Biso   1.000  H
  H46      1.0000 0.97449  0.08724  0.44418  Biso   1.000  H
  C47      1.0000 0.88200  0.90720  0.53590  Biso   1.000  C
  C48      1.0000 0.11800  0.09280  0.46410  Biso   1.000  C
  C49      1.0000 0.78060  0.86060  0.48890  Biso   1.000  C
  C50      1.0000 0.21940  0.13940  0.51110  Biso   1.000  C
  C51      1.0000 0.91660  0.98880  0.60090  Biso   1.000  C
  C52      1.0000 0.08340  0.01120  0.39910  Biso   1.000  C
  H47      1.0000 0.98754  0.01827  0.62912  Biso   1.000  H
  H48      1.0000 0.01246  0.98173  0.37088  Biso   1.000  H
  C53      1.0000 0.88840  0.10300  0.69240  Biso   1.000  C
  C54      1.0000 0.11160  0.89700  0.30760  Biso   1.000  C
  H49      1.0000 0.89946  0.16539  0.67288  Biso   1.000  H
  H50      1.0000 0.10054  0.83461  0.32712  Biso   1.000  H
  H51      1.0000 0.95399  0.10999  0.72851  Biso   1.000  H
  H52      1.0000 0.04601  0.89001  0.27149  Biso   1.000  H
  C55      1.0000 0.80250  0.07400  0.73750  Biso   1.000  C
  C56      1.0000 0.19750  0.92600  0.26250  Biso   1.000  C
  H53      1.0000 0.80059  0.01600  0.76255  Biso   1.000  H
  H54      1.0000 0.19941  0.98400  0.23745  Biso   1.000  H
  C57      1.0000 0.81930  0.15310  0.80560  Biso   1.000  C
  C58      1.0000 0.18070  0.84690  0.19440  Biso   1.000  C
  H55      1.0000 0.78182  0.12444  0.84736  Biso   1.000  H
  H56      1.0000 0.21818  0.87556  0.15264  Biso   1.000  H
  H57      1.0000 0.89397  0.18864  0.83213  Biso   1.000  H
  H58      1.0000 0.10603  0.81136  0.16787  Biso   1.000  H
  C59      1.0000 0.82770  0.30900  0.79060  Biso   1.000  C
  C60      1.0000 0.17230  0.69100  0.20940  Biso   1.000  C
  H59      1.0000 0.89296  0.33479  0.82866  Biso   1.000  H
  H60      1.0000 0.10704  0.66521  0.17134  Biso   1.000  H
  C61      1.0000 0.78550  0.37790  0.75850  Biso   1.000  C
  C62      1.0000 0.21450  0.62210  0.24150  Biso   1.000  C
  C63      1.0000 0.85130  0.47510  0.78170  Biso   1.000  C
  C64      1.0000 0.14870  0.52490  0.21830  Biso   1.000  C
  H61      1.0000 0.91694  0.49369  0.81797  Biso   1.000  H
  H62      1.0000 0.08306  0.50631  0.18203  Biso   1.000  H
  C65      1.0000 0.82340  0.54580  0.75330  Biso   1.000  C
  C66      1.0000 0.17660  0.45420  0.24670  Biso   1.000  C
  H63      1.0000 0.87002  0.61241  0.76772  Biso   1.000  H
  H64      1.0000 0.12998  0.38759  0.23228  Biso   1.000  H
  C67      1.0000 0.72940  0.51800  0.70500  Biso   1.000  C
  C68      1.0000 0.27060  0.48200  0.29500  Biso   1.000  C
  H65      1.0000 0.70724  0.56542  0.68668  Biso   1.000  H
  H66      1.0000 0.29276  0.43458  0.31332  Biso   1.000  H
  C69      1.0000 0.66270  0.41880  0.68090  Biso   1.000  C
  C70      1.0000 0.33730  0.58120  0.31910  Biso   1.000  C
  C71      1.0000 0.68810  0.34810  0.70460  Biso   1.000  C
  C72      1.0000 0.31190  0.65190  0.29540  Biso   1.000  C
  C73      1.0000 0.53170  0.45730  0.59460  Biso   1.000  C
  C74      1.0000 0.46830  0.54270  0.40540  Biso   1.000  C
  H67      1.0000 0.52193  0.49542  0.63859  Biso   1.000  H
  H68      1.0000 0.47807  0.50458  0.36141  Biso   1.000  H
  H69      1.0000 0.46664  0.42487  0.55294  Biso   1.000  H
  H70      1.0000 0.53336  0.57513  0.44706  Biso   1.000  H
  H71      1.0000 0.58573  0.50028  0.57020  Biso   1.000  H
  H72      1.0000 0.41427  0.49972  0.42980  Biso   1.000  H
  N1       1.0000 0.90610  0.14300  0.03330  Biso   1.000  N
  N2       1.0000 0.09390  0.85700  0.96670  Biso   1.000  N
  N3       1.0000 0.74320  0.31440  0.99180  Biso   1.000  N
  N4       1.0000 0.25680  0.68560  0.00820  Biso   1.000  N
  N5       1.0000 0.56960  0.11070  0.84700  Biso   1.000  N
  N6       1.0000 0.43040  0.88930  0.15300  Biso   1.000  N
  N7       1.0000 0.85360  0.02340  0.62210  Biso   1.000  N
  N8       1.0000 0.14640  0.97660  0.37790  Biso   1.000  N
  N9       1.0000 0.78030  0.21760  0.76930  Biso   1.000  N
  N10      1.0000 0.21970  0.78240  0.23070  Biso   1.000  N
  N11      1.0000 0.62390  0.74810  0.61790  Biso   1.000  N
  N12      1.0000 0.37610  0.25190  0.38210  Biso   1.000  N
  N13      1.0000 0.72000  0.11000  0.44110  Biso   1.000  N
  N14      1.0000 0.28000  0.89000  0.55890  Biso   1.000  N
  O1       1.0000 0.71530  0.79360  0.87760  Biso   1.000  O
  O2       1.0000 0.28470  0.20640  0.12240  Biso   1.000  O
  O3       1.0000 0.76400  0.95170  0.97430  Biso   1.000  O
  O4       1.0000 0.23600  0.04830  0.02570  Biso   1.000  O
  O5       1.0000 0.76540  0.18750  0.08220  Biso   1.000  O
  O6       1.0000 0.23460  0.81250  0.91780  Biso   1.000  O
  O7       1.0000 0.53750  0.24760  0.00610  Biso   1.000  O
  O8       1.0000 0.46250  0.75240  0.99390  Biso   1.000  O
  O9       1.0000 0.36530  0.26190  0.97600  Biso   1.000  O
  O10      1.0000 0.63470  0.73810  0.02400  Biso   1.000  O
  O11      1.0000 0.62000  0.97320  0.03720  Biso   1.000  O
  O12      1.0000 0.38000  0.02680  0.96280  Biso   1.000  O
  O13      1.0000 0.54850  0.11360  0.08500  Biso   1.000  O
  O14      1.0000 0.45150  0.88640  0.91500  Biso   1.000  O
  O15      1.0000 0.60780  0.90590  0.81090  Biso   1.000  O
  O16      1.0000 0.39220  0.09410  0.18910  Biso   1.000  O
  H73      1.0000 0.67262  0.94564  0.81296  Biso   1.000  H
  H74      1.0000 0.32738  0.05436  0.18704  Biso   1.000  H
  H75      1.0000 0.57559  0.94404  0.80427  Biso   1.000  H
  H76      1.0000 0.42441  0.05596  0.19573  Biso   1.000  H
  O17      1.0000 0.48210  0.70060  0.83520  Biso   1.000  O
  O18      1.0000 0.51790  0.29940  0.16480  Biso   1.000  O
  H77      1.0000 0.47964  0.71136  0.78254  Biso   1.000  H
  H78      1.0000 0.52036  0.28864  0.21746  Biso   1.000  H
  H79      1.0000 0.41406  0.67871  0.83658  Biso   1.000  H
  H80      1.0000 0.58594  0.32129  0.16342  Biso   1.000  H
  O19      1.0000 0.60970  0.09230  0.91400  Biso   1.000  O
  O20      1.0000 0.39030  0.90770  0.08600  Biso   1.000  O
  O21      1.0000 0.54730  0.17680  0.84190  Biso   1.000  O
  O22      1.0000 0.45270  0.82320  0.15810  Biso   1.000  O
  O23      1.0000 0.55570  0.05690  0.78070  Biso   1.000  O
  O24      1.0000 0.44430  0.94310  0.21930  Biso   1.000  O
  O25      1.0000 0.65590  0.73370  0.38730  Biso   1.000  O
  O26      1.0000 0.34410  0.26630  0.61270  Biso   1.000  O
  O27      1.0000 0.70120  0.88300  0.49280  Biso   1.000  O
  O28      1.0000 0.29880  0.11700  0.50720  Biso   1.000  O
  O29      1.0000 0.70460  0.04680  0.68190  Biso   1.000  O
  O30      1.0000 0.29540  0.95320  0.31810  Biso   1.000  O
  O31      1.0000 0.62000  0.25790  0.67780  Biso   1.000  O
  O32      1.0000 0.38000  0.74210  0.32220  Biso   1.000  O
  O33      1.0000 0.56230  0.38600  0.62710  Biso   1.000  O
  O34      1.0000 0.43770  0.61400  0.37290  Biso   1.000  O
  O35      1.0000 0.55210  0.90770  0.54510  Biso   1.000  O
  O36      1.0000 0.44790  0.09230  0.45490  Biso   1.000  O
  O37      1.0000 0.52670  0.07690  0.60340  Biso   1.000  O
  O38      1.0000 0.47330  0.92310  0.39660  Biso   1.000  O
  O39      1.0000 0.37120  0.72600  0.48140  Biso   1.000  O
  O40      1.0000 0.62880  0.27400  0.51860  Biso   1.000  O
  H81      1.0000 0.37147  0.76984  0.51768  Biso   1.000  H
  H82      1.0000 0.62853  0.23016  0.48232  Biso   1.000  H
  H83      1.0000 0.37186  0.67986  0.50941  Biso   1.000  H
  H84      1.0000 0.62814  0.32014  0.49059  Biso   1.000  H
  O41      1.0000 0.58210  0.85010  0.31320  Biso   1.000  O
  O42      1.0000 0.41790  0.14990  0.68680  Biso   1.000  O
  H85      1.0000 0.58594  0.90902  0.31061  Biso   1.000  H
  H86      1.0000 0.41406  0.09098  0.68939  Biso   1.000  H
  H87      1.0000 0.53543  0.81581  0.26819  Biso   1.000  H
  H88      1.0000 0.46457  0.18419  0.73181  Biso   1.000  H
  O43      1.0000 0.55650  0.71150  0.54190  Biso   1.000  O
  O44      1.0000 0.44350  0.28850  0.45810  Biso   1.000  O
  O45      1.0000 0.65120  0.82200  0.67010  Biso   1.000  O
  O46      1.0000 0.34880  0.17800  0.32990  Biso   1.000  O
  O47      1.0000 0.68700  0.70700  0.62780  Biso   1.000  O
  O48      1.0000 0.31300  0.29300  0.37220  Biso   1.000  O
  O49      1.0000 0.65200  0.07500  0.37220  Biso   1.000  O
  O50      1.0000 0.34800  0.92500  0.62780  Biso   1.000  O
  O51      1.0000 0.81190  0.16450  0.44490  Biso   1.000  O
  O52      1.0000 0.18810  0.83550  0.55510  Biso   1.000  O
  O53      1.0000 0.68430  0.09110  0.49840  Biso   1.000  O
  O54      1.0000 0.31570  0.90890  0.50160  Biso   1.000  O
  Cu1      1.0000 0.76621  0.06406  0.03906  Biso   1.000  Cu
  Cu2      1.0000 0.23379  0.93594  0.96094  Biso   1.000  Cu
  Cu3      1.0000 0.65147  0.21711  0.04179  Biso   1.000  Cu
  Cu4      1.0000 0.34853  0.78289  0.95821  Biso   1.000  Cu
  Cu5      1.0000 0.50000  0.00000  0.00000  Biso   1.000  Cu
  Cu6      1.0000 0.70318  0.96650  0.58525  Biso   1.000  Cu
  Cu7      1.0000 0.29682  0.03350  0.41475  Biso   1.000  Cu
  Cu8      1.0000 0.65809  0.14735  0.68311  Biso   1.000  Cu
  Cu9      1.0000 0.34191  0.85265  0.31689  Biso   1.000  Cu
  Cu10     1.0000 0.50000  0.00000  0.50000  Biso   1.000  Cu
  Dy1      1.0000 0.58993  0.84227  0.93188  Biso   1.000  Dy
  Dy2      1.0000 0.41007  0.15773  0.06812  Biso   1.000  Dy
  Dy3      1.0000 0.52481  0.79248  0.43074  Biso   1.000  Dy
  Dy4      1.0000 0.47519  0.20752  0.56926  Biso   1.000  Dy
  C75      1.0000 0.94910  0.23610  0.08700  Biso   1.000  C
  C76      1.0000 0.05090  0.76390  0.91300  Biso   1.000  C
  H89      1.0000 0.00803  0.28422  0.06938  Biso   1.000  H
  H90      1.0000 0.99197  0.71578  0.93062  Biso   1.000  H
  H91      1.0000 0.97373  0.22888  0.14382  Biso   1.000  H
  H92      1.0000 0.02627  0.77112  0.85618  Biso   1.000  H
  O55      1.0000 0.81810  0.03330  0.17940  Biso   1.000  O
  O56      1.0000 0.18190  0.96670  0.82060  Biso   1.000  O
  O57      1.0000 0.68010  0.89450  0.17210  Biso   1.000  O
  O58      1.0000 0.31990  0.10550  0.82790  Biso   1.000  O
  O59      1.0000 0.78870  0.97300  0.29740  Biso   1.000  O
  O60      1.0000 0.21130  0.02700  0.70260  Biso   1.000  O
  O61      1.0000 0.86000  0.90800  0.23100  Biso   1.000  O
  O62      1.0000 0.14000  0.09200  0.76900  Biso   1.000  O
  Cl1      1.0000 0.77980  0.95190  0.22080  Biso   1.000  Cl
  Cl2      1.0000 0.22020  0.04810  0.77920  Biso   1.000  Cl
  O63      1.0000 0.71430  0.36410  0.15890  Biso   1.000  O
  O64      1.0000 0.28570  0.63590  0.84110  Biso   1.000  O
  H93      1.0000 0.73213  0.36617  0.21004  Biso   1.000  H
  H94      1.0000 0.26787  0.63383  0.78996  Biso   1.000  H
  H95      1.0000 0.76739  0.36911  0.14182  Biso   1.000  H
  H96      1.0000 0.23261  0.63089  0.85818  Biso   1.000  H
  O65      1.0000 0.14140  0.39040  0.01100  Biso   1.000  O
  O66      1.0000 0.85860  0.60960  0.98900  Biso   1.000  O
  O67      1.0000 0.21930  0.45260  0.90310  Biso   1.000  O
  O68      1.0000 0.78070  0.54740  0.09690  Biso   1.000  O
  O69      1.0000 0.06610  0.30870  0.87540  Biso   1.000  O
  O70      1.0000 0.93390  0.69130  0.12460  Biso   1.000  O
  O71      1.0000 0.06020  0.45740  0.91050  Biso   1.000  O
  O72      1.0000 0.93980  0.54260  0.08950  Biso   1.000  O
  Cl3      1.0000 0.11960  0.40160  0.92210  Biso   1.000  Cl
  Cl4      1.0000 0.88040  0.59840  0.07790  Biso   1.000  Cl
  O73      1.0000 0.33000  0.64900  0.63000  Biso   1.000  O
  O74      1.0000 0.67000  0.35100  0.37000  Biso   1.000  O
  O75      1.0000 0.36700  0.54000  0.56370  Biso   1.000  O
  O76      1.0000 0.63300  0.46000  0.43630  Biso   1.000  O
  O77      1.0000 0.47760  0.63310  0.68150  Biso   1.000  O
  O78      1.0000 0.52240  0.36690  0.31850  Biso   1.000  O
  Cl5      1.0000 0.36800  0.57200  0.64580  Biso   1.000  Cl
  Cl6      1.0000 0.63200  0.42800  0.35420  Biso   1.000  Cl
  O79      1.0000 0.34500  0.52200  0.71600  Biso   1.000  O
  O80      1.0000 0.65500  0.47800  0.28400  Biso   1.000  O
  O81      1.0000 0.00600  0.44100  0.61100  Biso   1.000  O
  O82      1.0000 0.99400  0.55900  0.38900  Biso   1.000  O
  H97      1.0000 0.94412  0.41704  0.61587  Biso   1.000  H
  H98      1.0000 0.05588  0.58296  0.38413  Biso   1.000  H
  H99      1.0000 0.00607  0.47360  0.57227  Biso   1.000  H
  H100     1.0000 0.99393  0.52640  0.42773  Biso   1.000  H
  O83      1.0000 0.45400  0.82200  0.66500  Biso   1.000  O
  O84      1.0000 0.54600  0.17800  0.33500  Biso   1.000  O
  H101     1.0000 0.42227  0.76423  0.63881  Biso   1.000  H
  H102     1.0000 0.57773  0.23577  0.36119  Biso   1.000  H
  H103     1.0000 0.44686  0.81575  0.71333  Biso   1.000  H
  H104     1.0000 0.55314  0.18425  0.28667  Biso   1.000  H
  O85      1.0000 0.87000  0.70900  0.63400  Biso   1.000  O
  O86      1.0000 0.13000  0.29100  0.36600  Biso   1.000  O
  H105     1.0000 0.88101  0.75166  0.67335  Biso   1.000  H
  H106     1.0000 0.11899  0.24834  0.32665  Biso   1.000  H
  H107     1.0000 0.82405  0.65481  0.63911  Biso   1.000  H
  H108     1.0000 0.17595  0.34519  0.36089  Biso   1.000  H
  O87      1.0000 0.81620  0.28060  0.58850  Biso   1.000  O
  O88      1.0000 0.18380  0.71940  0.41150  Biso   1.000  O
  H109     1.0000 0.78645  0.23995  0.54475  Biso   1.000  H
  H110     1.0000 0.21355  0.76005  0.45525  Biso   1.000  H
  H111     1.0000 0.87279  0.27578  0.60520  Biso   1.000  H
  H112     1.0000 0.12721  0.72422  0.39480  Biso   1.000  H
  O89      1.0000 0.66390  0.11580  0.22560  Biso   1.000  O
  O90      1.0000 0.33610  0.88420  0.77440  Biso   1.000  O
  H113     1.0000 0.68309  0.17493  0.24456  Biso   1.000  H
  H114     1.0000 0.31691  0.82507  0.75544  Biso   1.000  H
  H115     1.0000 0.71135  0.09817  0.24439  Biso   1.000  H
  H116     1.0000 0.28865  0.90183  0.75561  Biso   1.000  H
  O91      1.0000 0.83900  0.36900  0.30330  Biso   1.000  O
  O92      1.0000 0.16100  0.63100  0.69670  Biso   1.000  O
  O93      1.0000 0.91600  0.21600  0.30800  Biso   1.000  O
  O94      1.0000 0.08400  0.78400  0.69200  Biso   1.000  O
  H117     1.0000 0.92481  0.26240  0.34369  Biso   1.000  H
  H118     1.0000 0.07519  0.73760  0.65631  Biso   1.000  H
  H119     1.0000 0.95430  0.24285  0.27647  Biso   1.000  H
  H120     1.0000 0.04570  0.75715  0.72353  Biso   1.000  H
  O95      1.0000 0.88600  0.54600  0.51900  Biso   1.000  O
  O96      1.0000 0.11400  0.45400  0.48100  Biso   1.000  O
  H121     1.0000 0.85525  0.55476  0.47438  Biso   1.000  H
  H122     1.0000 0.14475  0.44524  0.52562  Biso   1.000  H
  H123     1.0000 0.83885  0.52173  0.54449  Biso   1.000  H
  H124     1.0000 0.16115  0.47827  0.45551  Biso   1.000  H
