data_image0
_cell_length_a       11.015
_cell_length_b       15.791
_cell_length_c       24.136
_cell_angle_alpha    90
_cell_angle_beta     96.266
_cell_angle_gamma    90

_symmetry_space_group_name_H-M    "P 1"
_symmetry_int_tables_number       1

loop_
  _symmetry_equiv_pos_as_xyz
  'x, y, z'

loop_
  _atom_site_label
  _atom_site_occupancy
  _atom_site_fract_x
  _atom_site_fract_y
  _atom_site_fract_z
  _atom_site_thermal_displace_type
  _atom_site_B_iso_or_equiv
  _atom_site_type_symbol
  Cu1      1.0000 0.72209  0.80974  0.99117  Biso   1.000  Cu
  Cu2      1.0000 0.27791  0.30974  0.50883  Biso   1.000  Cu
  Cu3      1.0000 0.27791  0.19026  0.00883  Biso   1.000  Cu
  Cu4      1.0000 0.72209  0.69026  0.49117  Biso   1.000  Cu
  C1       1.0000 0.48660  0.88720  0.00610  Biso   1.000  C
  C2       1.0000 0.51340  0.38720  0.49390  Biso   1.000  C
  C3       1.0000 0.51340  0.11280  0.99390  Biso   1.000  C
  C4       1.0000 0.48660  0.61280  0.50610  Biso   1.000  C
  H1       1.0000 0.53470  0.93390  0.01730  Biso   1.000  H
  H2       1.0000 0.46530  0.43390  0.48270  Biso   1.000  H
  H3       1.0000 0.46530  0.06610  0.98270  Biso   1.000  H
  H4       1.0000 0.53470  0.56610  0.51730  Biso   1.000  H
  C5       1.0000 0.36180  0.89290  0.00740  Biso   1.000  C
  C6       1.0000 0.63820  0.39290  0.49260  Biso   1.000  C
  C7       1.0000 0.63820  0.10710  0.99260  Biso   1.000  C
  C8       1.0000 0.36180  0.60710  0.50740  Biso   1.000  C
  H5       1.0000 0.32700  0.94250  0.01910  Biso   1.000  H
  H6       1.0000 0.67300  0.44250  0.48090  Biso   1.000  H
  H7       1.0000 0.67300  0.05750  0.98090  Biso   1.000  H
  H8       1.0000 0.32700  0.55750  0.51910  Biso   1.000  H
  C9       1.0000 0.28920  0.82390  0.99120  Biso   1.000  C
  C10      1.0000 0.71080  0.32390  0.50880  Biso   1.000  C
  C11      1.0000 0.71080  0.17610  0.00880  Biso   1.000  C
  C12      1.0000 0.28920  0.67610  0.49120  Biso   1.000  C
  C13      1.0000 0.34620  0.75220  0.97360  Biso   1.000  C
  C14      1.0000 0.65380  0.25220  0.52640  Biso   1.000  C
  C15      1.0000 0.65380  0.24780  0.02640  Biso   1.000  C
  C16      1.0000 0.34620  0.74780  0.47360  Biso   1.000  C
  H9       1.0000 0.30000  0.70490  0.96190  Biso   1.000  H
  H10      1.0000 0.70000  0.20490  0.53810  Biso   1.000  H
  H11      1.0000 0.70000  0.29510  0.03810  Biso   1.000  H
  H12      1.0000 0.30000  0.79510  0.46190  Biso   1.000  H
  C17      1.0000 0.47130  0.75060  0.97340  Biso   1.000  C
  C18      1.0000 0.52870  0.25060  0.52660  Biso   1.000  C
  C19      1.0000 0.52870  0.24940  0.02660  Biso   1.000  C
  C20      1.0000 0.47130  0.74940  0.47340  Biso   1.000  C
  H13      1.0000 0.50820  0.70170  0.96180  Biso   1.000  H
  H14      1.0000 0.49180  0.20170  0.53820  Biso   1.000  H
  H15      1.0000 0.49180  0.29830  0.03820  Biso   1.000  H
  H16      1.0000 0.50820  0.79830  0.46180  Biso   1.000  H
  C21      1.0000 0.15400  0.82480  0.99190  Biso   1.000  C
  C22      1.0000 0.84600  0.32480  0.50810  Biso   1.000  C
  C23      1.0000 0.84600  0.17520  0.00810  Biso   1.000  C
  C24      1.0000 0.15400  0.67520  0.49190  Biso   1.000  C
  C25      1.0000 0.08330  0.89350  0.97250  Biso   1.000  C
  C26      1.0000 0.91670  0.39350  0.52750  Biso   1.000  C
  C27      1.0000 0.91670  0.10650  0.02750  Biso   1.000  C
  C28      1.0000 0.08330  0.60650  0.47250  Biso   1.000  C
  H17      1.0000 0.11890  0.94140  0.95880  Biso   1.000  H
  H18      1.0000 0.88110  0.44140  0.54120  Biso   1.000  H
  H19      1.0000 0.88110  0.05860  0.04120  Biso   1.000  H
  H20      1.0000 0.11890  0.55860  0.45880  Biso   1.000  H
  C29      1.0000 0.95930  0.88870  0.97400  Biso   1.000  C
  C30      1.0000 0.04070  0.38870  0.52600  Biso   1.000  C
  C31      1.0000 0.04070  0.11130  0.02600  Biso   1.000  C
  C32      1.0000 0.95930  0.61130  0.47400  Biso   1.000  C
  H21      1.0000 0.91160  0.93430  0.96030  Biso   1.000  H
  H22      1.0000 0.08840  0.43430  0.53970  Biso   1.000  H
  H23      1.0000 0.08840  0.06570  0.03970  Biso   1.000  H
  H24      1.0000 0.91160  0.56570  0.46030  Biso   1.000  H
  C33      1.0000 0.97140  0.75770  0.01470  Biso   1.000  C
  C34      1.0000 0.02860  0.25770  0.48530  Biso   1.000  C
  C35      1.0000 0.02860  0.24230  0.98530  Biso   1.000  C
  C36      1.0000 0.97140  0.74230  0.51470  Biso   1.000  C
  H25      1.0000 0.93390  0.71230  0.03060  Biso   1.000  H
  H26      1.0000 0.06610  0.21230  0.46940  Biso   1.000  H
  H27      1.0000 0.06610  0.28770  0.96940  Biso   1.000  H
  H28      1.0000 0.93390  0.78770  0.53060  Biso   1.000  H
  C37      1.0000 0.09630  0.75630  0.01340  Biso   1.000  C
  C38      1.0000 0.90370  0.25630  0.48660  Biso   1.000  C
  C39      1.0000 0.90370  0.24370  0.98660  Biso   1.000  C
  C40      1.0000 0.09630  0.74370  0.51340  Biso   1.000  C
  H29      1.0000 0.14150  0.70950  0.02680  Biso   1.000  H
  H30      1.0000 0.85850  0.20950  0.47320  Biso   1.000  H
  H31      1.0000 0.85850  0.29050  0.97320  Biso   1.000  H
  H32      1.0000 0.14150  0.79050  0.52680  Biso   1.000  H
  C41      1.0000 0.50000  0.78870  0.23630  Biso   1.000  C
  C42      1.0000 0.50000  0.28870  0.26370  Biso   1.000  C
  C43      1.0000 0.50000  0.21130  0.76370  Biso   1.000  C
  C44      1.0000 0.50000  0.71130  0.73630  Biso   1.000  C
  C45      1.0000 0.45190  0.85820  0.32210  Biso   1.000  C
  C46      1.0000 0.54810  0.35820  0.17790  Biso   1.000  C
  C47      1.0000 0.54810  0.14180  0.67790  Biso   1.000  C
  C48      1.0000 0.45190  0.64180  0.82210  Biso   1.000  C
  C49      1.0000 0.52760  0.94120  0.24790  Biso   1.000  C
  C50      1.0000 0.47240  0.44120  0.25210  Biso   1.000  C
  C51      1.0000 0.47240  0.05880  0.75210  Biso   1.000  C
  C52      1.0000 0.52760  0.55880  0.74790  Biso   1.000  C
  C53      1.0000 0.49150  0.00860  0.33620  Biso   1.000  C
  C54      1.0000 0.50850  0.50860  0.16380  Biso   1.000  C
  C55      1.0000 0.50850  0.99140  0.66380  Biso   1.000  C
  C56      1.0000 0.49150  0.49140  0.83620  Biso   1.000  C
  H33      1.0000 0.54990  0.04900  0.32460  Biso   1.000  H
  H34      1.0000 0.45010  0.54900  0.17540  Biso   1.000  H
  H35      1.0000 0.45010  0.95100  0.67540  Biso   1.000  H
  H36      1.0000 0.54990  0.45100  0.82460  Biso   1.000  H
  H37      1.0000 0.51850  0.99210  0.37430  Biso   1.000  H
  H38      1.0000 0.48150  0.49210  0.12570  Biso   1.000  H
  H39      1.0000 0.48150  0.00790  0.62570  Biso   1.000  H
  H40      1.0000 0.51850  0.50790  0.87430  Biso   1.000  H
  C57      1.0000 0.36970  0.04940  0.33420  Biso   1.000  C
  C58      1.0000 0.63030  0.54940  0.16580  Biso   1.000  C
  C59      1.0000 0.63030  0.95060  0.66580  Biso   1.000  C
  C60      1.0000 0.36970  0.45060  0.83420  Biso   1.000  C
  H41      1.0000 0.30980  0.00660  0.34070  Biso   1.000  H
  H42      1.0000 0.69020  0.50660  0.15930  Biso   1.000  H
  H43      1.0000 0.69020  0.99340  0.65930  Biso   1.000  H
  H44      1.0000 0.30980  0.49340  0.84070  Biso   1.000  H
  H45      1.0000 0.34800  0.07200  0.29710  Biso   1.000  H
  H46      1.0000 0.65200  0.57200  0.20290  Biso   1.000  H
  H47      1.0000 0.65200  0.92800  0.70290  Biso   1.000  H
  H48      1.0000 0.34800  0.42800  0.79710  Biso   1.000  H
  C61      1.0000 0.36310  0.11880  0.37540  Biso   1.000  C
  C62      1.0000 0.63690  0.61880  0.12460  Biso   1.000  C
  C63      1.0000 0.63690  0.88120  0.62460  Biso   1.000  C
  C64      1.0000 0.36310  0.38120  0.87540  Biso   1.000  C
  C65      1.0000 0.42650  0.70560  0.31250  Biso   1.000  C
  C66      1.0000 0.57350  0.20560  0.18750  Biso   1.000  C
  C67      1.0000 0.57350  0.29440  0.68750  Biso   1.000  C
  C68      1.0000 0.42650  0.79440  0.81250  Biso   1.000  C
  H49      1.0000 0.44820  0.70610  0.35250  Biso   1.000  H
  H50      1.0000 0.55180  0.20610  0.14750  Biso   1.000  H
  H51      1.0000 0.55180  0.29390  0.64750  Biso   1.000  H
  H52      1.0000 0.44820  0.79390  0.85250  Biso   1.000  H
  H53      1.0000 0.47210  0.66050  0.29690  Biso   1.000  H
  H54      1.0000 0.52790  0.16050  0.20310  Biso   1.000  H
  H55      1.0000 0.52790  0.33950  0.70310  Biso   1.000  H
  H56      1.0000 0.47210  0.83950  0.79690  Biso   1.000  H
  C69      1.0000 0.29060  0.68840  0.29980  Biso   1.000  C
  C70      1.0000 0.70940  0.18840  0.20020  Biso   1.000  C
  C71      1.0000 0.70940  0.31160  0.70020  Biso   1.000  C
  C72      1.0000 0.29060  0.81160  0.79980  Biso   1.000  C
  H57      1.0000 0.24580  0.73490  0.31420  Biso   1.000  H
  H58      1.0000 0.75420  0.23490  0.18580  Biso   1.000  H
  H59      1.0000 0.75420  0.26510  0.68580  Biso   1.000  H
  H60      1.0000 0.24580  0.76510  0.81420  Biso   1.000  H
  H61      1.0000 0.27010  0.68720  0.25970  Biso   1.000  H
  H62      1.0000 0.72990  0.18720  0.24030  Biso   1.000  H
  H63      1.0000 0.72990  0.31280  0.74030  Biso   1.000  H
  H64      1.0000 0.27010  0.81280  0.75970  Biso   1.000  H
  C73      1.0000 0.24920  0.60670  0.32390  Biso   1.000  C
  C74      1.0000 0.75080  0.10670  0.17610  Biso   1.000  C
  C75      1.0000 0.75080  0.39330  0.67610  Biso   1.000  C
  C76      1.0000 0.24920  0.89330  0.82390  Biso   1.000  C
  C77      1.0000 0.56720  0.87390  0.16090  Biso   1.000  C
  C78      1.0000 0.43280  0.37390  0.33910  Biso   1.000  C
  C79      1.0000 0.43280  0.12610  0.83910  Biso   1.000  C
  C80      1.0000 0.56720  0.62610  0.66090  Biso   1.000  C
  H65      1.0000 0.53700  0.92710  0.14470  Biso   1.000  H
  H66      1.0000 0.46300  0.42710  0.35530  Biso   1.000  H
  H67      1.0000 0.46300  0.07290  0.85530  Biso   1.000  H
  H68      1.0000 0.53700  0.57290  0.64470  Biso   1.000  H
  H69      1.0000 0.52950  0.82830  0.13820  Biso   1.000  H
  H70      1.0000 0.47050  0.32830  0.36180  Biso   1.000  H
  H71      1.0000 0.47050  0.17170  0.86180  Biso   1.000  H
  H72      1.0000 0.52950  0.67170  0.63820  Biso   1.000  H
  C81      1.0000 0.70660  0.86980  0.16040  Biso   1.000  C
  C82      1.0000 0.29340  0.36980  0.33960  Biso   1.000  C
  C83      1.0000 0.29340  0.13020  0.83960  Biso   1.000  C
  C84      1.0000 0.70660  0.63020  0.66040  Biso   1.000  C
  H73      1.0000 0.74560  0.91630  0.18170  Biso   1.000  H
  H74      1.0000 0.25440  0.41630  0.31830  Biso   1.000  H
  H75      1.0000 0.25440  0.08370  0.81830  Biso   1.000  H
  H76      1.0000 0.74560  0.58370  0.68170  Biso   1.000  H
  H77      1.0000 0.73830  0.81700  0.17650  Biso   1.000  H
  H78      1.0000 0.26170  0.31700  0.32350  Biso   1.000  H
  H79      1.0000 0.26170  0.18300  0.82350  Biso   1.000  H
  H80      1.0000 0.73830  0.68300  0.67650  Biso   1.000  H
  C85      1.0000 0.73130  0.87610  0.09990  Biso   1.000  C
  C86      1.0000 0.26870  0.37610  0.40010  Biso   1.000  C
  C87      1.0000 0.26870  0.12390  0.90010  Biso   1.000  C
  C88      1.0000 0.73130  0.62390  0.59990  Biso   1.000  C
  C89      1.0000 0.93130  0.94440  0.74120  Biso   1.000  C
  C90      1.0000 0.06870  0.44440  0.75880  Biso   1.000  C
  C91      1.0000 0.06870  0.05560  0.25880  Biso   1.000  C
  C92      1.0000 0.93130  0.55560  0.24120  Biso   1.000  C
  C93      1.0000 0.95110  0.79010  0.74940  Biso   1.000  C
  C94      1.0000 0.04890  0.29010  0.75060  Biso   1.000  C
  C95      1.0000 0.04890  0.20990  0.25060  Biso   1.000  C
  C96      1.0000 0.95110  0.70990  0.24940  Biso   1.000  C
  C97      1.0000 0.01390  0.86270  0.66770  Biso   1.000  C
  C98      1.0000 0.98610  0.36270  0.83230  Biso   1.000  C
  C99      1.0000 0.98610  0.13730  0.33230  Biso   1.000  C
  C100     1.0000 0.01390  0.63730  0.16770  Biso   1.000  C
  C101     1.0000 0.15060  0.68390  0.67600  Biso   1.000  C
  C102     1.0000 0.84940  0.18390  0.82400  Biso   1.000  C
  C103     1.0000 0.84940  0.31610  0.32400  Biso   1.000  C
  C104     1.0000 0.15060  0.81610  0.17600  Biso   1.000  C
  H81      1.0000 0.19840  0.73060  0.66380  Biso   1.000  H
  H82      1.0000 0.80160  0.23060  0.83620  Biso   1.000  H
  H83      1.0000 0.80160  0.26940  0.33620  Biso   1.000  H
  H84      1.0000 0.19840  0.76940  0.16380  Biso   1.000  H
  H85      1.0000 0.17880  0.67210  0.71470  Biso   1.000  H
  H86      1.0000 0.82120  0.17210  0.78530  Biso   1.000  H
  H87      1.0000 0.82120  0.32790  0.28530  Biso   1.000  H
  H88      1.0000 0.17880  0.82790  0.21470  Biso   1.000  H
  C105     1.0000 0.01710  0.70880  0.67100  Biso   1.000  C
  C106     1.0000 0.98290  0.20880  0.82900  Biso   1.000  C
  C107     1.0000 0.98290  0.29120  0.32900  Biso   1.000  C
  C108     1.0000 0.01710  0.79120  0.17100  Biso   1.000  C
  H89      1.0000 0.98630  0.71170  0.63180  Biso   1.000  H
  H90      1.0000 0.01370  0.21170  0.86820  Biso   1.000  H
  H91      1.0000 0.01370  0.28830  0.36820  Biso   1.000  H
  H92      1.0000 0.98630  0.78830  0.13180  Biso   1.000  H
  H93      1.0000 0.97160  0.66510  0.68800  Biso   1.000  H
  H94      1.0000 0.02840  0.16510  0.81200  Biso   1.000  H
  H95      1.0000 0.02840  0.33490  0.31200  Biso   1.000  H
  H96      1.0000 0.97160  0.83490  0.18800  Biso   1.000  H
  C109     1.0000 0.16930  0.60660  0.64110  Biso   1.000  C
  C110     1.0000 0.83070  0.10660  0.85890  Biso   1.000  C
  C111     1.0000 0.83070  0.39340  0.35890  Biso   1.000  C
  C112     1.0000 0.16930  0.89340  0.14110  Biso   1.000  C
  C113     1.0000 0.00290  0.01600  0.66020  Biso   1.000  C
  C114     1.0000 0.99710  0.51600  0.83980  Biso   1.000  C
  C115     1.0000 0.99710  0.98400  0.33980  Biso   1.000  C
  C116     1.0000 0.00290  0.48400  0.16020  Biso   1.000  C
  H97      1.0000 0.94620  0.05920  0.67000  Biso   1.000  H
  H98      1.0000 0.05380  0.55920  0.83000  Biso   1.000  H
  H99      1.0000 0.05380  0.94080  0.33000  Biso   1.000  H
  H100     1.0000 0.94620  0.44080  0.17000  Biso   1.000  H
  H101     1.0000 0.98720  0.00580  0.62040  Biso   1.000  H
  H102     1.0000 0.01280  0.50580  0.87960  Biso   1.000  H
  H103     1.0000 0.01280  0.99420  0.37960  Biso   1.000  H
  H104     1.0000 0.98720  0.49420  0.12040  Biso   1.000  H
  C117     1.0000 0.12970  0.04760  0.67330  Biso   1.000  C
  C118     1.0000 0.87030  0.54760  0.82670  Biso   1.000  C
  C119     1.0000 0.87030  0.95240  0.32670  Biso   1.000  C
  C120     1.0000 0.12970  0.45240  0.17330  Biso   1.000  C
  H105     1.0000 0.18600  0.00100  0.67070  Biso   1.000  H
  H106     1.0000 0.81400  0.50100  0.82930  Biso   1.000  H
  H107     1.0000 0.81400  0.99900  0.32930  Biso   1.000  H
  H108     1.0000 0.18600  0.49900  0.17070  Biso   1.000  H
  H109     1.0000 0.14010  0.06820  0.71130  Biso   1.000  H
  H110     1.0000 0.85990  0.56820  0.78870  Biso   1.000  H
  H111     1.0000 0.85990  0.93180  0.28870  Biso   1.000  H
  H112     1.0000 0.14010  0.43180  0.21130  Biso   1.000  H
  C121     1.0000 0.16080  0.11690  0.63520  Biso   1.000  C
  C122     1.0000 0.83920  0.61690  0.86480  Biso   1.000  C
  C123     1.0000 0.83920  0.88310  0.36480  Biso   1.000  C
  C124     1.0000 0.16080  0.38310  0.13520  Biso   1.000  C
  C125     1.0000 0.87990  0.87240  0.82450  Biso   1.000  C
  C126     1.0000 0.12010  0.37240  0.67550  Biso   1.000  C
  C127     1.0000 0.12010  0.12760  0.17550  Biso   1.000  C
  C128     1.0000 0.87990  0.62760  0.32450  Biso   1.000  C
  H113     1.0000 0.91020  0.92440  0.84250  Biso   1.000  H
  H114     1.0000 0.08980  0.42440  0.65750  Biso   1.000  H
  H115     1.0000 0.08980  0.07560  0.15750  Biso   1.000  H
  H116     1.0000 0.91020  0.57560  0.34250  Biso   1.000  H
  H117     1.0000 0.91540  0.82520  0.84640  Biso   1.000  H
  H118     1.0000 0.08460  0.32520  0.65360  Biso   1.000  H
  H119     1.0000 0.08460  0.17480  0.15360  Biso   1.000  H
  H120     1.0000 0.91540  0.67480  0.34640  Biso   1.000  H
  C129     1.0000 0.74090  0.86940  0.82320  Biso   1.000  C
  C130     1.0000 0.25910  0.36940  0.67680  Biso   1.000  C
  C131     1.0000 0.25910  0.13060  0.17680  Biso   1.000  C
  C132     1.0000 0.74090  0.63060  0.32320  Biso   1.000  C
  H121     1.0000 0.70450  0.91790  0.80310  Biso   1.000  H
  H122     1.0000 0.29550  0.41790  0.69690  Biso   1.000  H
  H123     1.0000 0.29550  0.08210  0.19690  Biso   1.000  H
  H124     1.0000 0.70450  0.58210  0.30310  Biso   1.000  H
  H125     1.0000 0.70930  0.81830  0.80460  Biso   1.000  H
  H126     1.0000 0.29070  0.31830  0.69540  Biso   1.000  H
  H127     1.0000 0.29070  0.18170  0.19540  Biso   1.000  H
  H128     1.0000 0.70930  0.68170  0.30460  Biso   1.000  H
  C133     1.0000 0.70970  0.87050  0.88320  Biso   1.000  C
  C134     1.0000 0.29030  0.37050  0.61680  Biso   1.000  C
  C135     1.0000 0.29030  0.12950  0.11680  Biso   1.000  C
  C136     1.0000 0.70970  0.62950  0.38320  Biso   1.000  C
  N1       1.0000 0.54130  0.81750  0.98948  Biso   1.000  N
  N2       1.0000 0.45870  0.31750  0.51052  Biso   1.000  N
  N3       1.0000 0.45870  0.18250  0.01052  Biso   1.000  N
  N4       1.0000 0.54130  0.68250  0.48948  Biso   1.000  N
  N5       1.0000 0.90330  0.82200  0.99401  Biso   1.000  N
  N6       1.0000 0.09670  0.32200  0.50599  Biso   1.000  N
  N7       1.0000 0.09670  0.17800  0.00599  Biso   1.000  N
  N8       1.0000 0.90330  0.67800  0.49401  Biso   1.000  N
  N9       1.0000 0.53190  0.86670  0.21788  Biso   1.000  N
  N10      1.0000 0.46810  0.36670  0.28212  Biso   1.000  N
  N11      1.0000 0.46810  0.13330  0.78212  Biso   1.000  N
  N12      1.0000 0.53190  0.63330  0.71788  Biso   1.000  N
  N13      1.0000 0.46010  0.78720  0.28896  Biso   1.000  N
  N14      1.0000 0.53990  0.28720  0.21104  Biso   1.000  N
  N15      1.0000 0.53990  0.21280  0.71104  Biso   1.000  N
  N16      1.0000 0.46010  0.71280  0.78896  Biso   1.000  N
  N17      1.0000 0.48890  0.93390  0.30028  Biso   1.000  N
  N18      1.0000 0.51110  0.43390  0.19972  Biso   1.000  N
  N19      1.0000 0.51110  0.06610  0.69972  Biso   1.000  N
  N20      1.0000 0.48890  0.56610  0.80028  Biso   1.000  N
  N21      1.0000 0.99520  0.79060  0.69743  Biso   1.000  N
  N22      1.0000 0.00480  0.29060  0.80257  Biso   1.000  N
  N23      1.0000 0.00480  0.20940  0.30257  Biso   1.000  N
  N24      1.0000 0.99520  0.70940  0.19743  Biso   1.000  N
  N25      1.0000 0.98080  0.93740  0.69035  Biso   1.000  N
  N26      1.0000 0.01920  0.43740  0.80965  Biso   1.000  N
  N27      1.0000 0.01920  0.06260  0.30965  Biso   1.000  N
  N28      1.0000 0.98080  0.56260  0.19035  Biso   1.000  N
  N29      1.0000 0.91870  0.86850  0.76825  Biso   1.000  N
  N30      1.0000 0.08130  0.36850  0.73175  Biso   1.000  N
  N31      1.0000 0.08130  0.13150  0.23175  Biso   1.000  N
  N32      1.0000 0.91870  0.63150  0.26825  Biso   1.000  N
  O1       1.0000 0.44310  0.13230  0.41230  Biso   1.000  O
  O2       1.0000 0.55690  0.63230  0.08770  Biso   1.000  O
  O3       1.0000 0.55690  0.86770  0.58770  Biso   1.000  O
  O4       1.0000 0.44310  0.36770  0.91230  Biso   1.000  O
  H129     1.0000 0.43570  0.10010  0.43840  Biso   1.000  H
  H130     1.0000 0.56430  0.60010  0.06160  Biso   1.000  H
  H131     1.0000 0.56430  0.89990  0.56160  Biso   1.000  H
  H132     1.0000 0.43570  0.39990  0.93840  Biso   1.000  H
  O5       1.0000 0.26450  0.16550  0.36781  Biso   1.000  O
  O6       1.0000 0.73550  0.66550  0.13219  Biso   1.000  O
  O7       1.0000 0.73550  0.83450  0.63219  Biso   1.000  O
  O8       1.0000 0.26450  0.33450  0.86781  Biso   1.000  O
  O9       1.0000 0.31180  0.58760  0.37199  Biso   1.000  O
  O10      1.0000 0.68820  0.08760  0.12801  Biso   1.000  O
  O11      1.0000 0.68820  0.41240  0.62801  Biso   1.000  O
  O12      1.0000 0.31180  0.91240  0.87199  Biso   1.000  O
  H133     1.0000 0.28760  0.54220  0.38320  Biso   1.000  H
  H134     1.0000 0.71240  0.04220  0.11680  Biso   1.000  H
  H135     1.0000 0.71240  0.45780  0.61680  Biso   1.000  H
  H136     1.0000 0.28760  0.95780  0.88320  Biso   1.000  H
  O13      1.0000 0.16770  0.56430  0.30160  Biso   1.000  O
  O14      1.0000 0.83230  0.06430  0.19840  Biso   1.000  O
  O15      1.0000 0.83230  0.43570  0.69840  Biso   1.000  O
  O16      1.0000 0.16770  0.93570  0.80160  Biso   1.000  O
  O17      1.0000 0.73580  0.80510  0.07353  Biso   1.000  O
  O18      1.0000 0.26420  0.30510  0.42647  Biso   1.000  O
  O19      1.0000 0.26420  0.19490  0.92647  Biso   1.000  O
  O20      1.0000 0.73580  0.69490  0.57353  Biso   1.000  O
  O21      1.0000 0.73820  0.94510  0.07721  Biso   1.000  O
  O22      1.0000 0.26180  0.44510  0.42279  Biso   1.000  O
  O23      1.0000 0.26180  0.05490  0.92279  Biso   1.000  O
  O24      1.0000 0.73820  0.55490  0.57721  Biso   1.000  O
  O25      1.0000 0.50750  0.72520  0.20985  Biso   1.000  O
  O26      1.0000 0.49250  0.22520  0.29015  Biso   1.000  O
  O27      1.0000 0.49250  0.27480  0.79015  Biso   1.000  O
  O28      1.0000 0.50750  0.77480  0.70985  Biso   1.000  O
  O29      1.0000 0.41340  0.85500  0.36685  Biso   1.000  O
  O30      1.0000 0.58660  0.35500  0.13315  Biso   1.000  O
  O31      1.0000 0.58660  0.14500  0.63315  Biso   1.000  O
  O32      1.0000 0.41340  0.64500  0.86685  Biso   1.000  O
  O33      1.0000 0.55560  0.00900  0.22951  Biso   1.000  O
  O34      1.0000 0.44440  0.50900  0.27049  Biso   1.000  O
  O35      1.0000 0.44440  0.99100  0.77049  Biso   1.000  O
  O36      1.0000 0.55560  0.49100  0.72951  Biso   1.000  O
  O37      1.0000 0.71180  0.79940  0.90839  Biso   1.000  O
  O38      1.0000 0.28820  0.29940  0.59161  Biso   1.000  O
  O39      1.0000 0.28820  0.20060  0.09161  Biso   1.000  O
  O40      1.0000 0.71180  0.70060  0.40839  Biso   1.000  O
  O41      1.0000 0.68950  0.93800  0.90689  Biso   1.000  O
  O42      1.0000 0.31050  0.43800  0.59311  Biso   1.000  O
  O43      1.0000 0.31050  0.06200  0.09311  Biso   1.000  O
  O44      1.0000 0.68950  0.56200  0.40689  Biso   1.000  O
  O45      1.0000 0.26260  0.15670  0.65110  Biso   1.000  O
  O46      1.0000 0.73740  0.65670  0.84890  Biso   1.000  O
  O47      1.0000 0.73740  0.84330  0.34890  Biso   1.000  O
  O48      1.0000 0.26260  0.34330  0.15110  Biso   1.000  O
  H137     1.0000 0.26690  0.19940  0.63210  Biso   1.000  H
  H138     1.0000 0.73310  0.69940  0.86790  Biso   1.000  H
  H139     1.0000 0.73310  0.80060  0.36790  Biso   1.000  H
  H140     1.0000 0.26690  0.30060  0.13210  Biso   1.000  H
  O49      1.0000 0.10180  0.13210  0.59270  Biso   1.000  O
  O50      1.0000 0.89820  0.63210  0.90730  Biso   1.000  O
  O51      1.0000 0.89820  0.86790  0.40730  Biso   1.000  O
  O52      1.0000 0.10180  0.36790  0.09270  Biso   1.000  O
  O53      1.0000 0.09170  0.57300  0.61020  Biso   1.000  O
  O54      1.0000 0.90830  0.07300  0.88980  Biso   1.000  O
  O55      1.0000 0.90830  0.42700  0.38980  Biso   1.000  O
  O56      1.0000 0.09170  0.92700  0.11020  Biso   1.000  O
  O57      1.0000 0.28430  0.58040  0.64871  Biso   1.000  O
  O58      1.0000 0.71570  0.08040  0.85129  Biso   1.000  O
  O59      1.0000 0.71570  0.41960  0.35129  Biso   1.000  O
  O60      1.0000 0.28430  0.91960  0.14871  Biso   1.000  O
  H141     1.0000 0.29110  0.53640  0.63130  Biso   1.000  H
  H142     1.0000 0.70890  0.03640  0.86870  Biso   1.000  H
  H143     1.0000 0.70890  0.46360  0.36870  Biso   1.000  H
  H144     1.0000 0.29110  0.96360  0.13130  Biso   1.000  H
  O61      1.0000 0.89960  0.01100  0.75858  Biso   1.000  O
  O62      1.0000 0.10040  0.51100  0.74142  Biso   1.000  O
  O63      1.0000 0.10040  0.98900  0.24142  Biso   1.000  O
  O64      1.0000 0.89960  0.48900  0.25858  Biso   1.000  O
  O65      1.0000 0.05750  0.86040  0.62375  Biso   1.000  O
  O66      1.0000 0.94250  0.36040  0.87625  Biso   1.000  O
  O67      1.0000 0.94250  0.13960  0.37625  Biso   1.000  O
  O68      1.0000 0.05750  0.63960  0.12375  Biso   1.000  O
  O69      1.0000 0.94170  0.72600  0.77517  Biso   1.000  O
  O70      1.0000 0.05830  0.22600  0.72483  Biso   1.000  O
  O71      1.0000 0.05830  0.27400  0.22483  Biso   1.000  O
  O72      1.0000 0.94170  0.77400  0.27517  Biso   1.000  O
  O73      1.0000 0.72650  0.65960  0.99089  Biso   1.000  O
  O74      1.0000 0.27350  0.15960  0.50911  Biso   1.000  O
  O75      1.0000 0.27350  0.34040  0.00911  Biso   1.000  O
  O76      1.0000 0.72650  0.84040  0.49089  Biso   1.000  O
  H145     1.0000 0.72350  0.63280  0.96020  Biso   1.000  H
  H146     1.0000 0.27650  0.13280  0.53980  Biso   1.000  H
  H147     1.0000 0.27650  0.36720  0.03980  Biso   1.000  H
  H148     1.0000 0.72350  0.86720  0.46020  Biso   1.000  H
  H149     1.0000 0.73130  0.63270  0.02150  Biso   1.000  H
  H150     1.0000 0.26870  0.13270  0.47850  Biso   1.000  H
  H151     1.0000 0.26870  0.36730  0.97850  Biso   1.000  H
  H152     1.0000 0.73130  0.86730  0.52150  Biso   1.000  H
  O77      1.0000 0.81700  0.04700  0.46590  Biso   1.000  O
  O78      1.0000 0.18300  0.54700  0.03410  Biso   1.000  O
  O79      1.0000 0.18300  0.95300  0.53410  Biso   1.000  O
  O80      1.0000 0.81700  0.45300  0.96590  Biso   1.000  O
  H153     1.0000 0.85660  0.00640  0.45270  Biso   1.000  H
  H154     1.0000 0.14340  0.50640  0.04730  Biso   1.000  H
  H155     1.0000 0.14340  0.99360  0.54730  Biso   1.000  H
  H156     1.0000 0.85660  0.49360  0.95270  Biso   1.000  H
  H157     1.0000 0.84980  0.07520  0.49340  Biso   1.000  H
  H158     1.0000 0.15020  0.57520  0.00660  Biso   1.000  H
  H159     1.0000 0.15020  0.92480  0.50660  Biso   1.000  H
  H160     1.0000 0.84980  0.42480  0.99340  Biso   1.000  H
  O81      1.0000 0.65000  0.49060  0.00940  Biso   1.000  O
  O82      1.0000 0.35000  0.99060  0.49060  Biso   1.000  O
  O83      1.0000 0.35000  0.50940  0.99060  Biso   1.000  O
  O84      1.0000 0.65000  0.00940  0.50940  Biso   1.000  O
  H161     1.0000 0.68820  0.48320  0.04150  Biso   1.000  H
  H162     1.0000 0.31180  0.98320  0.45850  Biso   1.000  H
  H163     1.0000 0.31180  0.51680  0.95850  Biso   1.000  H
  H164     1.0000 0.68820  0.01680  0.54150  Biso   1.000  H
  H165     1.0000 0.65950  0.45640  0.98310  Biso   1.000  H
  H166     1.0000 0.34050  0.95640  0.51690  Biso   1.000  H
  H167     1.0000 0.34050  0.54360  0.01690  Biso   1.000  H
  H168     1.0000 0.65950  0.04360  0.48310  Biso   1.000  H
