data_image0
_cell_length_a       8.8768
_cell_length_b       22.3595
_cell_length_c       16.1084
_cell_angle_alpha    90
_cell_angle_beta     105.454
_cell_angle_gamma    90

_symmetry_space_group_name_H-M    "P 1"
_symmetry_int_tables_number       1

loop_
  _symmetry_equiv_pos_as_xyz
  'x, y, z'

loop_
  _atom_site_label
  _atom_site_occupancy
  _atom_site_fract_x
  _atom_site_fract_y
  _atom_site_fract_z
  _atom_site_thermal_displace_type
  _atom_site_B_iso_or_equiv
  _atom_site_type_symbol
  C1       1.0000 0.13350  0.10516  0.32781  Biso   1.000  C
  C2       1.0000 0.36650  0.60516  0.17219  Biso   1.000  C
  C3       1.0000 0.86650  0.89484  0.67219  Biso   1.000  C
  C4       1.0000 0.63350  0.39484  0.82781  Biso   1.000  C
  C5       1.0000 0.21080  0.30481  0.41144  Biso   1.000  C
  C6       1.0000 0.28920  0.80481  0.08856  Biso   1.000  C
  C7       1.0000 0.78920  0.69519  0.58856  Biso   1.000  C
  C8       1.0000 0.71080  0.19519  0.91144  Biso   1.000  C
  H1       1.0000 0.16640  0.32020  0.45310  Biso   1.000  H
  H2       1.0000 0.33360  0.82020  0.04690  Biso   1.000  H
  H3       1.0000 0.83360  0.67980  0.54690  Biso   1.000  H
  H4       1.0000 0.66640  0.17980  0.95310  Biso   1.000  H
  C9       1.0000 0.35820  0.29595  0.32397  Biso   1.000  C
  C10      1.0000 0.14180  0.79595  0.17603  Biso   1.000  C
  C11      1.0000 0.64180  0.70405  0.67603  Biso   1.000  C
  C12      1.0000 0.85820  0.20405  0.82397  Biso   1.000  C
  H5       1.0000 0.43250  0.30330  0.29400  Biso   1.000  H
  H6       1.0000 0.06750  0.80330  0.20600  Biso   1.000  H
  H7       1.0000 0.56750  0.69670  0.70600  Biso   1.000  H
  H8       1.0000 0.93250  0.19670  0.79400  Biso   1.000  H
  C13      1.0000 0.26260  0.24846  0.31516  Biso   1.000  C
  C14      1.0000 0.23740  0.74846  0.18484  Biso   1.000  C
  C15      1.0000 0.73740  0.75154  0.68484  Biso   1.000  C
  C16      1.0000 0.76260  0.25154  0.81516  Biso   1.000  C
  H9       1.0000 0.25970  0.21670  0.27750  Biso   1.000  H
  H10      1.0000 0.24030  0.71670  0.22250  Biso   1.000  H
  H11      1.0000 0.74030  0.78330  0.72250  Biso   1.000  H
  H12      1.0000 0.75970  0.28330  0.77750  Biso   1.000  H
  C17      1.0000 0.66790  0.16165  0.32186  Biso   1.000  C
  C18      1.0000 0.83210  0.66165  0.17814  Biso   1.000  C
  C19      1.0000 0.33210  0.83835  0.67814  Biso   1.000  C
  C20      1.0000 0.16790  0.33835  0.82186  Biso   1.000  C
  H13      1.0000 0.63540  0.19850  0.29660  Biso   1.000  H
  H14      1.0000 0.86460  0.69850  0.20340  Biso   1.000  H
  H15      1.0000 0.36460  0.80150  0.70340  Biso   1.000  H
  H16      1.0000 0.13540  0.30150  0.79660  Biso   1.000  H
  C21      1.0000 0.66420  0.06877  0.35960  Biso   1.000  C
  C22      1.0000 0.83580  0.56877  0.14040  Biso   1.000  C
  C23      1.0000 0.33580  0.93123  0.64040  Biso   1.000  C
  C24      1.0000 0.16420  0.43123  0.85960  Biso   1.000  C
  H17      1.0000 0.63130  0.02990  0.36580  Biso   1.000  H
  H18      1.0000 0.86870  0.52990  0.13420  Biso   1.000  H
  H19      1.0000 0.36870  0.97010  0.63420  Biso   1.000  H
  H20      1.0000 0.13130  0.47010  0.86580  Biso   1.000  H
  C25      1.0000 0.80850  0.09141  0.39303  Biso   1.000  C
  C26      1.0000 0.69150  0.59141  0.10697  Biso   1.000  C
  C27      1.0000 0.19150  0.90859  0.60697  Biso   1.000  C
  C28      1.0000 0.30850  0.40859  0.89303  Biso   1.000  C
  H21      1.0000 0.89320  0.07040  0.42700  Biso   1.000  H
  H22      1.0000 0.60680  0.57040  0.07300  Biso   1.000  H
  H23      1.0000 0.10680  0.92960  0.57300  Biso   1.000  H
  H24      1.0000 0.39320  0.42960  0.92700  Biso   1.000  H
  C29      1.0000 0.81640  0.28155  0.26592  Biso   1.000  C
  C30      1.0000 0.68360  0.78155  0.23408  Biso   1.000  C
  C31      1.0000 0.18360  0.71845  0.73408  Biso   1.000  C
  C32      1.0000 0.31640  0.21845  0.76592  Biso   1.000  C
  C33      1.0000 0.72760  0.33603  0.22706  Biso   1.000  C
  C34      1.0000 0.77240  0.83603  0.27294  Biso   1.000  C
  C35      1.0000 0.27240  0.66397  0.77294  Biso   1.000  C
  C36      1.0000 0.22760  0.16397  0.72706  Biso   1.000  C
  C37      1.0000 0.77310  0.39192  0.26250  Biso   1.000  C
  C38      1.0000 0.72690  0.89192  0.23750  Biso   1.000  C
  C39      1.0000 0.22690  0.60808  0.73750  Biso   1.000  C
  C40      1.0000 0.27310  0.10808  0.76250  Biso   1.000  C
  H25      1.0000 0.85570  0.39500  0.31190  Biso   1.000  H
  H26      1.0000 0.64430  0.89500  0.18810  Biso   1.000  H
  H27      1.0000 0.14430  0.60500  0.68810  Biso   1.000  H
  H28      1.0000 0.35570  0.10500  0.81190  Biso   1.000  H
  C41      1.0000 0.69730  0.44292  0.22524  Biso   1.000  C
  C42      1.0000 0.80270  0.94292  0.27476  Biso   1.000  C
  C43      1.0000 0.30270  0.55708  0.77476  Biso   1.000  C
  C44      1.0000 0.19730  0.05708  0.72524  Biso   1.000  C
  H29      1.0000 0.72870  0.48020  0.24950  Biso   1.000  H
  H30      1.0000 0.77130  0.98020  0.25050  Biso   1.000  H
  H31      1.0000 0.27130  0.51980  0.75050  Biso   1.000  H
  H32      1.0000 0.22870  0.01980  0.74950  Biso   1.000  H
  C45      1.0000 0.57570  0.43866  0.15250  Biso   1.000  C
  C46      1.0000 0.92430  0.93866  0.34750  Biso   1.000  C
  C47      1.0000 0.42430  0.56134  0.84750  Biso   1.000  C
  C48      1.0000 0.07570  0.06134  0.65250  Biso   1.000  C
  H33      1.0000 0.52370  0.47300  0.12780  Biso   1.000  H
  H34      1.0000 0.97630  0.97300  0.37220  Biso   1.000  H
  H35      1.0000 0.47630  0.52700  0.87220  Biso   1.000  H
  H36      1.0000 0.02370  0.02700  0.62780  Biso   1.000  H
  C49      1.0000 0.52970  0.38358  0.11578  Biso   1.000  C
  C50      1.0000 0.97030  0.88358  0.38422  Biso   1.000  C
  C51      1.0000 0.47030  0.61642  0.88422  Biso   1.000  C
  C52      1.0000 0.02970  0.11642  0.61578  Biso   1.000  C
  H37      1.0000 0.44730  0.38130  0.06610  Biso   1.000  H
  H38      1.0000 0.05270  0.88130  0.43390  Biso   1.000  H
  H39      1.0000 0.55270  0.61870  0.93390  Biso   1.000  H
  H40      1.0000 0.94730  0.11870  0.56610  Biso   1.000  H
  C53      1.0000 0.60440  0.33170  0.15175  Biso   1.000  C
  C54      1.0000 0.89560  0.83170  0.34825  Biso   1.000  C
  C55      1.0000 0.39560  0.66830  0.84825  Biso   1.000  C
  C56      1.0000 0.10440  0.16830  0.65175  Biso   1.000  C
  C57      1.0000 0.54240  0.27331  0.10898  Biso   1.000  C
  C58      1.0000 0.95760  0.77331  0.39102  Biso   1.000  C
  C59      1.0000 0.45760  0.72669  0.89102  Biso   1.000  C
  C60      1.0000 0.04240  0.22669  0.60898  Biso   1.000  C
  C61      1.0000 0.07810  0.21408  0.10451  Biso   1.000  C
  C62      1.0000 0.42190  0.71408  0.39549  Biso   1.000  C
  C63      1.0000 0.92190  0.78592  0.89549  Biso   1.000  C
  C64      1.0000 0.57810  0.28592  0.60451  Biso   1.000  C
  H41      1.0000 0.07530  0.18440  0.14460  Biso   1.000  H
  H42      1.0000 0.42470  0.68440  0.35540  Biso   1.000  H
  H43      1.0000 0.92470  0.81560  0.85540  Biso   1.000  H
  H44      1.0000 0.57530  0.31560  0.64460  Biso   1.000  H
  C65      1.0000 0.01250  0.29180  0.02111  Biso   1.000  C
  C66      1.0000 0.48750  0.79180  0.47889  Biso   1.000  C
  C67      1.0000 0.98750  0.70820  0.97889  Biso   1.000  C
  C68      1.0000 0.51250  0.20820  0.52111  Biso   1.000  C
  H45      1.0000 0.95880  0.32480  0.99280  Biso   1.000  H
  H46      1.0000 0.54120  0.82480  0.50720  Biso   1.000  H
  H47      1.0000 0.04120  0.67520  0.00720  Biso   1.000  H
  H48      1.0000 0.45880  0.17520  0.49280  Biso   1.000  H
  C69      1.0000 0.14710  0.26889  0.01204  Biso   1.000  C
  C70      1.0000 0.35290  0.76889  0.48796  Biso   1.000  C
  C71      1.0000 0.85290  0.73111  0.98796  Biso   1.000  C
  C72      1.0000 0.64710  0.23111  0.51204  Biso   1.000  C
  H49      1.0000 0.20410  0.28400  0.97600  Biso   1.000  H
  H50      1.0000 0.29590  0.78400  0.52400  Biso   1.000  H
  H51      1.0000 0.79590  0.71600  0.02400  Biso   1.000  H
  H52      1.0000 0.70410  0.21600  0.47600  Biso   1.000  H
  C73      1.0000 0.70530  0.12889  0.13118  Biso   1.000  C
  C74      1.0000 0.79470  0.62889  0.36882  Biso   1.000  C
  C75      1.0000 0.29470  0.87111  0.86882  Biso   1.000  C
  C76      1.0000 0.20530  0.37111  0.63118  Biso   1.000  C
  H53      1.0000 0.73840  0.16170  0.16690  Biso   1.000  H
  H54      1.0000 0.76160  0.66170  0.33310  Biso   1.000  H
  H55      1.0000 0.26160  0.83830  0.83310  Biso   1.000  H
  H56      1.0000 0.23840  0.33830  0.66690  Biso   1.000  H
  C77      1.0000 0.71050  0.04613  0.06370  Biso   1.000  C
  C78      1.0000 0.78950  0.54613  0.43630  Biso   1.000  C
  C79      1.0000 0.28950  0.95387  0.93630  Biso   1.000  C
  C80      1.0000 0.21050  0.45387  0.56370  Biso   1.000  C
  H57      1.0000 0.74420  0.01080  0.04400  Biso   1.000  H
  H58      1.0000 0.75580  0.51080  0.45600  Biso   1.000  H
  H59      1.0000 0.25580  0.98920  0.95600  Biso   1.000  H
  H60      1.0000 0.24420  0.48920  0.54400  Biso   1.000  H
  C81      1.0000 0.56560  0.06879  0.04060  Biso   1.000  C
  C82      1.0000 0.93440  0.56879  0.45940  Biso   1.000  C
  C83      1.0000 0.43440  0.93121  0.95940  Biso   1.000  C
  C84      1.0000 0.06560  0.43121  0.54060  Biso   1.000  C
  H61      1.0000 0.48090  0.05170  0.00090  Biso   1.000  H
  H62      1.0000 0.01910  0.55170  0.49910  Biso   1.000  H
  H63      1.0000 0.51910  0.94830  0.99910  Biso   1.000  H
  H64      1.0000 0.98090  0.44830  0.50090  Biso   1.000  H
  C85      1.0000 0.22400  0.06142  0.17294  Biso   1.000  C
  C86      1.0000 0.27600  0.56142  0.32706  Biso   1.000  C
  C87      1.0000 0.77600  0.93858  0.82706  Biso   1.000  C
  C88      1.0000 0.72400  0.43858  0.67294  Biso   1.000  C
  C89      1.0000 0.25800  0.02639  0.25609  Biso   1.000  C
  C90      1.0000 0.24200  0.52639  0.24391  Biso   1.000  C
  C91      1.0000 0.74200  0.97361  0.74391  Biso   1.000  C
  C92      1.0000 0.75800  0.47361  0.75609  Biso   1.000  C
  C93      1.0000 0.22980  0.04916  0.33117  Biso   1.000  C
  C94      1.0000 0.27020  0.54916  0.16883  Biso   1.000  C
  C95      1.0000 0.77020  0.95084  0.66883  Biso   1.000  C
  C96      1.0000 0.72980  0.45084  0.83117  Biso   1.000  C
  C97      1.0000 0.28070  0.01730  0.40768  Biso   1.000  C
  C98      1.0000 0.21930  0.51730  0.09232  Biso   1.000  C
  C99      1.0000 0.71930  0.98270  0.59232  Biso   1.000  C
  C100     1.0000 0.78070  0.48270  0.90768  Biso   1.000  C
  H65      1.0000 0.26600  0.03300  0.45840  Biso   1.000  H
  H66      1.0000 0.23400  0.53300  0.04160  Biso   1.000  H
  H67      1.0000 0.73400  0.96700  0.54160  Biso   1.000  H
  H68      1.0000 0.76600  0.46700  0.95840  Biso   1.000  H
  C101     1.0000 0.35330  0.96231  0.40891  Biso   1.000  C
  C102     1.0000 0.14670  0.46231  0.09109  Biso   1.000  C
  C103     1.0000 0.64670  0.03769  0.59109  Biso   1.000  C
  C104     1.0000 0.85330  0.53769  0.90891  Biso   1.000  C
  H69      1.0000 0.38660  0.94120  0.46030  Biso   1.000  H
  H70      1.0000 0.11340  0.44120  0.03970  Biso   1.000  H
  H71      1.0000 0.61340  0.05880  0.53970  Biso   1.000  H
  H72      1.0000 0.88660  0.55880  0.96030  Biso   1.000  H
  C105     1.0000 0.37590  0.93897  0.33427  Biso   1.000  C
  C106     1.0000 0.12410  0.43897  0.16573  Biso   1.000  C
  C107     1.0000 0.62410  0.06103  0.66573  Biso   1.000  C
  C108     1.0000 0.87590  0.56103  0.83427  Biso   1.000  C
  H73      1.0000 0.42220  0.90160  0.33490  Biso   1.000  H
  H74      1.0000 0.07780  0.40160  0.16510  Biso   1.000  H
  H75      1.0000 0.57780  0.09840  0.66510  Biso   1.000  H
  H76      1.0000 0.92220  0.59840  0.83490  Biso   1.000  H
  C109     1.0000 0.32980  0.97094  0.25819  Biso   1.000  C
  C110     1.0000 0.17020  0.47094  0.24181  Biso   1.000  C
  C111     1.0000 0.67020  0.02906  0.74181  Biso   1.000  C
  C112     1.0000 0.82980  0.52906  0.75819  Biso   1.000  C
  H77      1.0000 0.34700  0.95520  0.20800  Biso   1.000  H
  H78      1.0000 0.15300  0.45520  0.29200  Biso   1.000  H
  H79      1.0000 0.65300  0.04480  0.79200  Biso   1.000  H
  H80      1.0000 0.84700  0.54480  0.70800  Biso   1.000  H
  N1       1.0000 0.16970  0.25435  0.37070  Biso   1.000  N
  N2       1.0000 0.33030  0.75435  0.12930  Biso   1.000  N
  N3       1.0000 0.83030  0.74565  0.62930  Biso   1.000  N
  N4       1.0000 0.66970  0.24565  0.87070  Biso   1.000  N
  N5       1.0000 0.32460  0.33113  0.38545  Biso   1.000  N
  N6       1.0000 0.17540  0.83113  0.11455  Biso   1.000  N
  N7       1.0000 0.67540  0.66887  0.61455  Biso   1.000  N
  N8       1.0000 0.82460  0.16887  0.88545  Biso   1.000  N
  H81      1.0000 0.36900  0.36450  0.40420  Biso   1.000  H
  H82      1.0000 0.13100  0.86450  0.09580  Biso   1.000  H
  H83      1.0000 0.63100  0.63550  0.59580  Biso   1.000  H
  H84      1.0000 0.86900  0.13550  0.90420  Biso   1.000  H
  N9       1.0000 0.81108  0.15013  0.36920  Biso   1.000  N
  N10      1.0000 0.68892  0.65013  0.13080  Biso   1.000  N
  N11      1.0000 0.18892  0.84987  0.63080  Biso   1.000  N
  N12      1.0000 0.31108  0.34987  0.86920  Biso   1.000  N
  N13      1.0000 0.57670  0.11400  0.31502  Biso   1.000  N
  N14      1.0000 0.92330  0.61400  0.18498  Biso   1.000  N
  N15      1.0000 0.42330  0.88600  0.68498  Biso   1.000  N
  N16      1.0000 0.07670  0.38600  0.81502  Biso   1.000  N
  H85      1.0000 0.47950  0.11210  0.28730  Biso   1.000  H
  H86      1.0000 0.02050  0.61210  0.21270  Biso   1.000  H
  H87      1.0000 0.52050  0.88790  0.71270  Biso   1.000  H
  H88      1.0000 0.97950  0.38790  0.78730  Biso   1.000  H
  N17      1.0000 0.18769  0.21956  0.06446  Biso   1.000  N
  N18      1.0000 0.31231  0.71956  0.43554  Biso   1.000  N
  N19      1.0000 0.81231  0.78044  0.93554  Biso   1.000  N
  N20      1.0000 0.68769  0.28044  0.56446  Biso   1.000  N
  N21      1.0000 0.97120  0.25684  0.07998  Biso   1.000  N
  N22      1.0000 0.52880  0.75684  0.42002  Biso   1.000  N
  N23      1.0000 0.02880  0.74316  0.92002  Biso   1.000  N
  N24      1.0000 0.47120  0.24316  0.57998  Biso   1.000  N
  H89      1.0000 0.88950  0.26150  0.09850  Biso   1.000  H
  H90      1.0000 0.61050  0.76150  0.40150  Biso   1.000  H
  H91      1.0000 0.11050  0.73850  0.90150  Biso   1.000  H
  H92      1.0000 0.38950  0.23850  0.59850  Biso   1.000  H
  N25      1.0000 0.56143  0.12083  0.08444  Biso   1.000  N
  N26      1.0000 0.93857  0.62083  0.41556  Biso   1.000  N
  N27      1.0000 0.43857  0.87917  0.91556  Biso   1.000  N
  N28      1.0000 0.06143  0.37917  0.58444  Biso   1.000  N
  N29      1.0000 0.79750  0.08444  0.12112  Biso   1.000  N
  N30      1.0000 0.70250  0.58444  0.37888  Biso   1.000  N
  N31      1.0000 0.20250  0.91556  0.87888  Biso   1.000  N
  N32      1.0000 0.29750  0.41556  0.62112  Biso   1.000  N
  H93      1.0000 0.89530  0.08080  0.14670  Biso   1.000  H
  H94      1.0000 0.60470  0.58080  0.35330  Biso   1.000  H
  H95      1.0000 0.10470  0.91920  0.85330  Biso   1.000  H
  H96      1.0000 0.39530  0.41920  0.64670  Biso   1.000  H
  O1       1.0000 0.05134  0.12191  0.25671  Biso   1.000  O
  O2       1.0000 0.44866  0.62191  0.24329  Biso   1.000  O
  O3       1.0000 0.94866  0.87809  0.74329  Biso   1.000  O
  O4       1.0000 0.55134  0.37809  0.75671  Biso   1.000  O
  O5       1.0000 0.13880  0.13143  0.39843  Biso   1.000  O
  O6       1.0000 0.36120  0.63143  0.10157  Biso   1.000  O
  O7       1.0000 0.86120  0.86857  0.60157  Biso   1.000  O
  O8       1.0000 0.63880  0.36857  0.89843  Biso   1.000  O
  O9       1.0000 0.85092  0.27603  0.34829  Biso   1.000  O
  O10      1.0000 0.64908  0.77603  0.15171  Biso   1.000  O
  O11      1.0000 0.14908  0.72397  0.65171  Biso   1.000  O
  O12      1.0000 0.35092  0.22397  0.84829  Biso   1.000  O
  O13      1.0000 0.85423  0.24466  0.21873  Biso   1.000  O
  O14      1.0000 0.64577  0.74466  0.28127  Biso   1.000  O
  O15      1.0000 0.14577  0.75534  0.78127  Biso   1.000  O
  O16      1.0000 0.35423  0.25534  0.71873  Biso   1.000  O
  O17      1.0000 0.52540  0.26732  0.03071  Biso   1.000  O
  O18      1.0000 0.97460  0.76732  0.46929  Biso   1.000  O
  O19      1.0000 0.47460  0.73268  0.96929  Biso   1.000  O
  O20      1.0000 0.02540  0.23268  0.53071  Biso   1.000  O
  O21      1.0000 0.50218  0.23429  0.15624  Biso   1.000  O
  O22      1.0000 0.99782  0.73429  0.34376  Biso   1.000  O
  O23      1.0000 0.49782  0.76571  0.84376  Biso   1.000  O
  O24      1.0000 0.00218  0.26571  0.65624  Biso   1.000  O
  O25      1.0000 0.28756  0.13852  0.95524  Biso   1.000  O
  O26      1.0000 0.21244  0.63852  0.54476  Biso   1.000  O
  O27      1.0000 0.71244  0.86148  0.04476  Biso   1.000  O
  O28      1.0000 0.78756  0.36148  0.45524  Biso   1.000  O
  O29      1.0000 0.30788  0.10646  0.17293  Biso   1.000  O
  O30      1.0000 0.19212  0.60646  0.32707  Biso   1.000  O
  O31      1.0000 0.69212  0.89354  0.82707  Biso   1.000  O
  O32      1.0000 0.80788  0.39354  0.67293  Biso   1.000  O
  O33      1.0000 0.12045  0.04168  0.10988  Biso   1.000  O
  O34      1.0000 0.37955  0.54168  0.39012  Biso   1.000  O
  O35      1.0000 0.87955  0.95832  0.89012  Biso   1.000  O
  O36      1.0000 0.62045  0.45832  0.60988  Biso   1.000  O
  Cu1      1.0000 0.99542  0.20226  0.37825  Biso   1.000  Cu
  Cu2      1.0000 0.50458  0.70226  0.12175  Biso   1.000  Cu
  Cu3      1.0000 0.00458  0.79774  0.62175  Biso   1.000  Cu
  Cu4      1.0000 0.49542  0.29774  0.87825  Biso   1.000  Cu
  Cu5      1.0000 0.37696  0.17113  0.07794  Biso   1.000  Cu
  Cu6      1.0000 0.12304  0.67113  0.42206  Biso   1.000  Cu
  Cu7      1.0000 0.62304  0.82887  0.92206  Biso   1.000  Cu
  Cu8      1.0000 0.87696  0.32887  0.57794  Biso   1.000  Cu
  H97      1.0000 0.29000  0.16520  0.91910  Biso   1.000  H
  H98      1.0000 0.21000  0.66520  0.58090  Biso   1.000  H
  H99      1.0000 0.71000  0.83480  0.08090  Biso   1.000  H
  H100     1.0000 0.79000  0.33480  0.41910  Biso   1.000  H
  H101     1.0000 0.20000  0.12250  0.94430  Biso   1.000  H
  H102     1.0000 0.30000  0.62250  0.55570  Biso   1.000  H
  H103     1.0000 0.80000  0.87750  0.05570  Biso   1.000  H
  H104     1.0000 0.70000  0.37750  0.44430  Biso   1.000  H
  O37      1.0000 0.51690  0.42971  0.44172  Biso   1.000  O
  O38      1.0000 0.98310  0.92971  0.05828  Biso   1.000  O
  O39      1.0000 0.48310  0.57029  0.55828  Biso   1.000  O
  O40      1.0000 0.01690  0.07029  0.94172  Biso   1.000  O
  H105     1.0000 0.47500  0.46050  0.41720  Biso   1.000  H
  H106     1.0000 0.02500  0.96050  0.08280  Biso   1.000  H
  H107     1.0000 0.52500  0.53950  0.58280  Biso   1.000  H
  H108     1.0000 0.97500  0.03950  0.91720  Biso   1.000  H
  H109     1.0000 0.54600  0.43460  0.49530  Biso   1.000  H
  H110     1.0000 0.95400  0.93460  0.00470  Biso   1.000  H
  H111     1.0000 0.45400  0.56540  0.50470  Biso   1.000  H
  H112     1.0000 0.04600  0.06540  0.99530  Biso   1.000  H
