data_image0
_cell_length_a       8.8863
_cell_length_b       22.3787
_cell_length_c       16.1281
_cell_angle_alpha    90
_cell_angle_beta     106.47
_cell_angle_gamma    90

_symmetry_space_group_name_H-M    "P 1"
_symmetry_int_tables_number       1

loop_
  _symmetry_equiv_pos_as_xyz
  'x, y, z'

loop_
  _atom_site_label
  _atom_site_occupancy
  _atom_site_fract_x
  _atom_site_fract_y
  _atom_site_fract_z
  _atom_site_thermal_displace_type
  _atom_site_B_iso_or_equiv
  _atom_site_type_symbol
  Cu1      1.0000 0.38368  0.70223  0.87826  Biso   1.000  Cu
  Cu2      1.0000 0.61632  0.20223  0.62174  Biso   1.000  Cu
  Cu3      1.0000 0.61632  0.29777  0.12174  Biso   1.000  Cu
  Cu4      1.0000 0.38368  0.79777  0.37826  Biso   1.000  Cu
  N1       1.0000 0.55910  0.65009  0.86917  Biso   1.000  N
  N2       1.0000 0.44090  0.15009  0.63083  Biso   1.000  N
  N3       1.0000 0.44090  0.34991  0.13083  Biso   1.000  N
  N4       1.0000 0.55910  0.84991  0.36917  Biso   1.000  N
  N5       1.0000 0.20210  0.75450  0.87043  Biso   1.000  N
  N6       1.0000 0.79790  0.25450  0.62957  Biso   1.000  N
  N7       1.0000 0.79790  0.24550  0.12957  Biso   1.000  N
  N8       1.0000 0.20210  0.74550  0.37043  Biso   1.000  N
  O1       1.0000 0.49842  0.77613  0.84819  Biso   1.000  O
  O2       1.0000 0.50158  0.27613  0.65181  Biso   1.000  O
  O3       1.0000 0.50158  0.22387  0.15181  Biso   1.000  O
  O4       1.0000 0.49842  0.72387  0.34819  Biso   1.000  O
  O5       1.0000 0.26100  0.63140  0.89838  Biso   1.000  O
  O6       1.0000 0.73900  0.13140  0.60162  Biso   1.000  O
  O7       1.0000 0.73900  0.36860  0.10162  Biso   1.000  O
  O8       1.0000 0.26100  0.86860  0.39838  Biso   1.000  O
  Cu5      1.0000 0.70144  0.67113  0.57787  Biso   1.000  Cu
  Cu6      1.0000 0.29856  0.17113  0.92213  Biso   1.000  Cu
  Cu7      1.0000 0.29856  0.32887  0.42213  Biso   1.000  Cu
  Cu8      1.0000 0.70144  0.82887  0.07787  Biso   1.000  Cu
  N9       1.0000 0.52400  0.62074  0.58464  Biso   1.000  N
  N10      1.0000 0.47600  0.12074  0.91536  Biso   1.000  N
  N11      1.0000 0.47600  0.37926  0.41536  Biso   1.000  N
  N12      1.0000 0.52400  0.87926  0.08464  Biso   1.000  N
  N13      1.0000 0.87750  0.71926  0.56451  Biso   1.000  N
  N14      1.0000 0.12250  0.21926  0.93549  Biso   1.000  N
  N15      1.0000 0.12250  0.28074  0.43549  Biso   1.000  N
  N16      1.0000 0.87750  0.78074  0.06451  Biso   1.000  N
  O9       1.0000 0.86595  0.60632  0.67299  Biso   1.000  O
  O10      1.0000 0.13405  0.10632  0.82701  Biso   1.000  O
  O11      1.0000 0.13405  0.39368  0.32701  Biso   1.000  O
  O12      1.0000 0.86595  0.89368  0.17299  Biso   1.000  O
  O13      1.0000 0.65465  0.73412  0.65622  Biso   1.000  O
  O14      1.0000 0.34535  0.23412  0.84378  Biso   1.000  O
  O15      1.0000 0.34535  0.26588  0.34378  Biso   1.000  O
  O16      1.0000 0.65465  0.76588  0.15622  Biso   1.000  O
  O17      1.0000 0.66810  0.63837  0.45539  Biso   1.000  O
  O18      1.0000 0.33190  0.13837  0.04461  Biso   1.000  O
  O19      1.0000 0.33190  0.36163  0.54461  Biso   1.000  O
  O20      1.0000 0.66810  0.86163  0.95539  Biso   1.000  O
  H1       1.0000 0.73900  0.62220  0.44220  Biso   1.000  H
  H2       1.0000 0.26100  0.12220  0.05780  Biso   1.000  H
  H3       1.0000 0.26100  0.37780  0.55780  Biso   1.000  H
  H4       1.0000 0.73900  0.87780  0.94220  Biso   1.000  H
  H5       1.0000 0.63500  0.66480  0.42010  Biso   1.000  H
  H6       1.0000 0.36500  0.16480  0.07990  Biso   1.000  H
  H7       1.0000 0.36500  0.33520  0.57990  Biso   1.000  H
  H8       1.0000 0.63500  0.83520  0.92010  Biso   1.000  H
  C1       1.0000 0.65470  0.66159  0.82204  Biso   1.000  C
  C2       1.0000 0.34530  0.16159  0.67796  Biso   1.000  C
  C3       1.0000 0.34530  0.33841  0.17796  Biso   1.000  C
  C4       1.0000 0.65470  0.83841  0.32204  Biso   1.000  C
  H9       1.0000 0.66180  0.69840  0.79670  Biso   1.000  H
  H10      1.0000 0.33820  0.19840  0.70330  Biso   1.000  H
  H11      1.0000 0.33820  0.30160  0.20330  Biso   1.000  H
  H12      1.0000 0.66180  0.80160  0.29670  Biso   1.000  H
  C5       1.0000 0.69650  0.56865  0.85990  Biso   1.000  C
  C6       1.0000 0.30350  0.06865  0.64010  Biso   1.000  C
  C7       1.0000 0.30350  0.43135  0.14010  Biso   1.000  C
  C8       1.0000 0.69650  0.93135  0.35990  Biso   1.000  C
  H13      1.0000 0.73560  0.52990  0.86620  Biso   1.000  H
  H14      1.0000 0.26440  0.02990  0.63380  Biso   1.000  H
  H15      1.0000 0.26440  0.47010  0.13380  Biso   1.000  H
  H16      1.0000 0.73560  0.97010  0.36620  Biso   1.000  H
  C9       1.0000 0.58540  0.59150  0.89289  Biso   1.000  C
  C10      1.0000 0.41460  0.09150  0.60711  Biso   1.000  C
  C11      1.0000 0.41460  0.40850  0.10711  Biso   1.000  C
  C12      1.0000 0.58540  0.90850  0.39289  Biso   1.000  C
  H17      1.0000 0.53430  0.57050  0.92670  Biso   1.000  H
  H18      1.0000 0.46570  0.07050  0.57330  Biso   1.000  H
  H19      1.0000 0.46570  0.42950  0.07330  Biso   1.000  H
  H20      1.0000 0.53430  0.92950  0.42670  Biso   1.000  H
  C13      1.0000 0.20160  0.80465  0.91175  Biso   1.000  C
  C14      1.0000 0.79840  0.30465  0.58825  Biso   1.000  C
  C15      1.0000 0.79840  0.19535  0.08825  Biso   1.000  C
  C16      1.0000 0.20160  0.69535  0.41175  Biso   1.000  C
  H21      1.0000 0.28740  0.81980  0.95390  Biso   1.000  H
  H22      1.0000 0.71260  0.31980  0.54610  Biso   1.000  H
  H23      1.0000 0.71260  0.18020  0.04610  Biso   1.000  H
  H24      1.0000 0.28740  0.68020  0.45390  Biso   1.000  H
  C17      1.0000 0.96680  0.79600  0.82388  Biso   1.000  C
  C18      1.0000 0.03320  0.29600  0.67612  Biso   1.000  C
  C19      1.0000 0.03320  0.20400  0.17612  Biso   1.000  C
  C20      1.0000 0.96680  0.70400  0.32388  Biso   1.000  C
  H25      1.0000 0.86250  0.80330  0.79390  Biso   1.000  H
  H26      1.0000 0.13750  0.30330  0.70610  Biso   1.000  H
  H27      1.0000 0.13750  0.19670  0.20610  Biso   1.000  H
  H28      1.0000 0.86250  0.69670  0.29390  Biso   1.000  H
  C21      1.0000 0.05370  0.74857  0.81509  Biso   1.000  C
  C22      1.0000 0.94630  0.24857  0.68491  Biso   1.000  C
  C23      1.0000 0.94630  0.25143  0.18491  Biso   1.000  C
  C24      1.0000 0.05370  0.75143  0.31509  Biso   1.000  C
  H29      1.0000 0.01890  0.71670  0.77750  Biso   1.000  H
  H30      1.0000 0.98110  0.21670  0.72250  Biso   1.000  H
  H31      1.0000 0.98110  0.28330  0.22250  Biso   1.000  H
  H32      1.0000 0.01890  0.78330  0.27750  Biso   1.000  H
  C25      1.0000 0.42730  0.62872  0.63158  Biso   1.000  C
  C26      1.0000 0.57270  0.12872  0.86842  Biso   1.000  C
  C27      1.0000 0.57270  0.37128  0.36842  Biso   1.000  C
  C28      1.0000 0.42730  0.87128  0.13158  Biso   1.000  C
  H33      1.0000 0.43030  0.66150  0.66750  Biso   1.000  H
  H34      1.0000 0.56970  0.16150  0.83250  Biso   1.000  H
  H35      1.0000 0.56970  0.33850  0.33250  Biso   1.000  H
  H36      1.0000 0.43030  0.83850  0.16750  Biso   1.000  H
  C29      1.0000 0.35410  0.54609  0.56400  Biso   1.000  C
  C30      1.0000 0.64590  0.04609  0.93600  Biso   1.000  C
  C31      1.0000 0.64590  0.45391  0.43600  Biso   1.000  C
  C32      1.0000 0.35410  0.95391  0.06400  Biso   1.000  C
  H37      1.0000 0.30080  0.51080  0.54400  Biso   1.000  H
  H38      1.0000 0.69920  0.01080  0.95600  Biso   1.000  H
  H39      1.0000 0.69920  0.48920  0.45600  Biso   1.000  H
  H40      1.0000 0.30080  0.98920  0.04400  Biso   1.000  H
  C33      1.0000 0.47520  0.56878  0.54130  Biso   1.000  C
  C34      1.0000 0.52480  0.06878  0.95870  Biso   1.000  C
  C35      1.0000 0.52480  0.43122  0.45870  Biso   1.000  C
  C36      1.0000 0.47520  0.93122  0.04130  Biso   1.000  C
  H41      1.0000 0.52020  0.55160  0.50160  Biso   1.000  H
  H42      1.0000 0.47980  0.05160  0.99840  Biso   1.000  H
  H43      1.0000 0.47980  0.44840  0.49840  Biso   1.000  H
  H44      1.0000 0.52020  0.94840  0.00160  Biso   1.000  H
  C37      1.0000 0.02700  0.71387  0.60444  Biso   1.000  C
  C38      1.0000 0.97300  0.21387  0.89556  Biso   1.000  C
  C39      1.0000 0.97300  0.28613  0.39556  Biso   1.000  C
  C40      1.0000 0.02700  0.78613  0.10444  Biso   1.000  C
  H45      1.0000 0.06980  0.68430  0.64470  Biso   1.000  H
  H46      1.0000 0.93020  0.18430  0.85530  Biso   1.000  H
  H47      1.0000 0.93020  0.31570  0.35530  Biso   1.000  H
  H48      1.0000 0.06980  0.81570  0.14470  Biso   1.000  H
  C41      1.0000 0.00950  0.79167  0.52102  Biso   1.000  C
  C42      1.0000 0.99050  0.29167  0.97898  Biso   1.000  C
  C43      1.0000 0.99050  0.20833  0.47898  Biso   1.000  C
  C44      1.0000 0.00950  0.70833  0.02102  Biso   1.000  C
  H49      1.0000 0.03470  0.82480  0.49270  Biso   1.000  H
  H50      1.0000 0.96530  0.32480  0.00730  Biso   1.000  H
  H51      1.0000 0.96530  0.17520  0.50730  Biso   1.000  H
  H52      1.0000 0.03470  0.67520  0.99270  Biso   1.000  H
  C45      1.0000 0.86530  0.76869  0.51215  Biso   1.000  C
  C46      1.0000 0.13470  0.26869  0.98785  Biso   1.000  C
  C47      1.0000 0.13470  0.23131  0.48785  Biso   1.000  C
  C48      1.0000 0.86530  0.73131  0.01215  Biso   1.000  C
  H53      1.0000 0.77220  0.78390  0.47620  Biso   1.000  H
  H54      1.0000 0.22780  0.28390  0.02380  Biso   1.000  H
  H55      1.0000 0.22780  0.21610  0.52380  Biso   1.000  H
  H56      1.0000 0.77220  0.71610  0.97620  Biso   1.000  H
  C49      1.0000 0.45050  0.78165  0.76600  Biso   1.000  C
  C50      1.0000 0.54950  0.28165  0.73400  Biso   1.000  C
  C51      1.0000 0.54950  0.21835  0.23400  Biso   1.000  C
  C52      1.0000 0.45050  0.71835  0.26600  Biso   1.000  C
  C53      1.0000 0.50010  0.83598  0.72686  Biso   1.000  C
  C54      1.0000 0.49990  0.33598  0.77314  Biso   1.000  C
  C55      1.0000 0.49990  0.16402  0.27314  Biso   1.000  C
  C56      1.0000 0.50010  0.66402  0.22686  Biso   1.000  C
  C57      1.0000 0.48910  0.89181  0.76187  Biso   1.000  C
  C58      1.0000 0.51090  0.39181  0.73813  Biso   1.000  C
  C59      1.0000 0.51090  0.10819  0.23813  Biso   1.000  C
  C60      1.0000 0.48910  0.60819  0.26187  Biso   1.000  C
  H57      1.0000 0.45550  0.89480  0.81130  Biso   1.000  H
  H58      1.0000 0.54450  0.39480  0.68870  Biso   1.000  H
  H59      1.0000 0.54450  0.10520  0.18870  Biso   1.000  H
  H60      1.0000 0.45550  0.60520  0.31130  Biso   1.000  H
  C61      1.0000 0.52700  0.94293  0.72480  Biso   1.000  C
  C62      1.0000 0.47300  0.44293  0.77520  Biso   1.000  C
  C63      1.0000 0.47300  0.05707  0.27520  Biso   1.000  C
  C64      1.0000 0.52700  0.55707  0.22480  Biso   1.000  C
  H61      1.0000 0.51920  0.98020  0.74880  Biso   1.000  H
  H62      1.0000 0.48080  0.48020  0.75120  Biso   1.000  H
  H63      1.0000 0.48080  0.01980  0.25120  Biso   1.000  H
  H64      1.0000 0.51920  0.51980  0.24880  Biso   1.000  H
  C65      1.0000 0.57620  0.93809  0.65210  Biso   1.000  C
  C66      1.0000 0.42380  0.43809  0.84790  Biso   1.000  C
  C67      1.0000 0.42380  0.06191  0.34790  Biso   1.000  C
  C68      1.0000 0.57620  0.56191  0.15210  Biso   1.000  C
  H65      1.0000 0.60380  0.97230  0.62710  Biso   1.000  H
  H66      1.0000 0.39620  0.47230  0.87290  Biso   1.000  H
  H67      1.0000 0.39620  0.02770  0.37290  Biso   1.000  H
  H68      1.0000 0.60380  0.52770  0.12710  Biso   1.000  H
  C69      1.0000 0.58520  0.88334  0.61560  Biso   1.000  C
  C70      1.0000 0.41480  0.38334  0.88440  Biso   1.000  C
  C71      1.0000 0.41480  0.11666  0.38440  Biso   1.000  C
  C72      1.0000 0.58520  0.61666  0.11560  Biso   1.000  C
  H69      1.0000 0.61740  0.88110  0.56570  Biso   1.000  H
  H70      1.0000 0.38260  0.38110  0.93430  Biso   1.000  H
  H71      1.0000 0.38260  0.11890  0.43430  Biso   1.000  H
  H72      1.0000 0.61740  0.61890  0.06570  Biso   1.000  H
  C73      1.0000 0.99850  0.52635  0.75601  Biso   1.000  C
  C74      1.0000 0.00150  0.02635  0.74399  Biso   1.000  C
  C75      1.0000 0.00150  0.47365  0.24399  Biso   1.000  C
  C76      1.0000 0.99850  0.97365  0.25601  Biso   1.000  C
  C77      1.0000 0.10220  0.54924  0.83137  Biso   1.000  C
  C78      1.0000 0.89780  0.04924  0.66863  Biso   1.000  C
  C79      1.0000 0.89780  0.45076  0.16863  Biso   1.000  C
  C80      1.0000 0.10220  0.95076  0.33137  Biso   1.000  C
  C81      1.0000 0.12680  0.51692  0.90732  Biso   1.000  C
  C82      1.0000 0.87320  0.01692  0.59268  Biso   1.000  C
  C83      1.0000 0.87320  0.48308  0.09268  Biso   1.000  C
  C84      1.0000 0.12680  0.98308  0.40732  Biso   1.000  C
  H73      1.0000 0.19230  0.53250  0.95830  Biso   1.000  H
  H74      1.0000 0.80770  0.03250  0.54170  Biso   1.000  H
  H75      1.0000 0.80770  0.46750  0.04170  Biso   1.000  H
  H76      1.0000 0.19230  0.96750  0.45830  Biso   1.000  H
  C85      1.0000 0.05650  0.46243  0.90900  Biso   1.000  C
  C86      1.0000 0.94350  0.96243  0.59100  Biso   1.000  C
  C87      1.0000 0.94350  0.53757  0.09100  Biso   1.000  C
  C88      1.0000 0.05650  0.03757  0.40900  Biso   1.000  C
  H77      1.0000 0.07520  0.44150  0.96070  Biso   1.000  H
  H78      1.0000 0.92480  0.94150  0.53930  Biso   1.000  H
  H79      1.0000 0.92480  0.55850  0.03930  Biso   1.000  H
  H80      1.0000 0.07520  0.05850  0.46070  Biso   1.000  H
  C89      1.0000 0.95900  0.43879  0.83460  Biso   1.000  C
  C90      1.0000 0.04100  0.93879  0.66540  Biso   1.000  C
  C91      1.0000 0.04100  0.56121  0.16540  Biso   1.000  C
  C92      1.0000 0.95900  0.06121  0.33460  Biso   1.000  C
  H81      1.0000 0.91330  0.40150  0.83540  Biso   1.000  H
  H82      1.0000 0.08670  0.90150  0.66460  Biso   1.000  H
  H83      1.0000 0.08670  0.59850  0.16460  Biso   1.000  H
  H84      1.0000 0.91330  0.09850  0.33540  Biso   1.000  H
  C93      1.0000 0.92880  0.47110  0.75797  Biso   1.000  C
  C94      1.0000 0.07120  0.97110  0.74203  Biso   1.000  C
  C95      1.0000 0.07120  0.52890  0.24203  Biso   1.000  C
  C96      1.0000 0.92880  0.02890  0.25797  Biso   1.000  C
  H85      1.0000 0.86130  0.45550  0.70760  Biso   1.000  H
  H86      1.0000 0.13870  0.95550  0.79240  Biso   1.000  H
  H87      1.0000 0.13870  0.54450  0.29240  Biso   1.000  H
  H88      1.0000 0.86130  0.04450  0.20760  Biso   1.000  H
  C97      1.0000 0.19490  0.60498  0.82795  Biso   1.000  C
  C98      1.0000 0.80510  0.10498  0.67205  Biso   1.000  C
  C99      1.0000 0.80510  0.39502  0.17205  Biso   1.000  C
  C100     1.0000 0.19490  0.89502  0.32795  Biso   1.000  C
  C101     1.0000 0.95020  0.56143  0.67332  Biso   1.000  C
  C102     1.0000 0.04980  0.06143  0.82668  Biso   1.000  C
  C103     1.0000 0.04980  0.43857  0.32668  Biso   1.000  C
  C104     1.0000 0.95020  0.93857  0.17332  Biso   1.000  C
  C105     1.0000 0.54760  0.83174  0.65162  Biso   1.000  C
  C106     1.0000 0.45240  0.33174  0.84838  Biso   1.000  C
  C107     1.0000 0.45240  0.16826  0.34838  Biso   1.000  C
  C108     1.0000 0.54760  0.66826  0.15162  Biso   1.000  C
  C109     1.0000 0.56760  0.77355  0.60908  Biso   1.000  C
  C110     1.0000 0.43240  0.27355  0.89092  Biso   1.000  C
  C111     1.0000 0.43240  0.22645  0.39092  Biso   1.000  C
  C112     1.0000 0.56760  0.72645  0.10908  Biso   1.000  C
  N17      1.0000 0.73950  0.61428  0.81527  Biso   1.000  N
  N18      1.0000 0.26050  0.11428  0.68473  Biso   1.000  N
  N19      1.0000 0.26050  0.38572  0.18473  Biso   1.000  N
  N20      1.0000 0.73950  0.88572  0.31527  Biso   1.000  N
  H89      1.0000 0.79600  0.61120  0.78020  Biso   1.000  H
  H90      1.0000 0.20400  0.11120  0.71980  Biso   1.000  H
  H91      1.0000 0.20400  0.38880  0.21980  Biso   1.000  H
  H92      1.0000 0.79600  0.88880  0.28020  Biso   1.000  H
  N21      1.0000 0.06190  0.83122  0.88552  Biso   1.000  N
  N22      1.0000 0.93810  0.33122  0.61448  Biso   1.000  N
  N23      1.0000 0.93810  0.16878  0.11448  Biso   1.000  N
  N24      1.0000 0.06190  0.66878  0.38552  Biso   1.000  N
  H93      1.0000 0.03700  0.86440  0.90100  Biso   1.000  H
  H94      1.0000 0.96300  0.36440  0.59900  Biso   1.000  H
  H95      1.0000 0.96300  0.13560  0.09900  Biso   1.000  H
  H96      1.0000 0.03700  0.63560  0.40100  Biso   1.000  H
  N25      1.0000 0.32440  0.58435  0.62159  Biso   1.000  N
  N26      1.0000 0.67560  0.08435  0.87841  Biso   1.000  N
  N27      1.0000 0.67560  0.41565  0.37841  Biso   1.000  N
  N28      1.0000 0.32440  0.91565  0.12159  Biso   1.000  N
  H97      1.0000 0.25900  0.58150  0.65140  Biso   1.000  H
  H98      1.0000 0.74100  0.08150  0.84860  Biso   1.000  H
  H99      1.0000 0.74100  0.41850  0.34860  Biso   1.000  H
  H100     1.0000 0.25900  0.91850  0.15140  Biso   1.000  H
  N29      1.0000 0.10980  0.75650  0.57973  Biso   1.000  N
  N30      1.0000 0.89020  0.25650  0.92027  Biso   1.000  N
  N31      1.0000 0.89020  0.24350  0.42027  Biso   1.000  N
  N32      1.0000 0.10980  0.74350  0.07973  Biso   1.000  N
  H101     1.0000 0.20600  0.76280  0.60510  Biso   1.000  H
  H102     1.0000 0.79400  0.26280  0.89490  Biso   1.000  H
  H103     1.0000 0.79400  0.23720  0.39490  Biso   1.000  H
  H104     1.0000 0.20600  0.73720  0.10510  Biso   1.000  H
  O21      1.0000 0.36521  0.74479  0.71874  Biso   1.000  O
  O22      1.0000 0.63479  0.24479  0.78126  Biso   1.000  O
  O23      1.0000 0.63479  0.25521  0.28126  Biso   1.000  O
  O24      1.0000 0.36521  0.75521  0.21874  Biso   1.000  O
  O25      1.0000 0.20600  0.62187  0.75677  Biso   1.000  O
  O26      1.0000 0.79400  0.12187  0.74323  Biso   1.000  O
  O27      1.0000 0.79400  0.37813  0.24323  Biso   1.000  O
  O28      1.0000 0.20600  0.87813  0.25677  Biso   1.000  O
  O29      1.0000 0.98990  0.54151  0.60978  Biso   1.000  O
  O30      1.0000 0.01010  0.04151  0.89022  Biso   1.000  O
  O31      1.0000 0.01010  0.45849  0.39022  Biso   1.000  O
  O32      1.0000 0.98990  0.95849  0.10978  Biso   1.000  O
  O33      1.0000 0.50610  0.76725  0.53056  Biso   1.000  O
  O34      1.0000 0.49390  0.26725  0.96944  Biso   1.000  O
  O35      1.0000 0.49390  0.23275  0.46944  Biso   1.000  O
  O36      1.0000 0.50610  0.73275  0.03056  Biso   1.000  O
  O37      1.0000 0.07490  0.42958  0.55832  Biso   1.000  O
  O38      1.0000 0.92510  0.92958  0.94168  Biso   1.000  O
  O39      1.0000 0.92510  0.57042  0.44168  Biso   1.000  O
  O40      1.0000 0.07490  0.07042  0.05832  Biso   1.000  O
  H105     1.0000 0.05100  0.43490  0.50620  Biso   1.000  H
  H106     1.0000 0.94900  0.93490  0.99380  Biso   1.000  H
  H107     1.0000 0.94900  0.56510  0.49380  Biso   1.000  H
  H108     1.0000 0.05100  0.06510  0.00620  Biso   1.000  H
  H109     1.0000 0.05700  0.46110  0.57950  Biso   1.000  H
  H110     1.0000 0.94300  0.96110  0.92050  Biso   1.000  H
  H111     1.0000 0.94300  0.53890  0.42050  Biso   1.000  H
  H112     1.0000 0.05700  0.03890  0.07950  Biso   1.000  H
