data_image0
_cell_length_a       13.43
_cell_length_b       13.924
_cell_length_c       29.98
_cell_angle_alpha    90
_cell_angle_beta     90
_cell_angle_gamma    90

_symmetry_space_group_name_H-M    "P 1"
_symmetry_int_tables_number       1

loop_
  _symmetry_equiv_pos_as_xyz
  'x, y, z'

loop_
  _atom_site_label
  _atom_site_occupancy
  _atom_site_fract_x
  _atom_site_fract_y
  _atom_site_fract_z
  _atom_site_thermal_displace_type
  _atom_site_B_iso_or_equiv
  _atom_site_type_symbol
  Cu1      1.0000 0.21736  0.13856  0.68399  Biso   1.000  Cu
  Cu2      1.0000 0.28264  0.36144  0.18399  Biso   1.000  Cu
  Cu3      1.0000 0.78264  0.13856  0.81601  Biso   1.000  Cu
  Cu4      1.0000 0.71736  0.36144  0.31601  Biso   1.000  Cu
  Cu5      1.0000 0.78264  0.86144  0.31601  Biso   1.000  Cu
  Cu6      1.0000 0.71736  0.63856  0.81601  Biso   1.000  Cu
  Cu7      1.0000 0.21736  0.86144  0.18399  Biso   1.000  Cu
  Cu8      1.0000 0.28264  0.63856  0.68399  Biso   1.000  Cu
  Cu9      1.0000 0.27548  0.83516  0.43880  Biso   1.000  Cu
  Cu10     1.0000 0.22452  0.66484  0.93880  Biso   1.000  Cu
  Cu11     1.0000 0.72452  0.83516  0.06120  Biso   1.000  Cu
  Cu12     1.0000 0.77548  0.66484  0.56120  Biso   1.000  Cu
  Cu13     1.0000 0.72452  0.16484  0.56120  Biso   1.000  Cu
  Cu14     1.0000 0.77548  0.33516  0.06120  Biso   1.000  Cu
  Cu15     1.0000 0.27548  0.16484  0.93880  Biso   1.000  Cu
  Cu16     1.0000 0.22452  0.33516  0.43880  Biso   1.000  Cu
  N1       1.0000 0.21340  0.05160  0.63043  Biso   1.000  N
  N2       1.0000 0.28660  0.44840  0.13043  Biso   1.000  N
  N3       1.0000 0.78660  0.05160  0.86957  Biso   1.000  N
  N4       1.0000 0.71340  0.44840  0.36957  Biso   1.000  N
  N5       1.0000 0.78660  0.94840  0.36957  Biso   1.000  N
  N6       1.0000 0.71340  0.55160  0.86957  Biso   1.000  N
  N7       1.0000 0.21340  0.94840  0.13043  Biso   1.000  N
  N8       1.0000 0.28660  0.55160  0.63043  Biso   1.000  N
  N9       1.0000 0.08090  0.09460  0.69812  Biso   1.000  N
  N10      1.0000 0.41910  0.40540  0.19812  Biso   1.000  N
  N11      1.0000 0.91910  0.09460  0.80188  Biso   1.000  N
  N12      1.0000 0.58090  0.40540  0.30188  Biso   1.000  N
  N13      1.0000 0.91910  0.90540  0.30188  Biso   1.000  N
  N14      1.0000 0.58090  0.59460  0.80188  Biso   1.000  N
  N15      1.0000 0.08090  0.90540  0.19812  Biso   1.000  N
  N16      1.0000 0.41910  0.59460  0.69812  Biso   1.000  N
  N17      1.0000 0.28530  0.06170  0.74127  Biso   1.000  N
  N18      1.0000 0.21470  0.43830  0.24127  Biso   1.000  N
  N19      1.0000 0.71470  0.06170  0.75873  Biso   1.000  N
  N20      1.0000 0.78530  0.43830  0.25873  Biso   1.000  N
  N21      1.0000 0.71470  0.93830  0.25873  Biso   1.000  N
  N22      1.0000 0.78530  0.56170  0.75873  Biso   1.000  N
  N23      1.0000 0.28530  0.93830  0.24127  Biso   1.000  N
  N24      1.0000 0.21470  0.56170  0.74127  Biso   1.000  N
  N25      1.0000 0.19000  0.27270  0.71315  Biso   1.000  N
  N26      1.0000 0.31000  0.22730  0.21315  Biso   1.000  N
  N27      1.0000 0.81000  0.27270  0.78685  Biso   1.000  N
  N28      1.0000 0.69000  0.22730  0.28685  Biso   1.000  N
  N29      1.0000 0.81000  0.72730  0.28685  Biso   1.000  N
  N30      1.0000 0.69000  0.77270  0.78685  Biso   1.000  N
  N31      1.0000 0.19000  0.72730  0.21315  Biso   1.000  N
  N32      1.0000 0.31000  0.77270  0.71315  Biso   1.000  N
  N33      1.0000 0.35120  0.19580  0.66622  Biso   1.000  N
  N34      1.0000 0.14880  0.30420  0.16622  Biso   1.000  N
  N35      1.0000 0.64880  0.19580  0.83378  Biso   1.000  N
  N36      1.0000 0.85120  0.30420  0.33378  Biso   1.000  N
  N37      1.0000 0.64880  0.80420  0.33378  Biso   1.000  N
  N38      1.0000 0.85120  0.69580  0.83378  Biso   1.000  N
  N39      1.0000 0.35120  0.80420  0.16622  Biso   1.000  N
  N40      1.0000 0.14880  0.69580  0.66622  Biso   1.000  N
  N41      1.0000 0.20560  0.90900  0.49743  Biso   1.000  N
  N42      1.0000 0.29440  0.59100  0.99743  Biso   1.000  N
  N43      1.0000 0.79440  0.90900  0.00257  Biso   1.000  N
  N44      1.0000 0.70560  0.59100  0.50257  Biso   1.000  N
  N45      1.0000 0.79440  0.09100  0.50257  Biso   1.000  N
  N46      1.0000 0.70560  0.40900  0.00257  Biso   1.000  N
  N47      1.0000 0.20560  0.09100  0.99743  Biso   1.000  N
  N48      1.0000 0.29440  0.40900  0.49743  Biso   1.000  N
  N49      1.0000 0.41050  0.87970  0.45267  Biso   1.000  N
  N50      1.0000 0.08950  0.62030  0.95267  Biso   1.000  N
  N51      1.0000 0.58950  0.87970  0.04733  Biso   1.000  N
  N52      1.0000 0.91050  0.62030  0.54733  Biso   1.000  N
  N53      1.0000 0.58950  0.12030  0.54733  Biso   1.000  N
  N54      1.0000 0.91050  0.37970  0.04733  Biso   1.000  N
  N55      1.0000 0.41050  0.12030  0.95267  Biso   1.000  N
  N56      1.0000 0.08950  0.37970  0.45267  Biso   1.000  N
  N57      1.0000 0.27300  0.07230  0.88708  Biso   1.000  N
  N58      1.0000 0.22700  0.42770  0.38708  Biso   1.000  N
  N59      1.0000 0.72700  0.07230  0.61292  Biso   1.000  N
  N60      1.0000 0.77300  0.42770  0.11292  Biso   1.000  N
  N61      1.0000 0.72700  0.92770  0.11292  Biso   1.000  N
  N62      1.0000 0.77300  0.57230  0.61292  Biso   1.000  N
  N63      1.0000 0.27300  0.92770  0.38708  Biso   1.000  N
  N64      1.0000 0.22700  0.57230  0.88708  Biso   1.000  N
  N65      1.0000 0.14240  0.77770  0.41984  Biso   1.000  N
  N66      1.0000 0.35760  0.72230  0.91984  Biso   1.000  N
  N67      1.0000 0.85760  0.77770  0.08016  Biso   1.000  N
  N68      1.0000 0.64240  0.72230  0.58016  Biso   1.000  N
  N69      1.0000 0.85760  0.22230  0.58016  Biso   1.000  N
  N70      1.0000 0.64240  0.27770  0.08016  Biso   1.000  N
  N71      1.0000 0.14240  0.22230  0.91984  Biso   1.000  N
  N72      1.0000 0.35760  0.27770  0.41984  Biso   1.000  N
  N73      1.0000 0.30530  0.69970  0.46612  Biso   1.000  N
  N74      1.0000 0.19470  0.80030  0.96612  Biso   1.000  N
  N75      1.0000 0.69470  0.69970  0.03388  Biso   1.000  N
  N76      1.0000 0.80530  0.80030  0.53388  Biso   1.000  N
  N77      1.0000 0.69470  0.30030  0.53388  Biso   1.000  N
  N78      1.0000 0.80530  0.19970  0.03388  Biso   1.000  N
  N79      1.0000 0.30530  0.30030  0.96612  Biso   1.000  N
  N80      1.0000 0.19470  0.19970  0.46612  Biso   1.000  N
  N81      1.0000 0.13720  0.96510  0.56839  Biso   1.000  N
  N82      1.0000 0.36280  0.53490  0.06839  Biso   1.000  N
  N83      1.0000 0.86280  0.96510  0.93161  Biso   1.000  N
  N84      1.0000 0.63720  0.53490  0.43161  Biso   1.000  N
  N85      1.0000 0.86280  0.03490  0.43161  Biso   1.000  N
  N86      1.0000 0.63720  0.46510  0.93161  Biso   1.000  N
  N87      1.0000 0.13720  0.03490  0.06839  Biso   1.000  N
  N88      1.0000 0.36280  0.46510  0.56839  Biso   1.000  N
  N89      1.0000 0.92330  0.01620  0.68775  Biso   1.000  N
  N90      1.0000 0.57670  0.48380  0.18775  Biso   1.000  N
  N91      1.0000 0.07670  0.01620  0.81225  Biso   1.000  N
  N92      1.0000 0.42330  0.48380  0.31225  Biso   1.000  N
  N93      1.0000 0.07670  0.98380  0.31225  Biso   1.000  N
  N94      1.0000 0.42330  0.51620  0.81225  Biso   1.000  N
  N95      1.0000 0.92330  0.98380  0.18775  Biso   1.000  N
  N96      1.0000 0.57670  0.51620  0.68775  Biso   1.000  N
  N97      1.0000 0.88210  0.84770  0.67480  Biso   1.000  N
  N98      1.0000 0.61790  0.65230  0.17480  Biso   1.000  N
  N99      1.0000 0.11790  0.84770  0.82520  Biso   1.000  N
  N100     1.0000 0.38210  0.65230  0.32520  Biso   1.000  N
  N101     1.0000 0.11790  0.15230  0.32520  Biso   1.000  N
  N102     1.0000 0.38210  0.34770  0.82520  Biso   1.000  N
  N103     1.0000 0.88210  0.15230  0.17480  Biso   1.000  N
  N104     1.0000 0.61790  0.34770  0.67480  Biso   1.000  N
  N105     1.0000 0.33490  0.01130  0.81624  Biso   1.000  N
  N106     1.0000 0.16510  0.48870  0.31624  Biso   1.000  N
  N107     1.0000 0.66510  0.01130  0.68376  Biso   1.000  N
  N108     1.0000 0.83490  0.48870  0.18376  Biso   1.000  N
  N109     1.0000 0.66510  0.98870  0.18376  Biso   1.000  N
  N110     1.0000 0.83490  0.51130  0.68376  Biso   1.000  N
  N111     1.0000 0.33490  0.98870  0.31624  Biso   1.000  N
  N112     1.0000 0.16510  0.51130  0.81624  Biso   1.000  N
  N113     1.0000 0.57220  0.95870  0.45418  Biso   1.000  N
  N114     1.0000 0.92780  0.54130  0.95418  Biso   1.000  N
  N115     1.0000 0.42780  0.95870  0.04582  Biso   1.000  N
  N116     1.0000 0.07220  0.54130  0.54582  Biso   1.000  N
  N117     1.0000 0.42780  0.04130  0.54582  Biso   1.000  N
  N118     1.0000 0.07220  0.45870  0.04582  Biso   1.000  N
  N119     1.0000 0.57220  0.04130  0.95418  Biso   1.000  N
  N120     1.0000 0.92780  0.45870  0.45418  Biso   1.000  N
  N121     1.0000 0.61330  0.10930  0.41518  Biso   1.000  N
  N122     1.0000 0.88670  0.39070  0.91518  Biso   1.000  N
  N123     1.0000 0.38670  0.10930  0.08482  Biso   1.000  N
  N124     1.0000 0.11330  0.39070  0.58482  Biso   1.000  N
  N125     1.0000 0.38670  0.89070  0.58482  Biso   1.000  N
  N126     1.0000 0.11330  0.60930  0.08482  Biso   1.000  N
  N127     1.0000 0.61330  0.89070  0.91518  Biso   1.000  N
  N128     1.0000 0.88670  0.60930  0.41518  Biso   1.000  N
  C1       1.0000 0.18300  0.01070  0.60002  Biso   1.000  C
  C2       1.0000 0.31700  0.48930  0.10002  Biso   1.000  C
  C3       1.0000 0.81700  0.01070  0.89998  Biso   1.000  C
  C4       1.0000 0.68300  0.48930  0.39998  Biso   1.000  C
  C5       1.0000 0.81700  0.98930  0.39998  Biso   1.000  C
  C6       1.0000 0.68300  0.51070  0.89998  Biso   1.000  C
  C7       1.0000 0.18300  0.98930  0.10002  Biso   1.000  C
  C8       1.0000 0.31700  0.51070  0.60002  Biso   1.000  C
  C9       1.0000 0.01050  0.05170  0.69330  Biso   1.000  C
  C10      1.0000 0.48950  0.44830  0.19330  Biso   1.000  C
  C11      1.0000 0.98950  0.05170  0.80670  Biso   1.000  C
  C12      1.0000 0.51050  0.44830  0.30670  Biso   1.000  C
  C13      1.0000 0.98950  0.94830  0.30670  Biso   1.000  C
  C14      1.0000 0.51050  0.55170  0.80670  Biso   1.000  C
  C15      1.0000 0.01050  0.94830  0.19330  Biso   1.000  C
  C16      1.0000 0.48950  0.55170  0.69330  Biso   1.000  C
  C17      1.0000 0.90690  0.92370  0.68166  Biso   1.000  C
  C18      1.0000 0.59310  0.57630  0.18166  Biso   1.000  C
  C19      1.0000 0.09310  0.92370  0.81834  Biso   1.000  C
  C20      1.0000 0.40690  0.57630  0.31834  Biso   1.000  C
  C21      1.0000 0.09310  0.07630  0.31834  Biso   1.000  C
  C22      1.0000 0.40690  0.42370  0.81834  Biso   1.000  C
  C23      1.0000 0.90690  0.07630  0.18166  Biso   1.000  C
  C24      1.0000 0.59310  0.42370  0.68166  Biso   1.000  C
  C25      1.0000 0.30490  0.04130  0.77713  Biso   1.000  C
  C26      1.0000 0.19510  0.45870  0.27713  Biso   1.000  C
  C27      1.0000 0.69510  0.04130  0.72287  Biso   1.000  C
  C28      1.0000 0.80490  0.45870  0.22287  Biso   1.000  C
  C29      1.0000 0.69510  0.95870  0.22287  Biso   1.000  C
  C30      1.0000 0.80490  0.54130  0.72287  Biso   1.000  C
  C31      1.0000 0.30490  0.95870  0.27713  Biso   1.000  C
  C32      1.0000 0.19510  0.54130  0.77713  Biso   1.000  C
  C33      1.0000 0.29990  0.04700  0.85276  Biso   1.000  C
  C34      1.0000 0.20010  0.45300  0.35276  Biso   1.000  C
  C35      1.0000 0.70010  0.04700  0.64724  Biso   1.000  C
  C36      1.0000 0.79990  0.45300  0.14724  Biso   1.000  C
  C37      1.0000 0.70010  0.95300  0.14724  Biso   1.000  C
  C38      1.0000 0.79990  0.54700  0.64724  Biso   1.000  C
  C39      1.0000 0.29990  0.95300  0.35276  Biso   1.000  C
  C40      1.0000 0.20010  0.54700  0.85276  Biso   1.000  C
  C41      1.0000 0.09860  0.31760  0.69520  Biso   1.000  C
  C42      1.0000 0.40140  0.18240  0.19520  Biso   1.000  C
  C43      1.0000 0.90140  0.31760  0.80480  Biso   1.000  C
  C44      1.0000 0.59860  0.18240  0.30480  Biso   1.000  C
  C45      1.0000 0.90140  0.68240  0.30480  Biso   1.000  C
  C46      1.0000 0.59860  0.81760  0.80480  Biso   1.000  C
  C47      1.0000 0.09860  0.68240  0.19520  Biso   1.000  C
  C48      1.0000 0.40140  0.81760  0.69520  Biso   1.000  C
  C49      1.0000 0.11100  0.32300  0.66620  Biso   1.000  C
  C50      1.0000 0.38900  0.17700  0.16620  Biso   1.000  C
  C51      1.0000 0.88900  0.32300  0.83380  Biso   1.000  C
  C52      1.0000 0.61100  0.17700  0.33380  Biso   1.000  C
  C53      1.0000 0.88900  0.67700  0.33380  Biso   1.000  C
  C54      1.0000 0.61100  0.82300  0.83380  Biso   1.000  C
  C55      1.0000 0.11100  0.67700  0.16620  Biso   1.000  C
  C56      1.0000 0.38900  0.82300  0.66620  Biso   1.000  C
  H1       1.0000 0.09600  0.37700  0.70660  Biso   1.000  H
  H2       1.0000 0.40400  0.12300  0.20660  Biso   1.000  H
  H3       1.0000 0.90400  0.37700  0.79340  Biso   1.000  H
  H4       1.0000 0.59600  0.12300  0.29340  Biso   1.000  H
  H5       1.0000 0.90400  0.62300  0.29340  Biso   1.000  H
  H6       1.0000 0.59600  0.87700  0.79340  Biso   1.000  H
  H7       1.0000 0.09600  0.62300  0.20660  Biso   1.000  H
  H8       1.0000 0.40400  0.87700  0.70660  Biso   1.000  H
  H9       1.0000 0.04300  0.27100  0.70040  Biso   1.000  H
  H10      1.0000 0.45700  0.22900  0.20040  Biso   1.000  H
  H11      1.0000 0.95700  0.27100  0.79960  Biso   1.000  H
  H12      1.0000 0.54300  0.22900  0.29960  Biso   1.000  H
  H13      1.0000 0.95700  0.72900  0.29960  Biso   1.000  H
  H14      1.0000 0.54300  0.77100  0.79960  Biso   1.000  H
  H15      1.0000 0.04300  0.72900  0.20040  Biso   1.000  H
  H16      1.0000 0.45700  0.77100  0.70040  Biso   1.000  H
  C57      1.0000 0.17870  0.26120  0.76169  Biso   1.000  C
  C58      1.0000 0.32130  0.23880  0.26169  Biso   1.000  C
  C59      1.0000 0.82130  0.26120  0.73831  Biso   1.000  C
  C60      1.0000 0.67870  0.23880  0.23831  Biso   1.000  C
  C61      1.0000 0.82130  0.73880  0.23831  Biso   1.000  C
  C62      1.0000 0.67870  0.76120  0.73831  Biso   1.000  C
  C63      1.0000 0.17870  0.73880  0.26169  Biso   1.000  C
  C64      1.0000 0.32130  0.76120  0.76169  Biso   1.000  C
  H17      1.0000 0.13400  0.21500  0.76730  Biso   1.000  H
  H18      1.0000 0.36600  0.28500  0.26730  Biso   1.000  H
  H19      1.0000 0.86600  0.21500  0.73270  Biso   1.000  H
  H20      1.0000 0.63400  0.28500  0.23270  Biso   1.000  H
  H21      1.0000 0.86600  0.78500  0.23270  Biso   1.000  H
  H22      1.0000 0.63400  0.71500  0.73270  Biso   1.000  H
  H23      1.0000 0.13400  0.78500  0.26730  Biso   1.000  H
  H24      1.0000 0.36600  0.71500  0.76730  Biso   1.000  H
  H25      1.0000 0.24500  0.23700  0.77290  Biso   1.000  H
  H26      1.0000 0.25500  0.26300  0.27290  Biso   1.000  H
  H27      1.0000 0.75500  0.23700  0.72710  Biso   1.000  H
  H28      1.0000 0.74500  0.26300  0.22710  Biso   1.000  H
  H29      1.0000 0.75500  0.76300  0.22710  Biso   1.000  H
  H30      1.0000 0.74500  0.73700  0.72710  Biso   1.000  H
  H31      1.0000 0.24500  0.76300  0.27290  Biso   1.000  H
  H32      1.0000 0.25500  0.73700  0.77290  Biso   1.000  H
  H33      1.0000 0.16000  0.31600  0.77320  Biso   1.000  H
  H34      1.0000 0.34000  0.18400  0.27320  Biso   1.000  H
  H35      1.0000 0.84000  0.31600  0.72680  Biso   1.000  H
  H36      1.0000 0.66000  0.18400  0.22680  Biso   1.000  H
  H37      1.0000 0.84000  0.68400  0.22680  Biso   1.000  H
  H38      1.0000 0.66000  0.81600  0.72680  Biso   1.000  H
  H39      1.0000 0.16000  0.68400  0.27320  Biso   1.000  H
  H40      1.0000 0.34000  0.81600  0.77320  Biso   1.000  H
  C65      1.0000 0.27730  0.33430  0.70309  Biso   1.000  C
  C66      1.0000 0.22270  0.16570  0.20309  Biso   1.000  C
  C67      1.0000 0.72270  0.33430  0.79691  Biso   1.000  C
  C68      1.0000 0.77730  0.16570  0.29691  Biso   1.000  C
  C69      1.0000 0.72270  0.66570  0.29691  Biso   1.000  C
  C70      1.0000 0.77730  0.83430  0.79691  Biso   1.000  C
  C71      1.0000 0.27730  0.66570  0.20309  Biso   1.000  C
  C72      1.0000 0.22270  0.83430  0.70309  Biso   1.000  C
  H41      1.0000 0.26800  0.36000  0.67860  Biso   1.000  H
  H42      1.0000 0.23200  0.14000  0.17860  Biso   1.000  H
  H43      1.0000 0.73200  0.36000  0.82140  Biso   1.000  H
  H44      1.0000 0.76800  0.14000  0.32140  Biso   1.000  H
  H45      1.0000 0.73200  0.64000  0.32140  Biso   1.000  H
  H46      1.0000 0.76800  0.86000  0.82140  Biso   1.000  H
  H47      1.0000 0.26800  0.64000  0.17860  Biso   1.000  H
  H48      1.0000 0.23200  0.86000  0.67860  Biso   1.000  H
  H49      1.0000 0.29100  0.37600  0.72190  Biso   1.000  H
  H50      1.0000 0.20900  0.12400  0.22190  Biso   1.000  H
  H51      1.0000 0.70900  0.37600  0.77810  Biso   1.000  H
  H52      1.0000 0.79100  0.12400  0.27810  Biso   1.000  H
  H53      1.0000 0.70900  0.62400  0.27810  Biso   1.000  H
  H54      1.0000 0.79100  0.87600  0.77810  Biso   1.000  H
  H55      1.0000 0.29100  0.62400  0.22190  Biso   1.000  H
  H56      1.0000 0.20900  0.87600  0.72190  Biso   1.000  H
  C73      1.0000 0.36840  0.27270  0.69972  Biso   1.000  C
  C74      1.0000 0.13160  0.22730  0.19972  Biso   1.000  C
  C75      1.0000 0.63160  0.27270  0.80028  Biso   1.000  C
  C76      1.0000 0.86840  0.22730  0.30028  Biso   1.000  C
  C77      1.0000 0.63160  0.72730  0.30028  Biso   1.000  C
  C78      1.0000 0.86840  0.77270  0.80028  Biso   1.000  C
  C79      1.0000 0.36840  0.72730  0.19972  Biso   1.000  C
  C80      1.0000 0.13160  0.77270  0.69972  Biso   1.000  C
  H57      1.0000 0.42000  0.30800  0.69150  Biso   1.000  H
  H58      1.0000 0.08000  0.19200  0.19150  Biso   1.000  H
  H59      1.0000 0.58000  0.30800  0.80850  Biso   1.000  H
  H60      1.0000 0.92000  0.19200  0.30850  Biso   1.000  H
  H61      1.0000 0.58000  0.69200  0.30850  Biso   1.000  H
  H62      1.0000 0.92000  0.80800  0.80850  Biso   1.000  H
  H63      1.0000 0.42000  0.69200  0.19150  Biso   1.000  H
  H64      1.0000 0.08000  0.80800  0.69150  Biso   1.000  H
  H65      1.0000 0.38000  0.23700  0.72810  Biso   1.000  H
  H66      1.0000 0.12000  0.26300  0.22810  Biso   1.000  H
  H67      1.0000 0.62000  0.23700  0.77190  Biso   1.000  H
  H68      1.0000 0.88000  0.26300  0.27190  Biso   1.000  H
  H69      1.0000 0.62000  0.76300  0.27190  Biso   1.000  H
  H70      1.0000 0.88000  0.73700  0.77190  Biso   1.000  H
  H71      1.0000 0.38000  0.76300  0.22810  Biso   1.000  H
  H72      1.0000 0.12000  0.73700  0.72810  Biso   1.000  H
  C81      1.0000 0.43450  0.12650  0.66764  Biso   1.000  C
  C82      1.0000 0.06550  0.37350  0.16764  Biso   1.000  C
  C83      1.0000 0.56550  0.12650  0.83236  Biso   1.000  C
  C84      1.0000 0.93450  0.37350  0.33236  Biso   1.000  C
  C85      1.0000 0.56550  0.87350  0.33236  Biso   1.000  C
  C86      1.0000 0.93450  0.62650  0.83236  Biso   1.000  C
  C87      1.0000 0.43450  0.87350  0.16764  Biso   1.000  C
  C88      1.0000 0.06550  0.62650  0.66764  Biso   1.000  C
  H73      1.0000 0.45000  0.10100  0.70180  Biso   1.000  H
  H74      1.0000 0.05000  0.39900  0.20180  Biso   1.000  H
  H75      1.0000 0.55000  0.10100  0.79820  Biso   1.000  H
  H76      1.0000 0.95000  0.39900  0.29820  Biso   1.000  H
  H77      1.0000 0.55000  0.89900  0.29820  Biso   1.000  H
  H78      1.0000 0.95000  0.60100  0.79820  Biso   1.000  H
  H79      1.0000 0.45000  0.89900  0.20180  Biso   1.000  H
  H80      1.0000 0.05000  0.60100  0.70180  Biso   1.000  H
  H81      1.0000 0.42600  0.07700  0.64990  Biso   1.000  H
  H82      1.0000 0.07400  0.42300  0.14990  Biso   1.000  H
  H83      1.0000 0.57400  0.07700  0.85010  Biso   1.000  H
  H84      1.0000 0.92600  0.42300  0.35010  Biso   1.000  H
  H85      1.0000 0.57400  0.92300  0.35010  Biso   1.000  H
  H86      1.0000 0.92600  0.57700  0.85010  Biso   1.000  H
  H87      1.0000 0.42600  0.92300  0.14990  Biso   1.000  H
  H88      1.0000 0.07400  0.57700  0.64990  Biso   1.000  H
  H89      1.0000 0.49100  0.15700  0.66080  Biso   1.000  H
  H90      1.0000 0.00900  0.34300  0.16080  Biso   1.000  H
  H91      1.0000 0.50900  0.15700  0.83920  Biso   1.000  H
  H92      1.0000 0.99100  0.34300  0.33920  Biso   1.000  H
  H93      1.0000 0.50900  0.84300  0.33920  Biso   1.000  H
  H94      1.0000 0.99100  0.65700  0.83920  Biso   1.000  H
  H95      1.0000 0.49100  0.84300  0.16080  Biso   1.000  H
  H96      1.0000 0.00900  0.65700  0.66080  Biso   1.000  H
  C89      1.0000 0.34390  0.23590  0.62052  Biso   1.000  C
  C90      1.0000 0.15610  0.26410  0.12052  Biso   1.000  C
  C91      1.0000 0.65610  0.23590  0.87948  Biso   1.000  C
  C92      1.0000 0.84390  0.26410  0.37948  Biso   1.000  C
  C93      1.0000 0.65610  0.76410  0.37948  Biso   1.000  C
  C94      1.0000 0.84390  0.73590  0.87948  Biso   1.000  C
  C95      1.0000 0.34390  0.76410  0.12052  Biso   1.000  C
  C96      1.0000 0.15610  0.73590  0.62052  Biso   1.000  C
  H97      1.0000 0.33700  0.18600  0.60030  Biso   1.000  H
  H98      1.0000 0.16300  0.31400  0.10030  Biso   1.000  H
  H99      1.0000 0.66300  0.18600  0.89970  Biso   1.000  H
  H100     1.0000 0.83700  0.31400  0.39970  Biso   1.000  H
  H101     1.0000 0.66300  0.81400  0.39970  Biso   1.000  H
  H102     1.0000 0.83700  0.68600  0.89970  Biso   1.000  H
  H103     1.0000 0.33700  0.81400  0.10030  Biso   1.000  H
  H104     1.0000 0.16300  0.68600  0.60030  Biso   1.000  H
  H105     1.0000 0.40200  0.27300  0.61930  Biso   1.000  H
  H106     1.0000 0.09800  0.22700  0.11930  Biso   1.000  H
  H107     1.0000 0.59800  0.27300  0.88070  Biso   1.000  H
  H108     1.0000 0.90200  0.22700  0.38070  Biso   1.000  H
  H109     1.0000 0.59800  0.72700  0.38070  Biso   1.000  H
  H110     1.0000 0.90200  0.77300  0.88070  Biso   1.000  H
  H111     1.0000 0.40200  0.72700  0.11930  Biso   1.000  H
  H112     1.0000 0.09800  0.77300  0.61930  Biso   1.000  H
  H113     1.0000 0.28200  0.27400  0.62050  Biso   1.000  H
  H114     1.0000 0.21800  0.22600  0.12050  Biso   1.000  H
  H115     1.0000 0.71800  0.27400  0.87950  Biso   1.000  H
  H116     1.0000 0.78200  0.22600  0.37950  Biso   1.000  H
  H117     1.0000 0.71800  0.72600  0.37950  Biso   1.000  H
  H118     1.0000 0.78200  0.77400  0.87950  Biso   1.000  H
  H119     1.0000 0.28200  0.72600  0.12050  Biso   1.000  H
  H120     1.0000 0.21800  0.77400  0.62050  Biso   1.000  H
  C97      1.0000 0.17970  0.93640  0.53152  Biso   1.000  C
  C98      1.0000 0.32030  0.56360  0.03152  Biso   1.000  C
  C99      1.0000 0.82030  0.93640  0.96848  Biso   1.000  C
  C100     1.0000 0.67970  0.56360  0.46848  Biso   1.000  C
  C101     1.0000 0.82030  0.06360  0.46848  Biso   1.000  C
  C102     1.0000 0.67970  0.43640  0.96848  Biso   1.000  C
  C103     1.0000 0.17970  0.06360  0.03152  Biso   1.000  C
  C104     1.0000 0.32030  0.43640  0.53152  Biso   1.000  C
  C105     1.0000 0.48490  0.92030  0.45217  Biso   1.000  C
  C106     1.0000 0.01510  0.57970  0.95217  Biso   1.000  C
  C107     1.0000 0.51510  0.92030  0.04783  Biso   1.000  C
  C108     1.0000 0.98490  0.57970  0.54783  Biso   1.000  C
  C109     1.0000 0.51510  0.07970  0.54783  Biso   1.000  C
  C110     1.0000 0.98490  0.42030  0.04783  Biso   1.000  C
  C111     1.0000 0.48490  0.07970  0.95217  Biso   1.000  C
  C112     1.0000 0.01510  0.42030  0.45217  Biso   1.000  C
  C113     1.0000 0.59020  0.03940  0.43286  Biso   1.000  C
  C114     1.0000 0.90980  0.46060  0.93286  Biso   1.000  C
  C115     1.0000 0.40980  0.03940  0.06714  Biso   1.000  C
  C116     1.0000 0.09020  0.46060  0.56714  Biso   1.000  C
  C117     1.0000 0.40980  0.96060  0.56714  Biso   1.000  C
  C118     1.0000 0.09020  0.53940  0.06714  Biso   1.000  C
  C119     1.0000 0.59020  0.96060  0.93286  Biso   1.000  C
  C120     1.0000 0.90980  0.53940  0.43286  Biso   1.000  C
  C121     1.0000 0.14960  0.74090  0.37361  Biso   1.000  C
  C122     1.0000 0.35040  0.75910  0.87361  Biso   1.000  C
  C123     1.0000 0.85040  0.74090  0.12639  Biso   1.000  C
  C124     1.0000 0.64960  0.75910  0.62639  Biso   1.000  C
  C125     1.0000 0.85040  0.25910  0.62639  Biso   1.000  C
  C126     1.0000 0.64960  0.24090  0.12639  Biso   1.000  C
  C127     1.0000 0.14960  0.25910  0.87361  Biso   1.000  C
  C128     1.0000 0.35040  0.24090  0.37361  Biso   1.000  C
  H121     1.0000 0.21100  0.70600  0.36910  Biso   1.000  H
  H122     1.0000 0.28900  0.79400  0.86910  Biso   1.000  H
  H123     1.0000 0.78900  0.70600  0.13090  Biso   1.000  H
  H124     1.0000 0.71100  0.79400  0.63090  Biso   1.000  H
  H125     1.0000 0.78900  0.29400  0.63090  Biso   1.000  H
  H126     1.0000 0.71100  0.20600  0.13090  Biso   1.000  H
  H127     1.0000 0.21100  0.29400  0.86910  Biso   1.000  H
  H128     1.0000 0.28900  0.20600  0.36910  Biso   1.000  H
  H129     1.0000 0.09600  0.69500  0.36850  Biso   1.000  H
  H130     1.0000 0.40400  0.80500  0.86850  Biso   1.000  H
  H131     1.0000 0.90400  0.69500  0.13150  Biso   1.000  H
  H132     1.0000 0.59600  0.80500  0.63150  Biso   1.000  H
  H133     1.0000 0.90400  0.30500  0.63150  Biso   1.000  H
  H134     1.0000 0.59600  0.19500  0.13150  Biso   1.000  H
  H135     1.0000 0.09600  0.30500  0.86850  Biso   1.000  H
  H136     1.0000 0.40400  0.19500  0.36850  Biso   1.000  H
  H137     1.0000 0.15200  0.79300  0.35230  Biso   1.000  H
  H138     1.0000 0.34800  0.70700  0.85230  Biso   1.000  H
  H139     1.0000 0.84800  0.79300  0.14770  Biso   1.000  H
  H140     1.0000 0.65200  0.70700  0.64770  Biso   1.000  H
  H141     1.0000 0.84800  0.20700  0.64770  Biso   1.000  H
  H142     1.0000 0.65200  0.29300  0.14770  Biso   1.000  H
  H143     1.0000 0.15200  0.20700  0.85230  Biso   1.000  H
  H144     1.0000 0.34800  0.29300  0.35230  Biso   1.000  H
  C129     1.0000 0.05820  0.84500  0.42204  Biso   1.000  C
  C130     1.0000 0.44180  0.65500  0.92204  Biso   1.000  C
  C131     1.0000 0.94180  0.84500  0.07796  Biso   1.000  C
  C132     1.0000 0.55820  0.65500  0.57796  Biso   1.000  C
  C133     1.0000 0.94180  0.15500  0.57796  Biso   1.000  C
  C134     1.0000 0.55820  0.34500  0.07796  Biso   1.000  C
  C135     1.0000 0.05820  0.15500  0.92204  Biso   1.000  C
  C136     1.0000 0.44180  0.34500  0.42204  Biso   1.000  C
  H145     1.0000 0.06300  0.89600  0.40270  Biso   1.000  H
  H146     1.0000 0.43700  0.60400  0.90270  Biso   1.000  H
  H147     1.0000 0.93700  0.89600  0.09730  Biso   1.000  H
  H148     1.0000 0.56300  0.60400  0.59730  Biso   1.000  H
  H149     1.0000 0.93700  0.10400  0.59730  Biso   1.000  H
  H150     1.0000 0.56300  0.39600  0.09730  Biso   1.000  H
  H151     1.0000 0.06300  0.10400  0.90270  Biso   1.000  H
  H152     1.0000 0.43700  0.39600  0.40270  Biso   1.000  H
  H153     1.0000 0.05100  0.86900  0.45090  Biso   1.000  H
  H154     1.0000 0.44900  0.63100  0.95090  Biso   1.000  H
  H155     1.0000 0.94900  0.86900  0.04910  Biso   1.000  H
  H156     1.0000 0.55100  0.63100  0.54910  Biso   1.000  H
  H157     1.0000 0.94900  0.13100  0.54910  Biso   1.000  H
  H158     1.0000 0.55100  0.36900  0.04910  Biso   1.000  H
  H159     1.0000 0.05100  0.13100  0.95090  Biso   1.000  H
  H160     1.0000 0.44900  0.36900  0.45090  Biso   1.000  H
  H161     1.0000 0.99800  0.81400  0.41080  Biso   1.000  H
  H162     1.0000 0.50200  0.68600  0.91080  Biso   1.000  H
  H163     1.0000 0.00200  0.81400  0.08920  Biso   1.000  H
  H164     1.0000 0.49800  0.68600  0.58920  Biso   1.000  H
  H165     1.0000 0.00200  0.18600  0.58920  Biso   1.000  H
  H166     1.0000 0.49800  0.31400  0.08920  Biso   1.000  H
  H167     1.0000 0.99800  0.18600  0.91080  Biso   1.000  H
  H168     1.0000 0.50200  0.31400  0.41080  Biso   1.000  H
  C137     1.0000 0.12590  0.69750  0.45210  Biso   1.000  C
  C138     1.0000 0.37410  0.80250  0.95210  Biso   1.000  C
  C139     1.0000 0.87410  0.69750  0.04790  Biso   1.000  C
  C140     1.0000 0.62590  0.80250  0.54790  Biso   1.000  C
  C141     1.0000 0.87410  0.30250  0.54790  Biso   1.000  C
  C142     1.0000 0.62590  0.19750  0.04790  Biso   1.000  C
  C143     1.0000 0.12590  0.30250  0.95210  Biso   1.000  C
  C144     1.0000 0.37410  0.19750  0.45210  Biso   1.000  C
  H169     1.0000 0.11200  0.72400  0.48070  Biso   1.000  H
  H170     1.0000 0.38800  0.77600  0.98070  Biso   1.000  H
  H171     1.0000 0.88800  0.72400  0.01930  Biso   1.000  H
  H172     1.0000 0.61200  0.77600  0.51930  Biso   1.000  H
  H173     1.0000 0.88800  0.27600  0.51930  Biso   1.000  H
  H174     1.0000 0.61200  0.22400  0.01930  Biso   1.000  H
  H175     1.0000 0.11200  0.27600  0.98070  Biso   1.000  H
  H176     1.0000 0.38800  0.22400  0.48070  Biso   1.000  H
  H177     1.0000 0.06700  0.66200  0.44410  Biso   1.000  H
  H178     1.0000 0.43300  0.83800  0.94410  Biso   1.000  H
  H179     1.0000 0.93300  0.66200  0.05590  Biso   1.000  H
  H180     1.0000 0.56700  0.83800  0.55590  Biso   1.000  H
  H181     1.0000 0.93300  0.33800  0.55590  Biso   1.000  H
  H182     1.0000 0.56700  0.16200  0.05590  Biso   1.000  H
  H183     1.0000 0.06700  0.33800  0.94410  Biso   1.000  H
  H184     1.0000 0.43300  0.16200  0.44410  Biso   1.000  H
  H185     1.0000 0.20900  0.35900  0.93010  Biso   1.000  H
  H186     1.0000 0.29100  0.14100  0.43010  Biso   1.000  H
  H187     1.0000 0.79100  0.35900  0.56990  Biso   1.000  H
  H188     1.0000 0.70900  0.14100  0.06990  Biso   1.000  H
  H189     1.0000 0.79100  0.64100  0.06990  Biso   1.000  H
  H190     1.0000 0.70900  0.85900  0.56990  Biso   1.000  H
  H191     1.0000 0.20900  0.64100  0.43010  Biso   1.000  H
  H192     1.0000 0.29100  0.85900  0.93010  Biso   1.000  H
  C145     1.0000 0.21900  0.63700  0.45486  Biso   1.000  C
  C146     1.0000 0.28100  0.86300  0.95486  Biso   1.000  C
  C147     1.0000 0.78100  0.63700  0.04514  Biso   1.000  C
  C148     1.0000 0.71900  0.86300  0.54514  Biso   1.000  C
  C149     1.0000 0.78100  0.36300  0.54514  Biso   1.000  C
  C150     1.0000 0.71900  0.13700  0.04514  Biso   1.000  C
  C151     1.0000 0.21900  0.36300  0.95486  Biso   1.000  C
  C152     1.0000 0.28100  0.13700  0.45486  Biso   1.000  C
  H193     1.0000 0.23070  0.60530  0.42650  Biso   1.000  H
  H194     1.0000 0.26930  0.89470  0.92650  Biso   1.000  H
  H195     1.0000 0.76930  0.60530  0.07350  Biso   1.000  H
  H196     1.0000 0.73070  0.89470  0.57350  Biso   1.000  H
  H197     1.0000 0.76930  0.39470  0.57350  Biso   1.000  H
  H198     1.0000 0.73070  0.10530  0.07350  Biso   1.000  H
  H199     1.0000 0.23070  0.39470  0.92650  Biso   1.000  H
  H200     1.0000 0.26930  0.10530  0.42650  Biso   1.000  H
  H201     1.0000 0.21100  0.58800  0.47760  Biso   1.000  H
  H202     1.0000 0.28900  0.91200  0.97760  Biso   1.000  H
  H203     1.0000 0.78900  0.58800  0.02240  Biso   1.000  H
  H204     1.0000 0.71100  0.91200  0.52240  Biso   1.000  H
  H205     1.0000 0.78900  0.41200  0.52240  Biso   1.000  H
  H206     1.0000 0.71100  0.08800  0.02240  Biso   1.000  H
  H207     1.0000 0.21100  0.41200  0.97760  Biso   1.000  H
  H208     1.0000 0.28900  0.08800  0.47760  Biso   1.000  H
  C153     1.0000 0.31450  0.70850  0.51469  Biso   1.000  C
  C154     1.0000 0.18550  0.79150  0.01469  Biso   1.000  C
  C155     1.0000 0.68550  0.70850  0.98531  Biso   1.000  C
  C156     1.0000 0.81450  0.79150  0.48531  Biso   1.000  C
  C157     1.0000 0.68550  0.29150  0.48531  Biso   1.000  C
  C158     1.0000 0.81450  0.20850  0.98531  Biso   1.000  C
  C159     1.0000 0.31450  0.29150  0.01469  Biso   1.000  C
  C160     1.0000 0.18550  0.20850  0.51469  Biso   1.000  C
  H209     1.0000 0.35600  0.75000  0.52110  Biso   1.000  H
  H210     1.0000 0.14400  0.75000  0.02110  Biso   1.000  H
  H211     1.0000 0.64400  0.75000  0.97890  Biso   1.000  H
  H212     1.0000 0.85600  0.75000  0.47890  Biso   1.000  H
  H213     1.0000 0.64400  0.25000  0.47890  Biso   1.000  H
  H214     1.0000 0.85600  0.25000  0.97890  Biso   1.000  H
  H215     1.0000 0.35600  0.25000  0.02110  Biso   1.000  H
  H216     1.0000 0.14400  0.25000  0.52110  Biso   1.000  H
  H217     1.0000 0.33100  0.64000  0.52990  Biso   1.000  H
  H218     1.0000 0.16900  0.86000  0.02990  Biso   1.000  H
  H219     1.0000 0.66900  0.64000  0.97010  Biso   1.000  H
  H220     1.0000 0.83100  0.86000  0.47010  Biso   1.000  H
  H221     1.0000 0.66900  0.36000  0.47010  Biso   1.000  H
  H222     1.0000 0.83100  0.14000  0.97010  Biso   1.000  H
  H223     1.0000 0.33100  0.36000  0.02990  Biso   1.000  H
  H224     1.0000 0.16900  0.14000  0.52990  Biso   1.000  H
  H225     1.0000 0.24500  0.72500  0.52320  Biso   1.000  H
  H226     1.0000 0.25500  0.77500  0.02320  Biso   1.000  H
  H227     1.0000 0.75500  0.72500  0.97680  Biso   1.000  H
  H228     1.0000 0.74500  0.77500  0.47680  Biso   1.000  H
  H229     1.0000 0.75500  0.27500  0.47680  Biso   1.000  H
  H230     1.0000 0.74500  0.22500  0.97680  Biso   1.000  H
  H231     1.0000 0.24500  0.27500  0.02320  Biso   1.000  H
  H232     1.0000 0.25500  0.22500  0.52320  Biso   1.000  H
  C161     1.0000 0.39710  0.65680  0.44780  Biso   1.000  C
  C162     1.0000 0.10290  0.84320  0.94780  Biso   1.000  C
  C163     1.0000 0.60290  0.65680  0.05220  Biso   1.000  C
  C164     1.0000 0.89710  0.84320  0.55220  Biso   1.000  C
  C165     1.0000 0.60290  0.34320  0.55220  Biso   1.000  C
  C166     1.0000 0.89710  0.15680  0.05220  Biso   1.000  C
  C167     1.0000 0.39710  0.34320  0.94780  Biso   1.000  C
  C168     1.0000 0.10290  0.15680  0.44780  Biso   1.000  C
  H233     1.0000 0.39100  0.65900  0.41160  Biso   1.000  H
  H234     1.0000 0.10900  0.84100  0.91160  Biso   1.000  H
  H235     1.0000 0.60900  0.65900  0.08840  Biso   1.000  H
  H236     1.0000 0.89100  0.84100  0.58840  Biso   1.000  H
  H237     1.0000 0.60900  0.34100  0.58840  Biso   1.000  H
  H238     1.0000 0.89100  0.15900  0.08840  Biso   1.000  H
  H239     1.0000 0.39100  0.34100  0.91160  Biso   1.000  H
  H240     1.0000 0.10900  0.15900  0.41160  Biso   1.000  H
  H241     1.0000 0.40700  0.59600  0.45720  Biso   1.000  H
  H242     1.0000 0.09300  0.90400  0.95720  Biso   1.000  H
  H243     1.0000 0.59300  0.59600  0.04280  Biso   1.000  H
  H244     1.0000 0.90700  0.90400  0.54280  Biso   1.000  H
  H245     1.0000 0.59300  0.40400  0.54280  Biso   1.000  H
  H246     1.0000 0.90700  0.09600  0.04280  Biso   1.000  H
  H247     1.0000 0.40700  0.40400  0.95720  Biso   1.000  H
  H248     1.0000 0.09300  0.09600  0.45720  Biso   1.000  H
  H249     1.0000 0.44800  0.70000  0.45610  Biso   1.000  H
  H250     1.0000 0.05200  0.80000  0.95610  Biso   1.000  H
  H251     1.0000 0.55200  0.70000  0.04390  Biso   1.000  H
  H252     1.0000 0.94800  0.80000  0.54390  Biso   1.000  H
  H253     1.0000 0.55200  0.30000  0.54390  Biso   1.000  H
  H254     1.0000 0.94800  0.20000  0.04390  Biso   1.000  H
  H255     1.0000 0.44800  0.30000  0.95610  Biso   1.000  H
  H256     1.0000 0.05200  0.20000  0.45610  Biso   1.000  H
