data_image0
_cell_length_a       10.7779
_cell_length_b       7.0648
_cell_length_c       12.9275
_cell_angle_alpha    90
_cell_angle_beta     104.377
_cell_angle_gamma    90

_symmetry_space_group_name_H-M    "P 1"
_symmetry_int_tables_number       1

loop_
  _symmetry_equiv_pos_as_xyz
  'x, y, z'

loop_
  _atom_site_label
  _atom_site_occupancy
  _atom_site_fract_x
  _atom_site_fract_y
  _atom_site_fract_z
  _atom_site_thermal_displace_type
  _atom_site_B_iso_or_equiv
  _atom_site_type_symbol
  Cu1      1.0000 0.00000  0.50000  0.00000  Biso   1.000  Cu
  Cu2      1.0000 0.00000  0.00000  0.00000  Biso   1.000  Cu
  S1       1.0000 0.07862  0.75000  0.24759  Biso   1.000  S
  S2       1.0000 0.92138  0.25000  0.75241  Biso   1.000  S
  O1       1.0000 0.04230  0.75000  0.13040  Biso   1.000  O
  O2       1.0000 0.95770  0.25000  0.86960  Biso   1.000  O
  O3       1.0000 0.95360  0.75000  0.28090  Biso   1.000  O
  O4       1.0000 0.04640  0.25000  0.71910  Biso   1.000  O
  O5       1.0000 0.15050  0.58120  0.29010  Biso   1.000  O
  O6       1.0000 0.84950  0.08120  0.70990  Biso   1.000  O
  O7       1.0000 0.84950  0.41880  0.70990  Biso   1.000  O
  O8       1.0000 0.15050  0.91880  0.29010  Biso   1.000  O
  N1       1.0000 0.15400  0.34570  0.07140  Biso   1.000  N
  N2       1.0000 0.84600  0.84570  0.92860  Biso   1.000  N
  N3       1.0000 0.84600  0.65430  0.92860  Biso   1.000  N
  N4       1.0000 0.15400  0.15430  0.07140  Biso   1.000  N
  N5       1.0000 0.33130  0.25000  0.18080  Biso   1.000  N
  N6       1.0000 0.66870  0.75000  0.81920  Biso   1.000  N
  N7       1.0000 0.89670  0.34570  0.07940  Biso   1.000  N
  N8       1.0000 0.10330  0.84570  0.92060  Biso   1.000  N
  N9       1.0000 0.10330  0.65430  0.92060  Biso   1.000  N
  N10      1.0000 0.89670  0.15430  0.07940  Biso   1.000  N
  N11      1.0000 0.78520  0.25000  0.18900  Biso   1.000  N
  N12      1.0000 0.21480  0.75000  0.81100  Biso   1.000  N
  C1       1.0000 0.26160  0.40200  0.13690  Biso   1.000  C
  C2       1.0000 0.73840  0.90200  0.86310  Biso   1.000  C
  C3       1.0000 0.73840  0.59800  0.86310  Biso   1.000  C
  C4       1.0000 0.26160  0.09800  0.13690  Biso   1.000  C
  H1       1.0000 0.28630  0.52890  0.15110  Biso   1.000  H
  H2       1.0000 0.71370  0.02890  0.84890  Biso   1.000  H
  H3       1.0000 0.71370  0.47110  0.84890  Biso   1.000  H
  H4       1.0000 0.28630  0.97110  0.15110  Biso   1.000  H
  C5       1.0000 0.82960  0.40310  0.14570  Biso   1.000  C
  C6       1.0000 0.17040  0.90310  0.85430  Biso   1.000  C
  C7       1.0000 0.17040  0.59690  0.85430  Biso   1.000  C
  C8       1.0000 0.82960  0.09690  0.14570  Biso   1.000  C
  H5       1.0000 0.81470  0.53010  0.16070  Biso   1.000  H
  H6       1.0000 0.18530  0.03010  0.83930  Biso   1.000  H
  H7       1.0000 0.18530  0.46990  0.83930  Biso   1.000  H
  H8       1.0000 0.81470  0.96990  0.16070  Biso   1.000  H
  C9       1.0000 0.46170  0.25000  0.25530  Biso   1.000  C
  C10      1.0000 0.53830  0.75000  0.74470  Biso   1.000  C
  C11      1.0000 0.55880  0.25000  0.18680  Biso   1.000  C
  C12      1.0000 0.44120  0.75000  0.81320  Biso   1.000  C
  H9       1.0000 0.54650  0.36230  0.14090  Biso   1.000  H
  H10      1.0000 0.45350  0.86230  0.85910  Biso   1.000  H
  H11      1.0000 0.45350  0.63770  0.85910  Biso   1.000  H
  H12      1.0000 0.54650  0.13770  0.14090  Biso   1.000  H
  C13      1.0000 0.69480  0.25000  0.26050  Biso   1.000  C
  C14      1.0000 0.30520  0.75000  0.73950  Biso   1.000  C
  C15      1.0000 0.71500  0.07240  0.33050  Biso   1.000  C
  C16      1.0000 0.28500  0.57240  0.66950  Biso   1.000  C
  C17      1.0000 0.28500  0.92760  0.66950  Biso   1.000  C
  C18      1.0000 0.71500  0.42760  0.33050  Biso   1.000  C
  H13      1.0000 0.80210  0.07130  0.37670  Biso   1.000  H
  H14      1.0000 0.19790  0.57130  0.62330  Biso   1.000  H
  H15      1.0000 0.19790  0.92870  0.62330  Biso   1.000  H
  H16      1.0000 0.80210  0.42870  0.37670  Biso   1.000  H
  H17      1.0000 0.70360  0.95900  0.28550  Biso   1.000  H
  H18      1.0000 0.29640  0.45900  0.71450  Biso   1.000  H
  H19      1.0000 0.29640  0.04100  0.71450  Biso   1.000  H
  H20      1.0000 0.70360  0.54100  0.28550  Biso   1.000  H
  C19      1.0000 0.61660  0.07350  0.39870  Biso   1.000  C
  C20      1.0000 0.38340  0.57350  0.60130  Biso   1.000  C
  C21      1.0000 0.38340  0.92650  0.60130  Biso   1.000  C
  C22      1.0000 0.61660  0.42650  0.39870  Biso   1.000  C
  H21      1.0000 0.62920  0.95930  0.44460  Biso   1.000  H
  H22      1.0000 0.37080  0.45930  0.55540  Biso   1.000  H
  H23      1.0000 0.37080  0.04070  0.55540  Biso   1.000  H
  H24      1.0000 0.62920  0.54070  0.44460  Biso   1.000  H
  C23      1.0000 0.47980  0.07170  0.32540  Biso   1.000  C
  C24      1.0000 0.52020  0.57170  0.67460  Biso   1.000  C
  C25      1.0000 0.52020  0.92830  0.67460  Biso   1.000  C
  C26      1.0000 0.47980  0.42830  0.32540  Biso   1.000  C
  H25      1.0000 0.46710  0.95820  0.28040  Biso   1.000  H
  H26      1.0000 0.53290  0.45820  0.71960  Biso   1.000  H
  H27      1.0000 0.53290  0.04180  0.71960  Biso   1.000  H
  H28      1.0000 0.46710  0.54180  0.28040  Biso   1.000  H
  H29      1.0000 0.41680  0.07010  0.36860  Biso   1.000  H
  H30      1.0000 0.58320  0.57010  0.63140  Biso   1.000  H
  H31      1.0000 0.58320  0.92990  0.63140  Biso   1.000  H
  H32      1.0000 0.41680  0.42990  0.36860  Biso   1.000  H
  C27      1.0000 0.63550  0.25000  0.46940  Biso   1.000  C
  C28      1.0000 0.36450  0.75000  0.53060  Biso   1.000  C
  H33      1.0000 0.57360  0.25000  0.51360  Biso   1.000  H
  H34      1.0000 0.42640  0.75000  0.48640  Biso   1.000  H
  H35      1.0000 0.72190  0.25000  0.51690  Biso   1.000  H
  H36      1.0000 0.27810  0.75000  0.48310  Biso   1.000  H
  O9       1.0000 0.82420  0.75000  0.60130  Biso   1.000  O
  O10      1.0000 0.17580  0.25000  0.39870  Biso   1.000  O
  H37      1.0000 0.83340  0.65240  0.64080  Biso   1.000  H
  H38      1.0000 0.16660  0.15240  0.35920  Biso   1.000  H
  H39      1.0000 0.16660  0.34760  0.35920  Biso   1.000  H
  H40      1.0000 0.83340  0.84760  0.64080  Biso   1.000  H
  O11      1.0000 0.01380  0.18930  0.51630  Biso   1.000  O
  O12      1.0000 0.98620  0.68930  0.48370  Biso   1.000  O
  O13      1.0000 0.98620  0.81070  0.48370  Biso   1.000  O
  O14      1.0000 0.01380  0.31070  0.51630  Biso   1.000  O
  H41      1.0000 0.03700  0.21560  0.58250  Biso   1.000  H
  H42      1.0000 0.96300  0.71560  0.41750  Biso   1.000  H
  H43      1.0000 0.96300  0.78440  0.41750  Biso   1.000  H
  H44      1.0000 0.03700  0.28440  0.58250  Biso   1.000  H
  H45      1.0000 0.07450  0.28460  0.48780  Biso   1.000  H
  H46      1.0000 0.92550  0.78460  0.51220  Biso   1.000  H
  H47      1.0000 0.92550  0.71540  0.51220  Biso   1.000  H
  H48      1.0000 0.07450  0.21540  0.48780  Biso   1.000  H
  O15      1.0000 0.96030  0.08100  0.71030  Biso   1.000  O
  O16      1.0000 0.03970  0.58100  0.28970  Biso   1.000  O
  O17      1.0000 0.03970  0.91900  0.28970  Biso   1.000  O
  O18      1.0000 0.96030  0.41900  0.71030  Biso   1.000  O
  O19      1.0000 0.77640  0.25000  0.73640  Biso   1.000  O
  O20      1.0000 0.22360  0.75000  0.26360  Biso   1.000  O
