data_image0
_cell_length_a       11.2456
_cell_length_b       12.6499
_cell_length_c       15.6257
_cell_angle_alpha    107.205
_cell_angle_beta     91.066
_cell_angle_gamma    102.065

_symmetry_space_group_name_H-M    "P 1"
_symmetry_int_tables_number       1

loop_
  _symmetry_equiv_pos_as_xyz
  'x, y, z'

loop_
  _atom_site_label
  _atom_site_occupancy
  _atom_site_fract_x
  _atom_site_fract_y
  _atom_site_fract_z
  _atom_site_thermal_displace_type
  _atom_site_B_iso_or_equiv
  _atom_site_type_symbol
  Cu1      1.0000 0.50000  0.00000  0.00000  Biso   1.000  Cu
  Cu2      1.0000 0.46877  0.81370  0.14984  Biso   1.000  Cu
  Cu3      1.0000 0.53123  0.18630  0.85016  Biso   1.000  Cu
  Si1      1.0000 0.63210  0.47670  0.16728  Biso   1.000  Si
  Si2      1.0000 0.36790  0.52330  0.83272  Biso   1.000  Si
  F1       1.0000 0.53720  0.50000  0.09384  Biso   1.000  F
  F2       1.0000 0.46280  0.50000  0.90616  Biso   1.000  F
  F3       1.0000 0.73400  0.58930  0.15590  Biso   1.000  F
  F4       1.0000 0.26600  0.41070  0.84410  Biso   1.000  F
  F5       1.0000 0.68440  0.39380  0.07746  Biso   1.000  F
  F6       1.0000 0.31560  0.60620  0.92254  Biso   1.000  F
  F7       1.0000 0.73010  0.45250  0.23392  Biso   1.000  F
  F8       1.0000 0.26990  0.54750  0.76608  Biso   1.000  F
  F9       1.0000 0.52690  0.36910  0.17640  Biso   1.000  F
  F10      1.0000 0.47310  0.63090  0.82360  Biso   1.000  F
  F11      1.0000 0.57930  0.56450  0.25100  Biso   1.000  F
  F12      1.0000 0.42070  0.43550  0.74900  Biso   1.000  F
  O1       1.0000 0.40790  0.64741  0.09338  Biso   1.000  O
  O2       1.0000 0.59210  0.35259  0.90662  Biso   1.000  O
  H1       1.0000 0.37670  0.62750  0.03900  Biso   1.000  H
  H2       1.0000 0.62330  0.37250  0.96100  Biso   1.000  H
  H3       1.0000 0.45720  0.60450  0.09480  Biso   1.000  H
  H4       1.0000 0.54280  0.39550  0.90520  Biso   1.000  H
  O3       1.0000 0.65700  0.79800  0.23510  Biso   1.000  O
  O4       1.0000 0.34300  0.20200  0.76490  Biso   1.000  O
  H5       1.0000 0.68120  0.73660  0.21080  Biso   1.000  H
  H6       1.0000 0.31880  0.26340  0.78920  Biso   1.000  H
  H7       1.0000 0.70220  0.85050  0.21820  Biso   1.000  H
  H8       1.0000 0.29780  0.14950  0.78180  Biso   1.000  H
  O5       1.0000 0.25330  0.06210  0.24100  Biso   1.000  O
  O6       1.0000 0.74670  0.93790  0.75900  Biso   1.000  O
  O7       1.0000 0.98000  0.71220  0.17610  Biso   1.000  O
  O8       1.0000 0.02000  0.28780  0.82390  Biso   1.000  O
  H9       1.0000 0.90510  0.67890  0.17190  Biso   1.000  H
  H10      1.0000 0.09490  0.32110  0.82810  Biso   1.000  H
  H11      1.0000 0.00030  0.75110  0.23220  Biso   1.000  H
  H12      1.0000 0.99970  0.24890  0.76780  Biso   1.000  H
  O9       1.0000 0.82100  0.99590  0.17660  Biso   1.000  O
  O10      1.0000 0.17900  0.00410  0.82340  Biso   1.000  O
  N1       1.0000 0.59150  0.87840  0.99324  Biso   1.000  N
  N2       1.0000 0.40850  0.12160  0.00676  Biso   1.000  N
  N3       1.0000 0.57960  0.81230  0.04939  Biso   1.000  N
  N4       1.0000 0.42040  0.18770  0.95061  Biso   1.000  N
  N5       1.0000 0.71480  0.76400  0.95576  Biso   1.000  N
  N6       1.0000 0.28520  0.23600  0.04424  Biso   1.000  N
  N7       1.0000 0.31540  0.84140  0.06848  Biso   1.000  N
  N8       1.0000 0.68460  0.15860  0.93152  Biso   1.000  N
  N9       1.0000 0.33890  0.89250  0.00270  Biso   1.000  N
  N10      1.0000 0.66110  0.10750  0.99730  Biso   1.000  N
  N11      1.0000 0.15520  0.78530  0.97156  Biso   1.000  N
  N12      1.0000 0.84480  0.21470  0.02844  Biso   1.000  N
  N13      1.0000 0.38040  0.79930  0.25626  Biso   1.000  N
  N14      1.0000 0.61960  0.20070  0.74374  Biso   1.000  N
  N15      1.0000 0.29710  0.86320  0.28991  Biso   1.000  N
  N16      1.0000 0.70290  0.13680  0.71009  Biso   1.000  N
  N17      1.0000 0.31250  0.75170  0.37256  Biso   1.000  N
  N18      1.0000 0.68750  0.24830  0.62744  Biso   1.000  N
  N19      1.0000 0.47220  0.01900  0.79224  Biso   1.000  N
  N20      1.0000 0.52780  0.98100  0.20776  Biso   1.000  N
  N21      1.0000 0.47050  0.94200  0.83804  Biso   1.000  N
  N22      1.0000 0.52950  0.05800  0.16196  Biso   1.000  N
  N23      1.0000 0.40890  0.85050  0.69713  Biso   1.000  N
  N24      1.0000 0.59110  0.14950  0.30287  Biso   1.000  N
  C1       1.0000 0.67290  0.84730  0.93820  Biso   1.000  C
  C2       1.0000 0.32710  0.15270  0.06180  Biso   1.000  C
  H13      1.0000 0.69870  0.87970  0.89210  Biso   1.000  H
  H14      1.0000 0.30130  0.12030  0.10790  Biso   1.000  H
  C3       1.0000 0.65340  0.74370  0.02530  Biso   1.000  C
  C4       1.0000 0.34660  0.25630  0.97470  Biso   1.000  C
  H15      1.0000 0.66270  0.68770  0.05250  Biso   1.000  H
  H16      1.0000 0.33730  0.31230  0.94750  Biso   1.000  H
  C5       1.0000 0.20540  0.77920  0.04830  Biso   1.000  C
  C6       1.0000 0.79460  0.22080  0.95170  Biso   1.000  C
  H17      1.0000 0.16530  0.73490  0.08330  Biso   1.000  H
  H18      1.0000 0.83470  0.26510  0.91670  Biso   1.000  H
  C7       1.0000 0.24230  0.85840  0.94590  Biso   1.000  C
  C8       1.0000 0.75770  0.14160  0.05410  Biso   1.000  C
  H19      1.0000 0.23420  0.88150  0.89390  Biso   1.000  H
  H20      1.0000 0.76580  0.11850  0.10610  Biso   1.000  H
  C9       1.0000 0.81200  0.70760  0.91400  Biso   1.000  C
  C10      1.0000 0.18800  0.29240  0.08600  Biso   1.000  C
  C11      1.0000 0.81210  0.70190  0.81500  Biso   1.000  C
  C12      1.0000 0.18790  0.29810  0.18500  Biso   1.000  C
  H21      1.0000 0.82610  0.77950  0.80950  Biso   1.000  H
  H22      1.0000 0.17390  0.22050  0.19050  Biso   1.000  H
  H23      1.0000 0.73230  0.65790  0.78260  Biso   1.000  H
  H24      1.0000 0.26770  0.34210  0.21740  Biso   1.000  H
  C13      1.0000 0.91380  0.64460  0.77410  Biso   1.000  C
  C14      1.0000 0.08620  0.35540  0.22590  Biso   1.000  C
  H25      1.0000 0.91460  0.64060  0.70930  Biso   1.000  H
  H26      1.0000 0.08540  0.35940  0.29070  Biso   1.000  H
  C15      1.0000 0.03710  0.71330  0.82360  Biso   1.000  C
  C16      1.0000 0.96290  0.28670  0.17640  Biso   1.000  C
  H27      1.0000 0.05300  0.79090  0.81810  Biso   1.000  H
  H28      1.0000 0.94700  0.20910  0.18190  Biso   1.000  H
  H29      1.0000 0.10300  0.67670  0.79670  Biso   1.000  H
  H30      1.0000 0.89700  0.32330  0.20330  Biso   1.000  H
  C17      1.0000 0.03510  0.71910  0.92300  Biso   1.000  C
  C18      1.0000 0.96490  0.28090  0.07700  Biso   1.000  C
  C19      1.0000 0.93470  0.77840  0.96465  Biso   1.000  C
  C20      1.0000 0.06530  0.22160  0.03535  Biso   1.000  C
  H31      1.0000 0.94970  0.85600  0.95930  Biso   1.000  H
  H32      1.0000 0.05030  0.14400  0.04070  Biso   1.000  H
  H33      1.0000 0.93400  0.78420  0.02920  Biso   1.000  H
  H34      1.0000 0.06600  0.21580  0.97080  Biso   1.000  H
  C21      1.0000 0.78820  0.58780  0.92090  Biso   1.000  C
  C22      1.0000 0.21180  0.41220  0.07910  Biso   1.000  C
  H35      1.0000 0.70830  0.54360  0.88870  Biso   1.000  H
  H36      1.0000 0.29170  0.45640  0.11130  Biso   1.000  H
  H37      1.0000 0.78580  0.59040  0.98470  Biso   1.000  H
  H38      1.0000 0.21420  0.40960  0.01530  Biso   1.000  H
  C23      1.0000 0.88950  0.53090  0.87960  Biso   1.000  C
  C24      1.0000 0.11050  0.46910  0.12040  Biso   1.000  C
  H39      1.0000 0.87400  0.45230  0.88470  Biso   1.000  H
  H40      1.0000 0.12600  0.54770  0.11530  Biso   1.000  H
  C25      1.0000 0.01170  0.59860  0.93030  Biso   1.000  C
  C26      1.0000 0.98830  0.40140  0.06970  Biso   1.000  C
  H41      1.0000 0.07780  0.56150  0.90450  Biso   1.000  H
  H42      1.0000 0.92220  0.43850  0.09550  Biso   1.000  H
  H43      1.0000 0.01070  0.60150  0.99430  Biso   1.000  H
  H44      1.0000 0.98930  0.39850  0.00570  Biso   1.000  H
  C27      1.0000 0.89100  0.52410  0.78170  Biso   1.000  C
  C28      1.0000 0.10900  0.47590  0.21830  Biso   1.000  C
  H45      1.0000 0.81190  0.47870  0.74880  Biso   1.000  H
  H46      1.0000 0.18810  0.52130  0.25120  Biso   1.000  H
  H47      1.0000 0.95630  0.48670  0.75470  Biso   1.000  H
  H48      1.0000 0.04370  0.51330  0.24530  Biso   1.000  H
  C29      1.0000 0.38860  0.73480  0.30690  Biso   1.000  C
  C30      1.0000 0.61140  0.26520  0.69310  Biso   1.000  C
  H49      1.0000 0.44100  0.68330  0.29850  Biso   1.000  H
  H50      1.0000 0.55900  0.31670  0.70150  Biso   1.000  H
  C31      1.0000 0.25880  0.83170  0.35800  Biso   1.000  C
  C32      1.0000 0.74120  0.16830  0.64200  Biso   1.000  C
  H51      1.0000 0.19930  0.86170  0.39410  Biso   1.000  H
  H52      1.0000 0.80070  0.13830  0.60590  Biso   1.000  H
  C33      1.0000 0.43500  0.96330  0.70840  Biso   1.000  C
  C34      1.0000 0.56500  0.03670  0.29160  Biso   1.000  C
  H53      1.0000 0.42750  0.99690  0.66230  Biso   1.000  H
  H54      1.0000 0.57250  0.00310  0.33770  Biso   1.000  H
  C35      1.0000 0.43280  0.84290  0.78000  Biso   1.000  C
  C36      1.0000 0.56720  0.15710  0.22000  Biso   1.000  C
  H55      1.0000 0.42300  0.77340  0.79370  Biso   1.000  H
  H56      1.0000 0.57700  0.22660  0.20630  Biso   1.000  H
  C37      1.0000 0.29970  0.70530  0.44970  Biso   1.000  C
  C38      1.0000 0.70030  0.29470  0.55030  Biso   1.000  C
  C39      1.0000 0.36190  0.80130  0.53412  Biso   1.000  C
  C40      1.0000 0.63810  0.19870  0.46588  Biso   1.000  C
  H57      1.0000 0.44920  0.82730  0.52620  Biso   1.000  H
  H58      1.0000 0.55080  0.17270  0.47380  Biso   1.000  H
  H59      1.0000 0.32270  0.86660  0.54400  Biso   1.000  H
  H60      1.0000 0.67730  0.13340  0.45600  Biso   1.000  H
  C41      1.0000 0.34990  0.75650  0.61458  Biso   1.000  C
  C42      1.0000 0.65010  0.24350  0.38542  Biso   1.000  C
  C43      1.0000 0.21680  0.71790  0.62790  Biso   1.000  C
  C44      1.0000 0.78320  0.28210  0.37210  Biso   1.000  C
  H61      1.0000 0.17620  0.78250  0.63880  Biso   1.000  H
  H62      1.0000 0.82380  0.21750  0.36120  Biso   1.000  H
  H63      1.0000 0.20970  0.68990  0.68080  Biso   1.000  H
  H64      1.0000 0.79030  0.31010  0.31920  Biso   1.000  H
  C45      1.0000 0.15540  0.62320  0.54380  Biso   1.000  C
  C46      1.0000 0.84460  0.37680  0.45620  Biso   1.000  C
  H65      1.0000 0.06730  0.59800  0.55240  Biso   1.000  H
  H66      1.0000 0.93270  0.40200  0.44760  Biso   1.000  H
  C47      1.0000 0.16490  0.66850  0.46200  Biso   1.000  C
  C48      1.0000 0.83510  0.33150  0.53800  Biso   1.000  C
  H67      1.0000 0.12330  0.60820  0.40730  Biso   1.000  H
  H68      1.0000 0.87670  0.39180  0.59270  Biso   1.000  H
  H69      1.0000 0.12550  0.73370  0.47240  Biso   1.000  H
  H70      1.0000 0.87450  0.26630  0.52760  Biso   1.000  H
  C49      1.0000 0.36270  0.60660  0.43410  Biso   1.000  C
  C50      1.0000 0.63730  0.39340  0.56590  Biso   1.000  C
  H71      1.0000 0.45010  0.63220  0.42640  Biso   1.000  H
  H72      1.0000 0.54990  0.36780  0.57360  Biso   1.000  H
  H73      1.0000 0.32470  0.54530  0.37880  Biso   1.000  H
  H74      1.0000 0.67530  0.45470  0.62120  Biso   1.000  H
  C51      1.0000 0.34940  0.56220  0.51620  Biso   1.000  C
  C52      1.0000 0.65060  0.43780  0.48380  Biso   1.000  C
  H75      1.0000 0.38890  0.49620  0.50630  Biso   1.000  H
  H76      1.0000 0.61110  0.50380  0.49370  Biso   1.000  H
  C53      1.0000 0.21510  0.52450  0.52900  Biso   1.000  C
  C54      1.0000 0.78490  0.47550  0.47100  Biso   1.000  C
  H77      1.0000 0.17430  0.46240  0.47520  Biso   1.000  H
  H78      1.0000 0.82570  0.53760  0.52480  Biso   1.000  H
  H79      1.0000 0.20710  0.49570  0.58150  Biso   1.000  H
  H80      1.0000 0.79290  0.50430  0.41850  Biso   1.000  H
  C55      1.0000 0.41310  0.65740  0.60030  Biso   1.000  C
  C56      1.0000 0.58690  0.34260  0.39970  Biso   1.000  C
  H81      1.0000 0.40750  0.62970  0.65340  Biso   1.000  H
  H82      1.0000 0.59250  0.37030  0.34660  Biso   1.000  H
  H83      1.0000 0.50050  0.68250  0.59210  Biso   1.000  H
  H84      1.0000 0.49950  0.31750  0.40790  Biso   1.000  H
