data_image0
_cell_length_a       11.1872
_cell_length_b       14.6275
_cell_length_c       14.9571
_cell_angle_alpha    103.113
_cell_angle_beta     107.71
_cell_angle_gamma    96.277

_symmetry_space_group_name_H-M    "P 1"
_symmetry_int_tables_number       1

loop_
  _symmetry_equiv_pos_as_xyz
  'x, y, z'

loop_
  _atom_site_label
  _atom_site_occupancy
  _atom_site_fract_x
  _atom_site_fract_y
  _atom_site_fract_z
  _atom_site_thermal_displace_type
  _atom_site_B_iso_or_equiv
  _atom_site_type_symbol
  Cu1      1.0000 0.00000  0.00000  0.00000  Biso   1.000  Cu
  Cu2      1.0000 0.92897  0.15847  0.82800  Biso   1.000  Cu
  Cu3      1.0000 0.07103  0.84153  0.17200  Biso   1.000  Cu
  O1       1.0000 0.89284  0.28518  0.82115  Biso   1.000  O
  O2       1.0000 0.10716  0.71482  0.17885  Biso   1.000  O
  H1       1.0000 0.81990  0.28970  0.78500  Biso   1.000  H
  H2       1.0000 0.18010  0.71030  0.21500  Biso   1.000  H
  H3       1.0000 0.92510  0.33760  0.86550  Biso   1.000  H
  H4       1.0000 0.07490  0.66240  0.13450  Biso   1.000  H
  S1       1.0000 0.57950  0.16792  0.67564  Biso   1.000  S
  S2       1.0000 0.42050  0.83208  0.32436  Biso   1.000  S
  O3       1.0000 0.50018  0.15982  0.73665  Biso   1.000  O
  O4       1.0000 0.49982  0.84018  0.26335  Biso   1.000  O
  O5       1.0000 0.49763  0.14463  0.57280  Biso   1.000  O
  O6       1.0000 0.50237  0.85537  0.42720  Biso   1.000  O
  O7       1.0000 0.65144  0.26781  0.70558  Biso   1.000  O
  O8       1.0000 0.34856  0.73219  0.29442  Biso   1.000  O
  O9       1.0000 0.67275  0.10384  0.68781  Biso   1.000  O
  O10      1.0000 0.32725  0.89616  0.31219  Biso   1.000  O
  S3       1.0000 0.09607  0.48980  0.01645  Biso   1.000  S
  S4       1.0000 0.90393  0.51020  0.98355  Biso   1.000  S
  O11      1.0000 0.96180  0.56960  0.93530  Biso   1.000  O
  O12      1.0000 0.03820  0.43040  0.06470  Biso   1.000  O
  O13      1.0000 0.03860  0.57760  0.01780  Biso   1.000  O
  O14      1.0000 0.96140  0.42240  0.98220  Biso   1.000  O
  O15      1.0000 0.23200  0.52140  0.06420  Biso   1.000  O
  O16      1.0000 0.76800  0.47860  0.93580  Biso   1.000  O
  O17      1.0000 0.06800  0.43690  0.91320  Biso   1.000  O
  O18      1.0000 0.93200  0.56310  0.08680  Biso   1.000  O
  N1       1.0000 0.94737  0.95592  0.85203  Biso   1.000  N
  N2       1.0000 0.05263  0.04408  0.14797  Biso   1.000  N
  N3       1.0000 0.92109  0.01485  0.79145  Biso   1.000  N
  N4       1.0000 0.07891  0.98515  0.20855  Biso   1.000  N
  N5       1.0000 0.90012  0.86994  0.70166  Biso   1.000  N
  N6       1.0000 0.09988  0.13006  0.29834  Biso   1.000  N
  N7       1.0000 0.87272  0.87459  0.26479  Biso   1.000  N
  N8       1.0000 0.12728  0.12541  0.73521  Biso   1.000  N
  N9       1.0000 0.97618  0.83095  0.26463  Biso   1.000  N
  N10      1.0000 0.02382  0.16905  0.73537  Biso   1.000  N
  N11      1.0000 0.89494  0.78481  0.36615  Biso   1.000  N
  N12      1.0000 0.10506  0.21519  0.63385  Biso   1.000  N
  N13      1.0000 0.86896  0.88865  0.99187  Biso   1.000  N
  N14      1.0000 0.13104  0.11135  0.00813  Biso   1.000  N
  N15      1.0000 0.89127  0.82658  0.04916  Biso   1.000  N
  N16      1.0000 0.10873  0.17342  0.95084  Biso   1.000  N
  N17      1.0000 0.69192  0.78566  0.95119  Biso   1.000  N
  N18      1.0000 0.30808  0.21434  0.04881  Biso   1.000  N
  N19      1.0000 0.16748  0.84226  0.07968  Biso   1.000  N
  N20      1.0000 0.83252  0.15774  0.92032  Biso   1.000  N
  N21      1.0000 0.15942  0.90547  0.02326  Biso   1.000  N
  N22      1.0000 0.84058  0.09453  0.97674  Biso   1.000  N
  N23      1.0000 0.26733  0.79810  0.97705  Biso   1.000  N
  N24      1.0000 0.73267  0.20190  0.02295  Biso   1.000  N
  C1       1.0000 0.93320  0.86915  0.79652  Biso   1.000  C
  C2       1.0000 0.06680  0.13085  0.20348  Biso   1.000  C
  H5       1.0000 0.94440  0.81410  0.81940  Biso   1.000  H
  H6       1.0000 0.05560  0.18590  0.18060  Biso   1.000  H
  C3       1.0000 0.89280  0.96169  0.70237  Biso   1.000  C
  C4       1.0000 0.10720  0.03831  0.29763  Biso   1.000  C
  H7       1.0000 0.87020  0.98430  0.64590  Biso   1.000  H
  H8       1.0000 0.12980  0.01570  0.35410  Biso   1.000  H
  C5       1.0000 0.82562  0.84508  0.32542  Biso   1.000  C
  C6       1.0000 0.17438  0.15492  0.67458  Biso   1.000  C
  H9       1.0000 0.75280  0.86320  0.33930  Biso   1.000  H
  H10      1.0000 0.24720  0.13680  0.66070  Biso   1.000  H
  C7       1.0000 0.98797  0.77809  0.32583  Biso   1.000  C
  C8       1.0000 0.01203  0.22191  0.67417  Biso   1.000  C
  H11      1.0000 0.05210  0.74080  0.33970  Biso   1.000  H
  H12      1.0000 0.94790  0.25920  0.66030  Biso   1.000  H
  C9       1.0000 0.87806  0.78728  0.61521  Biso   1.000  C
  C10      1.0000 0.12194  0.21272  0.38479  Biso   1.000  C
  C11      1.0000 0.89674  0.82710  0.53301  Biso   1.000  C
  C12      1.0000 0.10326  0.17290  0.46699  Biso   1.000  C
  H13      1.0000 0.83480  0.86910  0.51600  Biso   1.000  H
  H14      1.0000 0.16520  0.13090  0.48400  Biso   1.000  H
  H15      1.0000 0.98420  0.86530  0.55440  Biso   1.000  H
  H16      1.0000 0.01580  0.13470  0.44560  Biso   1.000  H
  C13      1.0000 0.87593  0.74270  0.44390  Biso   1.000  C
  C14      1.0000 0.12407  0.25730  0.55610  Biso   1.000  C
  C15      1.0000 0.73979  0.68472  0.40971  Biso   1.000  C
  C16      1.0000 0.26021  0.31528  0.59029  Biso   1.000  C
  H17      1.0000 0.67680  0.72590  0.39210  Biso   1.000  H
  H18      1.0000 0.32320  0.27410  0.60790  Biso   1.000  H
  H19      1.0000 0.72570  0.63110  0.35140  Biso   1.000  H
  H20      1.0000 0.27430  0.36890  0.64860  Biso   1.000  H
  C17      1.0000 0.72272  0.64586  0.49310  Biso   1.000  C
  C18      1.0000 0.27728  0.35414  0.50690  Biso   1.000  C
  H21      1.0000 0.63430  0.60740  0.47140  Biso   1.000  H
  H22      1.0000 0.36570  0.39260  0.52860  Biso   1.000  H
  C19      1.0000 0.74162  0.72983  0.58257  Biso   1.000  C
  C20      1.0000 0.25838  0.27017  0.41743  Biso   1.000  C
  H23      1.0000 0.72870  0.70540  0.63610  Biso   1.000  H
  H24      1.0000 0.27130  0.29460  0.36390  Biso   1.000  H
  H25      1.0000 0.67880  0.77120  0.56540  Biso   1.000  H
  H26      1.0000 0.32120  0.22880  0.43460  Biso   1.000  H
  C21      1.0000 0.97652  0.72427  0.64215  Biso   1.000  C
  C22      1.0000 0.02348  0.27573  0.35785  Biso   1.000  C
  H27      1.0000 0.06410  0.76220  0.66350  Biso   1.000  H
  H28      1.0000 0.93590  0.23780  0.33650  Biso   1.000  H
  H29      1.0000 0.96700  0.69980  0.69660  Biso   1.000  H
  H30      1.0000 0.03300  0.30020  0.30340  Biso   1.000  H
  C23      1.0000 0.95508  0.64042  0.55248  Biso   1.000  C
  C24      1.0000 0.04492  0.35958  0.44752  Biso   1.000  C
  H31      1.0000 0.01860  0.59870  0.56980  Biso   1.000  H
  H32      1.0000 0.98140  0.40130  0.43020  Biso   1.000  H
  C25      1.0000 0.97346  0.67915  0.46918  Biso   1.000  C
  C26      1.0000 0.02654  0.32085  0.53082  Biso   1.000  C
  H33      1.0000 0.96080  0.62540  0.41130  Biso   1.000  H
  H34      1.0000 0.03920  0.37460  0.58870  Biso   1.000  H
  H35      1.0000 0.06120  0.71650  0.48990  Biso   1.000  H
  H36      1.0000 0.93880  0.28350  0.51010  Biso   1.000  H
  C27      1.0000 0.82010  0.58193  0.52035  Biso   1.000  C
  C28      1.0000 0.17990  0.41807  0.47965  Biso   1.000  C
  H37      1.0000 0.80660  0.52690  0.46340  Biso   1.000  H
  H38      1.0000 0.19340  0.47310  0.53660  Biso   1.000  H
  H39      1.0000 0.80870  0.55690  0.57400  Biso   1.000  H
  H40      1.0000 0.19130  0.44310  0.42600  Biso   1.000  H
  C29      1.0000 0.74910  0.86257  0.93358  Biso   1.000  C
  C30      1.0000 0.25090  0.13743  0.06642  Biso   1.000  C
  H41      1.0000 0.70880  0.89330  0.88620  Biso   1.000  H
  H42      1.0000 0.29120  0.10670  0.11380  Biso   1.000  H
  C31      1.0000 0.78418  0.76611  0.02375  Biso   1.000  C
  C32      1.0000 0.21582  0.23389  0.97625  Biso   1.000  C
  H43      1.0000 0.77230  0.71540  0.05200  Biso   1.000  H
  H44      1.0000 0.22770  0.28460  0.94800  Biso   1.000  H
  C33      1.0000 0.23234  0.77886  0.05056  Biso   1.000  C
  C34      1.0000 0.76766  0.22114  0.94944  Biso   1.000  C
  H45      1.0000 0.25170  0.72710  0.07740  Biso   1.000  H
  H46      1.0000 0.74830  0.27290  0.92260  Biso   1.000  H
  C35      1.0000 0.22049  0.87783  0.96343  Biso   1.000  C
  C36      1.0000 0.77951  0.12217  0.03657  Biso   1.000  C
  H47      1.0000 0.23090  0.90920  0.91650  Biso   1.000  H
  H48      1.0000 0.76910  0.09080  0.08350  Biso   1.000  H
  C37      1.0000 0.55459  0.73755  0.90807  Biso   1.000  C
  C38      1.0000 0.44541  0.26245  0.09193  Biso   1.000  C
  C39      1.0000 0.48124  0.79430  0.96531  Biso   1.000  C
  C40      1.0000 0.51876  0.20570  0.03469  Biso   1.000  C
  H49      1.0000 0.51680  0.79690  0.03530  Biso   1.000  H
  H50      1.0000 0.48320  0.20310  0.96470  Biso   1.000  H
  H51      1.0000 0.48890  0.86060  0.95940  Biso   1.000  H
  H52      1.0000 0.51110  0.13940  0.04060  Biso   1.000  H
  C41      1.0000 0.34035  0.74379  0.92285  Biso   1.000  C
  C42      1.0000 0.65965  0.25621  0.07715  Biso   1.000  C
  C43      1.0000 0.28515  0.74117  0.81514  Biso   1.000  C
  C44      1.0000 0.71485  0.25883  0.18486  Biso   1.000  C
  H53      1.0000 0.19380  0.70980  0.78830  Biso   1.000  H
  H54      1.0000 0.80620  0.29020  0.21170  Biso   1.000  H
  H55      1.0000 0.29130  0.80720  0.80850  Biso   1.000  H
  H56      1.0000 0.70870  0.19280  0.19150  Biso   1.000  H
  C45      1.0000 0.36019  0.68553  0.75837  Biso   1.000  C
  C46      1.0000 0.63981  0.31447  0.24163  Biso   1.000  C
  H57      1.0000 0.32460  0.68430  0.68810  Biso   1.000  H
  H58      1.0000 0.67540  0.31570  0.31190  Biso   1.000  H
  C47      1.0000 0.50196  0.73587  0.80041  Biso   1.000  C
  C48      1.0000 0.49804  0.26413  0.19959  Biso   1.000  C
  H59      1.0000 0.50970  0.80200  0.79410  Biso   1.000  H
  H60      1.0000 0.49030  0.19800  0.20590  Biso   1.000  H
  H61      1.0000 0.55130  0.70100  0.76390  Biso   1.000  H
  H62      1.0000 0.44870  0.29900  0.23610  Biso   1.000  H
  C49      1.0000 0.54358  0.63553  0.91759  Biso   1.000  C
  C50      1.0000 0.45642  0.36447  0.08241  Biso   1.000  C
  H63      1.0000 0.59320  0.59970  0.88210  Biso   1.000  H
  H64      1.0000 0.40680  0.40030  0.11790  Biso   1.000  H
  H65      1.0000 0.57880  0.63660  0.98720  Biso   1.000  H
  H66      1.0000 0.42120  0.36340  0.01280  Biso   1.000  H
  C51      1.0000 0.40212  0.58619  0.87476  Biso   1.000  C
  C52      1.0000 0.59788  0.41381  0.12524  Biso   1.000  C
  H67      1.0000 0.39440  0.51930  0.88080  Biso   1.000  H
  H68      1.0000 0.60560  0.48070  0.11920  Biso   1.000  H
  C53      1.0000 0.32869  0.64203  0.93273  Biso   1.000  C
  C54      1.0000 0.67131  0.35797  0.06727  Biso   1.000  C
  H69      1.0000 0.36430  0.64340  0.00230  Biso   1.000  H
  H70      1.0000 0.63570  0.35660  0.99770  Biso   1.000  H
  H71      1.0000 0.23750  0.61040  0.90740  Biso   1.000  H
  H72      1.0000 0.76250  0.38960  0.09260  Biso   1.000  H
  C55      1.0000 0.34765  0.58372  0.76688  Biso   1.000  C
  C56      1.0000 0.65235  0.41628  0.23312  Biso   1.000  C
  H73      1.0000 0.25660  0.55170  0.73930  Biso   1.000  H
  H74      1.0000 0.74340  0.44830  0.26070  Biso   1.000  H
  H75      1.0000 0.39500  0.54720  0.72980  Biso   1.000  H
  H76      1.0000 0.60500  0.45280  0.27020  Biso   1.000  H
  O19      1.0000 0.63224  0.93077  0.73970  Biso   1.000  O
  O20      1.0000 0.36776  0.06923  0.26030  Biso   1.000  O
  H77      1.0000 0.64150  0.98240  0.72340  Biso   1.000  H
  H78      1.0000 0.35850  0.01760  0.27660  Biso   1.000  H
  H79      1.0000 0.57850  0.88840  0.69100  Biso   1.000  H
  H80      1.0000 0.42150  0.11160  0.30900  Biso   1.000  H
  O21      1.0000 0.29174  0.99402  0.48647  Biso   1.000  O
  O22      1.0000 0.70826  0.00598  0.51353  Biso   1.000  O
  H81      1.0000 0.31290  0.95900  0.44230  Biso   1.000  H
  H82      1.0000 0.68710  0.04100  0.55770  Biso   1.000  H
  H83      1.0000 0.35340  0.04070  0.51920  Biso   1.000  H
  H84      1.0000 0.64660  0.95930  0.48080  Biso   1.000  H
  O23      1.0000 0.55412  0.19521  0.42251  Biso   1.000  O
  O24      1.0000 0.44588  0.80479  0.57749  Biso   1.000  O
  H85      1.0000 0.53990  0.17930  0.47010  Biso   1.000  H
  H86      1.0000 0.46010  0.82070  0.52990  Biso   1.000  H
  H87      1.0000 0.62010  0.17480  0.41590  Biso   1.000  H
  H88      1.0000 0.37990  0.82520  0.58410  Biso   1.000  H
  O25      1.0000 0.80035  0.36356  0.62189  Biso   1.000  O
  O26      1.0000 0.19965  0.63644  0.37811  Biso   1.000  O
  H89      1.0000 0.74740  0.33630  0.64260  Biso   1.000  H
  H90      1.0000 0.25260  0.66370  0.35740  Biso   1.000  H
  H91      1.0000 0.75830  0.37970  0.57210  Biso   1.000  H
  H92      1.0000 0.24170  0.62030  0.42790  Biso   1.000  H
  O27      1.0000 0.40819  0.60708  0.52990  Biso   1.000  O
  O28      1.0000 0.59181  0.39292  0.47010  Biso   1.000  O
  H93      1.0000 0.45660  0.58400  0.57140  Biso   1.000  H
  H94      1.0000 0.54340  0.41600  0.42860  Biso   1.000  H
  H95      1.0000 0.42830  0.66770  0.55030  Biso   1.000  H
  H96      1.0000 0.57170  0.33230  0.44970  Biso   1.000  H
  O29      1.0000 0.24007  0.97099  0.79176  Biso   1.000  O
  O30      1.0000 0.75993  0.02901  0.20824  Biso   1.000  O
  H97      1.0000 0.32020  0.99240  0.81650  Biso   1.000  H
  H98      1.0000 0.67980  0.00760  0.18350  Biso   1.000  H
  H99      1.0000 0.20240  0.01820  0.78920  Biso   1.000  H
  H100     1.0000 0.79760  0.98180  0.21080  Biso   1.000  H
  O31      1.0000 0.49925  0.03214  0.84742  Biso   1.000  O
  O32      1.0000 0.50075  0.96786  0.15258  Biso   1.000  O
  H101     1.0000 0.53210  0.98980  0.81910  Biso   1.000  H
  H102     1.0000 0.46790  0.01020  0.18090  Biso   1.000  H
  H103     1.0000 0.50030  0.07860  0.82220  Biso   1.000  H
  H104     1.0000 0.49970  0.92140  0.17780  Biso   1.000  H
  O33      1.0000 0.76699  0.12178  0.40305  Biso   1.000  O
  O34      1.0000 0.23301  0.87822  0.59695  Biso   1.000  O
  H105     1.0000 0.77110  0.09300  0.34820  Biso   1.000  H
  H106     1.0000 0.22890  0.90700  0.65180  Biso   1.000  H
  H107     1.0000 0.75490  0.08030  0.43260  Biso   1.000  H
  H108     1.0000 0.24510  0.91970  0.56740  Biso   1.000  H
  O35      1.0000 0.59377  0.53092  0.64224  Biso   1.000  O
  O36      1.0000 0.40623  0.46908  0.35776  Biso   1.000  O
  H109     1.0000 0.57680  0.50410  0.68290  Biso   1.000  H
  H110     1.0000 0.42320  0.49590  0.31710  Biso   1.000  H
  H111     1.0000 0.60410  0.48850  0.59740  Biso   1.000  H
  H112     1.0000 0.39590  0.51150  0.40260  Biso   1.000  H
  O37      1.0000 0.57810  0.43260  0.77613  Biso   1.000  O
  O38      1.0000 0.42190  0.56740  0.22387  Biso   1.000  O
  H113     1.0000 0.64690  0.45070  0.82500  Biso   1.000  H
  H114     1.0000 0.35310  0.54930  0.17500  Biso   1.000  H
  H115     1.0000 0.58000  0.37830  0.74150  Biso   1.000  H
  H116     1.0000 0.42000  0.62170  0.25850  Biso   1.000  H
  O39      1.0000 0.41182  0.31833  0.83148  Biso   1.000  O
  O40      1.0000 0.58818  0.68167  0.16852  Biso   1.000  O
  H117     1.0000 0.42800  0.26480  0.80670  Biso   1.000  H
  H118     1.0000 0.57200  0.73520  0.19330  Biso   1.000  H
  H119     1.0000 0.45690  0.36190  0.81990  Biso   1.000  H
  H120     1.0000 0.54310  0.63810  0.18010  Biso   1.000  H
  O41      1.0000 0.79390  0.61422  0.13907  Biso   1.000  O
  O42      1.0000 0.20610  0.38578  0.86093  Biso   1.000  O
  O43      1.0000 0.82800  0.66620  0.81100  Biso   1.000  O
  O44      1.0000 0.17200  0.33380  0.18900  Biso   1.000  O
  O45      1.0000 0.97200  0.51660  0.22900  Biso   1.000  O
  O46      1.0000 0.02800  0.48340  0.77100  Biso   1.000  O
  O47      1.0000 0.77300  0.51280  0.95450  Biso   1.000  O
  O48      1.0000 0.22700  0.48720  0.04550  Biso   1.000  O
  O49      1.0000 0.95930  0.68300  0.86550  Biso   1.000  O
  O50      1.0000 0.04070  0.31700  0.13450  Biso   1.000  O
  O51      1.0000 0.00350  0.48600  0.24880  Biso   1.000  O
  O52      1.0000 0.99650  0.51400  0.75120  Biso   1.000  O
