data_image0
_cell_length_a       7.225
_cell_length_b       8.08
_cell_length_c       11.731
_cell_angle_alpha    72.294
_cell_angle_beta     88.049
_cell_angle_gamma    66.294

_symmetry_space_group_name_H-M    "P 1"
_symmetry_int_tables_number       1

loop_
  _symmetry_equiv_pos_as_xyz
  'x, y, z'

loop_
  _atom_site_label
  _atom_site_occupancy
  _atom_site_fract_x
  _atom_site_fract_y
  _atom_site_fract_z
  _atom_site_thermal_displace_type
  _atom_site_B_iso_or_equiv
  _atom_site_type_symbol
  Cu1      1.0000 0.58254  0.06238  0.40350  Biso   1.000  Cu
  Cu2      1.0000 0.41746  0.93762  0.59650  Biso   1.000  Cu
  O1       1.0000 0.63410  0.20780  0.49810  Biso   1.000  O
  O2       1.0000 0.36590  0.79220  0.50190  Biso   1.000  O
  O3       1.0000 0.49230  0.10450  0.66045  Biso   1.000  O
  O4       1.0000 0.50770  0.89550  0.33955  Biso   1.000  O
  O5       1.0000 0.83430  0.83940  0.48630  Biso   1.000  O
  O6       1.0000 0.16570  0.16060  0.51370  Biso   1.000  O
  O7       1.0000 0.69500  0.73740  0.65070  Biso   1.000  O
  O8       1.0000 0.30500  0.26260  0.34930  Biso   1.000  O
  N1       1.0000 0.71920  0.17440  0.24830  Biso   1.000  N
  N2       1.0000 0.28080  0.82560  0.75170  Biso   1.000  N
  N3       1.0000 0.95620  0.21690  0.13860  Biso   1.000  N
  N4       1.0000 0.04380  0.78310  0.86140  Biso   1.000  N
  N5       1.0000 0.77730  0.34740  0.07200  Biso   1.000  N
  N6       1.0000 0.22270  0.65260  0.92800  Biso   1.000  N
  C1       1.0000 0.91710  0.11680  0.24190  Biso   1.000  C
  C2       1.0000 0.08290  0.88320  0.75810  Biso   1.000  C
  H1       1.0000 0.01570  0.01940  0.30160  Biso   1.000  H
  H2       1.0000 0.98430  0.98060  0.69840  Biso   1.000  H
  C3       1.0000 0.64030  0.31560  0.14230  Biso   1.000  C
  C4       1.0000 0.35970  0.68440  0.85770  Biso   1.000  C
  H3       1.0000 0.50120  0.38430  0.12080  Biso   1.000  H
  H4       1.0000 0.49880  0.61570  0.87920  Biso   1.000  H
  C5       1.0000 0.15370  0.20100  0.09350  Biso   1.000  C
  C6       1.0000 0.84630  0.79900  0.90650  Biso   1.000  C
  H5       1.0000 0.26030  0.12580  0.15960  Biso   1.000  H
  H6       1.0000 0.73970  0.87420  0.84040  Biso   1.000  H
  H7       1.0000 0.15290  0.32720  0.06270  Biso   1.000  H
  H8       1.0000 0.84710  0.67280  0.93730  Biso   1.000  H
  C7       1.0000 0.19960  0.10970  0.99530  Biso   1.000  C
  C8       1.0000 0.80040  0.89030  0.00470  Biso   1.000  C
  H9       1.0000 0.09850  0.18940  0.92680  Biso   1.000  H
  H10      1.0000 0.90150  0.81060  0.07320  Biso   1.000  H
  H11      1.0000 0.19150  0.98700  0.02420  Biso   1.000  H
  H12      1.0000 0.80850  0.01300  0.97580  Biso   1.000  H
  C9       1.0000 0.41380  0.08140  0.95500  Biso   1.000  C
  C10      1.0000 0.58620  0.91860  0.04500  Biso   1.000  C
  H13      1.0000 0.42310  0.05680  0.87860  Biso   1.000  H
  H14      1.0000 0.57690  0.94320  0.12140  Biso   1.000  H
  H15      1.0000 0.43080  0.19860  0.94250  Biso   1.000  H
  H16      1.0000 0.56920  0.80140  0.05750  Biso   1.000  H
  C11      1.0000 0.58060  0.20430  0.60180  Biso   1.000  C
  C12      1.0000 0.41940  0.79570  0.39820  Biso   1.000  C
  C13      1.0000 0.62940  0.32550  0.66050  Biso   1.000  C
  C14      1.0000 0.37060  0.67450  0.33950  Biso   1.000  C
  H17      1.0000 0.52770  0.45390  0.63200  Biso   1.000  H
  H18      1.0000 0.47230  0.54610  0.36800  Biso   1.000  H
  H19      1.0000 0.76000  0.32410  0.64090  Biso   1.000  H
  H20      1.0000 0.24000  0.67590  0.35910  Biso   1.000  H
  H21      1.0000 0.63170  0.27570  0.74620  Biso   1.000  H
  H22      1.0000 0.36830  0.72430  0.25380  Biso   1.000  H
  C15      1.0000 0.84360  0.72440  0.58780  Biso   1.000  C
  C16      1.0000 0.15640  0.27560  0.41220  Biso   1.000  C
  C17      1.0000 0.04420  0.55850  0.63870  Biso   1.000  C
  C18      1.0000 0.95580  0.44150  0.36130  Biso   1.000  C
  H23      1.0000 0.15290  0.59440  0.60940  Biso   1.000  H
  H24      1.0000 0.84710  0.40560  0.39060  Biso   1.000  H
  H25      1.0000 0.05510  0.52260  0.72490  Biso   1.000  H
  H26      1.0000 0.94490  0.47740  0.27510  Biso   1.000  H
  H27      1.0000 0.05280  0.45280  0.61420  Biso   1.000  H
  H28      1.0000 0.94720  0.54720  0.38580  Biso   1.000  H
