data_image0
_cell_length_a       13.3041
_cell_length_b       13.4866
_cell_length_c       16.1856
_cell_angle_alpha    69.923
_cell_angle_beta     70.14
_cell_angle_gamma    72.634

_symmetry_space_group_name_H-M    "P 1"
_symmetry_int_tables_number       1

loop_
  _symmetry_equiv_pos_as_xyz
  'x, y, z'

loop_
  _atom_site_label
  _atom_site_occupancy
  _atom_site_fract_x
  _atom_site_fract_y
  _atom_site_fract_z
  _atom_site_thermal_displace_type
  _atom_site_B_iso_or_equiv
  _atom_site_type_symbol
  Cu1      1.0000 0.50000  0.50000  0.50000  Biso   1.000  Cu
  Cu2      1.0000 0.50000  0.00000  0.00000  Biso   1.000  Cu
  Cu3      1.0000 0.00000  0.50000  0.00000  Biso   1.000  Cu
  N1       1.0000 0.42310  0.49350  0.63134  Biso   1.000  N
  N2       1.0000 0.57690  0.50650  0.36866  Biso   1.000  N
  H1       1.0000 0.44670  0.42370  0.66460  Biso   1.000  H
  H2       1.0000 0.55330  0.57630  0.33540  Biso   1.000  H
  N3       1.0000 0.60230  0.57240  0.51473  Biso   1.000  N
  N4       1.0000 0.39770  0.42760  0.48527  Biso   1.000  N
  H3       1.0000 0.57990  0.64630  0.49130  Biso   1.000  H
  H4       1.0000 0.42010  0.35370  0.50870  Biso   1.000  H
  N5       1.0000 0.26310  0.44020  0.63070  Biso   1.000  N
  N6       1.0000 0.73690  0.55980  0.36930  Biso   1.000  N
  N7       1.0000 0.06420  0.32540  0.81219  Biso   1.000  N
  N8       1.0000 0.93580  0.67460  0.18781  Biso   1.000  N
  N9       1.0000 0.03490  0.39380  0.92630  Biso   1.000  N
  N10      1.0000 0.96510  0.60620  0.07370  Biso   1.000  N
  N11      1.0000 0.00160  0.38030  0.11530  Biso   1.000  N
  N12      1.0000 0.99840  0.61970  0.88470  Biso   1.000  N
  N13      1.0000 0.05770  0.26670  0.23318  Biso   1.000  N
  N14      1.0000 0.94230  0.73330  0.76682  Biso   1.000  N
  N15      1.0000 0.29640  0.13800  0.12950  Biso   1.000  N
  N16      1.0000 0.70360  0.86200  0.87050  Biso   1.000  N
  N17      1.0000 0.34810  0.07800  0.99047  Biso   1.000  N
  N18      1.0000 0.65190  0.92200  0.00953  Biso   1.000  N
  H5       1.0000 0.30200  0.02920  0.02020  Biso   1.000  H
  H6       1.0000 0.69800  0.97080  0.97980  Biso   1.000  H
  N19      1.0000 0.53320  0.00130  0.86800  Biso   1.000  N
  N20      1.0000 0.46680  0.99870  0.13200  Biso   1.000  N
  H7       1.0000 0.57000  0.05670  0.83180  Biso   1.000  H
  H8       1.0000 0.43000  0.94330  0.16820  Biso   1.000  H
  C1       1.0000 0.30200  0.51200  0.65540  Biso   1.000  C
  C2       1.0000 0.69800  0.48800  0.34460  Biso   1.000  C
  H9       1.0000 0.27300  0.50300  0.72200  Biso   1.000  H
  H10      1.0000 0.72700  0.49700  0.27800  Biso   1.000  H
  H11      1.0000 0.27310  0.58730  0.62440  Biso   1.000  H
  H12      1.0000 0.72690  0.41270  0.37560  Biso   1.000  H
  C3       1.0000 0.46350  0.56600  0.65880  Biso   1.000  C
  C4       1.0000 0.53650  0.43400  0.34120  Biso   1.000  C
  H13      1.0000 0.44920  0.54600  0.72600  Biso   1.000  H
  H14      1.0000 0.55080  0.45400  0.27400  Biso   1.000  H
  H15      1.0000 0.42630  0.64190  0.63810  Biso   1.000  H
  H16      1.0000 0.57370  0.35810  0.36190  Biso   1.000  H
  C5       1.0000 0.58530  0.55210  0.61390  Biso   1.000  C
  C6       1.0000 0.41470  0.44790  0.38610  Biso   1.000  C
  H17      1.0000 0.61540  0.60360  0.62520  Biso   1.000  H
  H18      1.0000 0.38460  0.39640  0.37480  Biso   1.000  H
  H19      1.0000 0.62310  0.47800  0.63950  Biso   1.000  H
  H20      1.0000 0.37690  0.52200  0.36050  Biso   1.000  H
  C7       1.0000 0.28130  0.45780  0.53440  Biso   1.000  C
  C8       1.0000 0.71870  0.54220  0.46560  Biso   1.000  C
  H21      1.0000 0.23850  0.41550  0.52520  Biso   1.000  H
  H22      1.0000 0.76150  0.58450  0.47480  Biso   1.000  H
  H23      1.0000 0.25360  0.53500  0.50720  Biso   1.000  H
  H24      1.0000 0.74640  0.46500  0.49280  Biso   1.000  H
  C9       1.0000 0.28740  0.32600  0.68320  Biso   1.000  C
  C10      1.0000 0.71260  0.67400  0.31680  Biso   1.000  C
  H25      1.0000 0.36260  0.29200  0.65510  Biso   1.000  H
  H26      1.0000 0.63740  0.70800  0.34490  Biso   1.000  H
  H27      1.0000 0.28340  0.32270  0.74630  Biso   1.000  H
  H28      1.0000 0.71660  0.67730  0.25370  Biso   1.000  H
  C11      1.0000 0.20740  0.26330  0.68590  Biso   1.000  C
  C12      1.0000 0.79260  0.73670  0.31410  Biso   1.000  C
  H29      1.0000 0.22180  0.18960  0.72650  Biso   1.000  H
  H30      1.0000 0.77820  0.81040  0.27350  Biso   1.000  H
  H31      1.0000 0.22000  0.25680  0.62390  Biso   1.000  H
  H32      1.0000 0.78000  0.74320  0.37610  Biso   1.000  H
  C13      1.0000 0.08880  0.31640  0.71940  Biso   1.000  C
  C14      1.0000 0.91120  0.68360  0.28060  Biso   1.000  C
  H33      1.0000 0.04090  0.27340  0.71830  Biso   1.000  H
  H34      1.0000 0.95910  0.72660  0.28170  Biso   1.000  H
  H35      1.0000 0.07330  0.38930  0.67790  Biso   1.000  H
  H36      1.0000 0.92670  0.61070  0.32210  Biso   1.000  H
  C15      1.0000 0.05420  0.41390  0.83660  Biso   1.000  C
  C16      1.0000 0.94580  0.58610  0.16340  Biso   1.000  C
  H37      1.0000 0.06010  0.48280  0.79480  Biso   1.000  H
  H38      1.0000 0.93990  0.51720  0.20520  Biso   1.000  H
  C17      1.0000 0.05020  0.24220  0.89110  Biso   1.000  C
  C18      1.0000 0.94980  0.75780  0.10890  Biso   1.000  C
  H39      1.0000 0.05220  0.16950  0.89590  Biso   1.000  H
  H40      1.0000 0.94780  0.83050  0.10410  Biso   1.000  H
  C19      1.0000 0.03300  0.28470  0.96030  Biso   1.000  C
  C20      1.0000 0.96700  0.71530  0.03970  Biso   1.000  C
  H41      1.0000 0.02140  0.24570  0.02290  Biso   1.000  H
  H42      1.0000 0.97860  0.75430  0.97710  Biso   1.000  H
  C21      1.0000 0.08460  0.33830  0.15250  Biso   1.000  C
  C22      1.0000 0.91540  0.66170  0.84750  Biso   1.000  C
  H43      1.0000 0.15450  0.35670  0.12530  Biso   1.000  H
  H44      1.0000 0.84550  0.64330  0.87470  Biso   1.000  H
  C23      1.0000 0.91660  0.33150  0.17620  Biso   1.000  C
  C24      1.0000 0.08340  0.66850  0.82380  Biso   1.000  C
  H45      1.0000 0.84550  0.34530  0.16850  Biso   1.000  H
  H46      1.0000 0.15450  0.65470  0.83150  Biso   1.000  H
  C25      1.0000 0.95170  0.26070  0.24870  Biso   1.000  C
  C26      1.0000 0.04830  0.73930  0.75130  Biso   1.000  C
  H47      1.0000 0.91070  0.21580  0.30030  Biso   1.000  H
  H48      1.0000 0.08930  0.78420  0.69970  Biso   1.000  H
  C27      1.0000 0.13320  0.19990  0.28940  Biso   1.000  C
  C28      1.0000 0.86680  0.80010  0.71060  Biso   1.000  C
  H49      1.0000 0.19870  0.23150  0.26920  Biso   1.000  H
  H50      1.0000 0.80130  0.76850  0.73080  Biso   1.000  H
  H51      1.0000 0.09720  0.20010  0.35380  Biso   1.000  H
  H52      1.0000 0.90280  0.79990  0.64620  Biso   1.000  H
  C29      1.0000 0.16800  0.08470  0.28250  Biso   1.000  C
  C30      1.0000 0.83200  0.91530  0.71750  Biso   1.000  C
  H53      1.0000 0.22480  0.04540  0.31560  Biso   1.000  H
  H54      1.0000 0.77520  0.95460  0.68440  Biso   1.000  H
  H55      1.0000 0.10450  0.04950  0.31330  Biso   1.000  H
  H56      1.0000 0.89550  0.95050  0.68670  Biso   1.000  H
  C31      1.0000 0.21250  0.07480  0.18520  Biso   1.000  C
  C32      1.0000 0.78750  0.92520  0.81480  Biso   1.000  C
  H57      1.0000 0.15150  0.09890  0.15630  Biso   1.000  H
  H58      1.0000 0.84850  0.90110  0.84370  Biso   1.000  H
  H59      1.0000 0.24380  0.99790  0.18670  Biso   1.000  H
  H60      1.0000 0.75620  0.00210  0.81330  Biso   1.000  H
  C33      1.0000 0.30530  0.16990  0.03310  Biso   1.000  C
  C34      1.0000 0.69470  0.83010  0.96690  Biso   1.000  C
  H61      1.0000 0.23230  0.20720  0.02330  Biso   1.000  H
  H62      1.0000 0.76770  0.79280  0.97670  Biso   1.000  H
  H63      1.0000 0.35410  0.22210  0.00190  Biso   1.000  H
  H64      1.0000 0.64590  0.77790  0.99810  Biso   1.000  H
  C35      1.0000 0.35170  0.11410  0.89180  Biso   1.000  C
  C36      1.0000 0.64830  0.88590  0.10820  Biso   1.000  C
  H65      1.0000 0.27740  0.12770  0.88470  Biso   1.000  H
  H66      1.0000 0.72260  0.87230  0.11530  Biso   1.000  H
  H67      1.0000 0.37910  0.18200  0.86250  Biso   1.000  H
  H68      1.0000 0.62090  0.81800  0.13750  Biso   1.000  H
  C37      1.0000 0.42660  0.02720  0.84690  Biso   1.000  C
  C38      1.0000 0.57340  0.97280  0.15310  Biso   1.000  C
  H69      1.0000 0.43640  0.05310  0.78010  Biso   1.000  H
  H70      1.0000 0.56360  0.94690  0.21990  Biso   1.000  H
  H71      1.0000 0.39470  0.96200  0.87060  Biso   1.000  H
  H72      1.0000 0.60530  0.03800  0.12940  Biso   1.000  H
  C39      1.0000 0.39830  0.10170  0.15390  Biso   1.000  C
  C40      1.0000 0.60170  0.89830  0.84610  Biso   1.000  C
  H73      1.0000 0.38260  0.09170  0.22020  Biso   1.000  H
  H74      1.0000 0.61740  0.90830  0.77980  Biso   1.000  H
  H75      1.0000 0.44130  0.15900  0.12190  Biso   1.000  H
  H76      1.0000 0.55870  0.84100  0.87810  Biso   1.000  H
  O1       1.0000 0.54690  0.21560  0.51980  Biso   1.000  O
  O2       1.0000 0.45310  0.78440  0.48020  Biso   1.000  O
  O3       1.0000 0.60500  0.31848  0.56790  Biso   1.000  O
  O4       1.0000 0.39500  0.68152  0.43210  Biso   1.000  O
  C41      1.0000 0.61920  0.23960  0.53750  Biso   1.000  C
  C42      1.0000 0.38080  0.76040  0.46250  Biso   1.000  C
  C43      1.0000 0.73340  0.17000  0.52160  Biso   1.000  C
  C44      1.0000 0.26660  0.83000  0.47840  Biso   1.000  C
  C45      1.0000 0.81860  0.20080  0.53120  Biso   1.000  C
  C46      1.0000 0.18140  0.79920  0.46880  Biso   1.000  C
  H77      1.0000 0.80540  0.26710  0.54530  Biso   1.000  H
  H78      1.0000 0.19460  0.73290  0.45470  Biso   1.000  H
  C47      1.0000 0.92240  0.13640  0.52060  Biso   1.000  C
  C48      1.0000 0.07760  0.86360  0.47940  Biso   1.000  C
  H79      1.0000 0.97950  0.16060  0.52590  Biso   1.000  H
  H80      1.0000 0.02050  0.83940  0.47410  Biso   1.000  H
  C49      1.0000 0.94570  0.03610  0.50220  Biso   1.000  C
  C50      1.0000 0.05430  0.96390  0.49780  Biso   1.000  C
  C51      1.0000 0.85890  0.00820  0.49020  Biso   1.000  C
  C52      1.0000 0.14110  0.99180  0.50980  Biso   1.000  C
  H81      1.0000 0.87160  0.94250  0.47520  Biso   1.000  H
  H82      1.0000 0.12840  0.05750  0.52480  Biso   1.000  H
  C53      1.0000 0.75530  0.07330  0.49960  Biso   1.000  C
  C54      1.0000 0.24470  0.92670  0.50040  Biso   1.000  C
  H83      1.0000 0.69870  0.05160  0.49100  Biso   1.000  H
  H84      1.0000 0.30130  0.94840  0.50900  Biso   1.000  H
  O5       1.0000 0.60150  0.56160  0.86760  Biso   1.000  O
  O6       1.0000 0.39850  0.43840  0.13240  Biso   1.000  O
  O7       1.0000 0.67380  0.66930  0.73140  Biso   1.000  O
  O8       1.0000 0.32620  0.33070  0.26860  Biso   1.000  O
  O9       1.0000 0.77880  0.10880  0.92020  Biso   1.000  O
  O10      1.0000 0.22120  0.89120  0.07980  Biso   1.000  O
  O11      1.0000 0.82050  0.20300  0.77250  Biso   1.000  O
  O12      1.0000 0.17950  0.79700  0.22750  Biso   1.000  O
  C55      1.0000 0.59520  0.64610  0.79910  Biso   1.000  C
  C56      1.0000 0.40480  0.35390  0.20090  Biso   1.000  C
  C57      1.0000 0.48390  0.71820  0.79940  Biso   1.000  C
  C58      1.0000 0.51610  0.28180  0.20060  Biso   1.000  C
  C59      1.0000 0.46660  0.80700  0.72660  Biso   1.000  C
  C60      1.0000 0.53340  0.19300  0.27340  Biso   1.000  C
  H85      1.0000 0.52580  0.82200  0.67430  Biso   1.000  H
  H86      1.0000 0.47420  0.17800  0.32570  Biso   1.000  H
  C61      1.0000 0.36430  0.87430  0.72910  Biso   1.000  C
  C62      1.0000 0.63570  0.12570  0.27090  Biso   1.000  C
  H87      1.0000 0.35430  0.93480  0.67860  Biso   1.000  H
  H88      1.0000 0.64570  0.06520  0.32140  Biso   1.000  H
  C63      1.0000 0.27630  0.85400  0.80470  Biso   1.000  C
  C64      1.0000 0.72370  0.14600  0.19530  Biso   1.000  C
  C65      1.0000 0.29380  0.76270  0.87690  Biso   1.000  C
  C66      1.0000 0.70620  0.23730  0.12310  Biso   1.000  C
  H89      1.0000 0.23450  0.74560  0.92850  Biso   1.000  H
  H90      1.0000 0.76550  0.25440  0.07150  Biso   1.000  H
  C67      1.0000 0.39640  0.69700  0.87380  Biso   1.000  C
  C68      1.0000 0.60360  0.30300  0.12620  Biso   1.000  C
  H91      1.0000 0.40670  0.63610  0.92390  Biso   1.000  H
  H92      1.0000 0.59330  0.36390  0.07610  Biso   1.000  H
  C69      1.0000 0.16730  0.92690  0.81090  Biso   1.000  C
  C70      1.0000 0.83270  0.07310  0.18910  Biso   1.000  C
  C71      1.0000 0.13370  0.99670  0.73370  Biso   1.000  C
  C72      1.0000 0.86630  0.00330  0.26630  Biso   1.000  C
  H93      1.0000 0.18220  0.99850  0.67480  Biso   1.000  H
  H94      1.0000 0.81780  0.00150  0.32520  Biso   1.000  H
  C73      1.0000 0.03050  0.06320  0.74210  Biso   1.000  C
  C74      1.0000 0.96950  0.93680  0.25790  Biso   1.000  C
  H95      1.0000 0.01020  0.11140  0.68910  Biso   1.000  H
  H96      1.0000 0.98980  0.88860  0.31090  Biso   1.000  H
  C75      1.0000 0.95610  0.06010  0.82780  Biso   1.000  C
  C76      1.0000 0.04390  0.93990  0.17220  Biso   1.000  C
  C77      1.0000 0.98870  0.98900  0.90370  Biso   1.000  C
  C78      1.0000 0.01130  0.01100  0.09630  Biso   1.000  C
  H97      1.0000 0.93850  0.98390  0.96230  Biso   1.000  H
  H98      1.0000 0.06150  0.01610  0.03770  Biso   1.000  H
  C79      1.0000 0.09250  0.92510  0.89620  Biso   1.000  C
  C80      1.0000 0.90750  0.07490  0.10380  Biso   1.000  C
  H99      1.0000 0.11330  0.87950  0.94980  Biso   1.000  H
  H100     1.0000 0.88670  0.12050  0.05020  Biso   1.000  H
  C81      1.0000 0.84410  0.13090  0.84100  Biso   1.000  C
  C82      1.0000 0.15590  0.86910  0.15900  Biso   1.000  C
  O13      1.0000 0.43530  0.82530  0.03920  Biso   1.000  O
  O14      1.0000 0.56470  0.17470  0.96080  Biso   1.000  O
  H101     1.0000 0.46670  0.76050  0.04050  Biso   1.000  H
  H102     1.0000 0.53330  0.23950  0.95950  Biso   1.000  H
  H103     1.0000 0.36640  0.84580  0.05250  Biso   1.000  H
  H104     1.0000 0.63360  0.15420  0.94750  Biso   1.000  H
  O15      1.0000 0.87360  0.52940  0.70050  Biso   1.000  O
  O16      1.0000 0.12640  0.47060  0.29950  Biso   1.000  O
  H105     1.0000 0.87240  0.48300  0.67730  Biso   1.000  H
  H106     1.0000 0.12760  0.51700  0.32270  Biso   1.000  H
  H107     1.0000 0.81290  0.57210  0.70990  Biso   1.000  H
  H108     1.0000 0.18710  0.42790  0.29010  Biso   1.000  H
  O17      1.0000 0.56320  0.65320  0.18850  Biso   1.000  O
  O18      1.0000 0.43680  0.34680  0.81150  Biso   1.000  O
  H109     1.0000 0.50610  0.69530  0.20840  Biso   1.000  H
  H110     1.0000 0.49390  0.30470  0.79160  Biso   1.000  H
  H111     1.0000 0.55960  0.63500  0.14500  Biso   1.000  H
  H112     1.0000 0.44040  0.36500  0.85500  Biso   1.000  H
  O19      1.0000 0.80150  0.49340  0.02030  Biso   1.000  O
  O20      1.0000 0.19850  0.50660  0.97970  Biso   1.000  O
  H113     1.0000 0.79850  0.45920  0.98690  Biso   1.000  H
  H114     1.0000 0.20150  0.54080  0.01310  Biso   1.000  H
  H115     1.0000 0.73650  0.52800  0.03020  Biso   1.000  H
  H116     1.0000 0.26350  0.47200  0.96980  Biso   1.000  H
  O21      1.0000 0.37680  0.79160  0.25220  Biso   1.000  O
  O22      1.0000 0.62320  0.20840  0.74780  Biso   1.000  O
  H117     1.0000 0.38250  0.75910  0.30540  Biso   1.000  H
  H118     1.0000 0.61750  0.24090  0.69460  Biso   1.000  H
  H119     1.0000 0.31690  0.79350  0.24430  Biso   1.000  H
  H120     1.0000 0.68310  0.20650  0.75570  Biso   1.000  H
  O23      1.0000 0.42230  0.07880  0.53720  Biso   1.000  O
  O24      1.0000 0.57770  0.92120  0.46280  Biso   1.000  O
  H121     1.0000 0.37410  0.12050  0.51150  Biso   1.000  H
  H122     1.0000 0.62590  0.87950  0.48850  Biso   1.000  H
  H123     1.0000 0.46100  0.12090  0.53200  Biso   1.000  H
  H124     1.0000 0.53900  0.87910  0.46800  Biso   1.000  H
  O25      1.0000 0.26470  0.21530  0.45390  Biso   1.000  O
  O26      1.0000 0.73530  0.78470  0.54610  Biso   1.000  O
  H125     1.0000 0.28340  0.24940  0.39880  Biso   1.000  H
  H126     1.0000 0.71660  0.75060  0.60120  Biso   1.000  H
  H127     1.0000 0.20140  0.25340  0.46430  Biso   1.000  H
  H128     1.0000 0.79860  0.74660  0.53570  Biso   1.000  H
  O27      1.0000 0.55140  0.59340  0.04350  Biso   1.000  O
  O28      1.0000 0.44860  0.40660  0.95650  Biso   1.000  O
  H129     1.0000 0.56660  0.58420  0.99150  Biso   1.000  H
  H130     1.0000 0.43340  0.41580  0.00850  Biso   1.000  H
  H131     1.0000 0.50890  0.55010  0.06870  Biso   1.000  H
  H132     1.0000 0.49110  0.44990  0.93130  Biso   1.000  H
  O29      1.0000 0.05840  0.33950  0.48750  Biso   1.000  O
  O30      1.0000 0.94160  0.66050  0.51250  Biso   1.000  O
  H133     1.0000 0.02830  0.36430  0.44450  Biso   1.000  H
  H134     1.0000 0.97170  0.63570  0.55550  Biso   1.000  H
  H135     1.0000 0.07680  0.40120  0.48910  Biso   1.000  H
  H136     1.0000 0.92320  0.59880  0.51090  Biso   1.000  H
  O31      1.0000 0.78010  0.40190  0.88930  Biso   1.000  O
  O32      1.0000 0.21990  0.59810  0.11070  Biso   1.000  O
  H137     1.0000 0.72470  0.45090  0.88260  Biso   1.000  H
  H138     1.0000 0.27530  0.54910  0.11740  Biso   1.000  H
  H139     1.0000 0.81610  0.44190  0.84370  Biso   1.000  H
  H140     1.0000 0.18390  0.55810  0.15630  Biso   1.000  H
  O33      1.0000 0.86800  0.37550  0.62260  Biso   1.000  O
  O34      1.0000 0.13200  0.62450  0.37740  Biso   1.000  O
  H141     1.0000 0.85330  0.32340  0.66820  Biso   1.000  H
  H142     1.0000 0.14670  0.67660  0.33180  Biso   1.000  H
  H143     1.0000 0.92570  0.36480  0.58150  Biso   1.000  H
  H144     1.0000 0.07430  0.63520  0.41850  Biso   1.000  H
