data_image0
_cell_length_a       10.715
_cell_length_b       8.4923
_cell_length_c       15.983
_cell_angle_alpha    90
_cell_angle_beta     101.329
_cell_angle_gamma    90

_symmetry_space_group_name_H-M    "P 1"
_symmetry_int_tables_number       1

loop_
  _symmetry_equiv_pos_as_xyz
  'x, y, z'

loop_
  _atom_site_label
  _atom_site_occupancy
  _atom_site_fract_x
  _atom_site_fract_y
  _atom_site_fract_z
  _atom_site_thermal_displace_type
  _atom_site_B_iso_or_equiv
  _atom_site_type_symbol
  Cu1      1.0000 0.50000  0.00000  0.50000  Biso   1.000  Cu
  Cu2      1.0000 0.50000  0.50000  0.00000  Biso   1.000  Cu
  S1       1.0000 0.30495  0.02979  0.74745  Biso   1.000  S
  S2       1.0000 0.69505  0.52979  0.75255  Biso   1.000  S
  S3       1.0000 0.69505  0.97021  0.25255  Biso   1.000  S
  S4       1.0000 0.30495  0.47021  0.24745  Biso   1.000  S
  N1       1.0000 0.62250  0.42640  0.41930  Biso   1.000  N
  N2       1.0000 0.37750  0.92640  0.08070  Biso   1.000  N
  N3       1.0000 0.37750  0.57360  0.58070  Biso   1.000  N
  N4       1.0000 0.62250  0.07360  0.91930  Biso   1.000  N
  N5       1.0000 0.64690  0.45540  0.50480  Biso   1.000  N
  N6       1.0000 0.35310  0.95540  0.99520  Biso   1.000  N
  N7       1.0000 0.35310  0.54460  0.49520  Biso   1.000  N
  N8       1.0000 0.64690  0.04460  0.00480  Biso   1.000  N
  N9       1.0000 0.55390  0.22050  0.47615  Biso   1.000  N
  N10      1.0000 0.44610  0.72050  0.02385  Biso   1.000  N
  N11      1.0000 0.44610  0.77950  0.52385  Biso   1.000  N
  N12      1.0000 0.55390  0.27950  0.97615  Biso   1.000  N
  N13      1.0000 0.13510  0.13450  0.37632  Biso   1.000  N
  N14      1.0000 0.86490  0.63450  0.12368  Biso   1.000  N
  N15      1.0000 0.86490  0.86550  0.62368  Biso   1.000  N
  N16      1.0000 0.13510  0.36550  0.87632  Biso   1.000  N
  N17      1.0000 0.09860  0.05470  0.44100  Biso   1.000  N
  N18      1.0000 0.90140  0.55470  0.05900  Biso   1.000  N
  N19      1.0000 0.90140  0.94530  0.55900  Biso   1.000  N
  N20      1.0000 0.09860  0.44530  0.94100  Biso   1.000  N
  N21      1.0000 0.31150  0.05230  0.45600  Biso   1.000  N
  N22      1.0000 0.68850  0.55230  0.04400  Biso   1.000  N
  N23      1.0000 0.68850  0.94770  0.54400  Biso   1.000  N
  N24      1.0000 0.31150  0.44770  0.95600  Biso   1.000  N
  N25      1.0000 0.48190  0.07500  0.64200  Biso   1.000  N
  N26      1.0000 0.51810  0.57500  0.85800  Biso   1.000  N
  N27      1.0000 0.51810  0.92500  0.35800  Biso   1.000  N
  N28      1.0000 0.48190  0.42500  0.14200  Biso   1.000  N
  C1       1.0000 0.80850  0.51690  0.36500  Biso   1.000  C
  C2       1.0000 0.19150  0.01690  0.13500  Biso   1.000  C
  C3       1.0000 0.19150  0.48310  0.63500  Biso   1.000  C
  C4       1.0000 0.80850  0.98310  0.86500  Biso   1.000  C
  C5       1.0000 0.85750  0.38070  0.33520  Biso   1.000  C
  C6       1.0000 0.14250  0.88070  0.16480  Biso   1.000  C
  C7       1.0000 0.14250  0.61930  0.66480  Biso   1.000  C
  C8       1.0000 0.85750  0.11930  0.83520  Biso   1.000  C
  H1       1.0000 0.80110  0.30110  0.30850  Biso   1.000  H
  H2       1.0000 0.19890  0.80110  0.19150  Biso   1.000  H
  H3       1.0000 0.19890  0.69890  0.69150  Biso   1.000  H
  H4       1.0000 0.80110  0.19890  0.80850  Biso   1.000  H
  C9       1.0000 0.98770  0.36010  0.34400  Biso   1.000  C
  C10      1.0000 0.01230  0.86010  0.15600  Biso   1.000  C
  C11      1.0000 0.01230  0.63990  0.65600  Biso   1.000  C
  C12      1.0000 0.98770  0.13990  0.84400  Biso   1.000  C
  C13      1.0000 0.06910  0.47770  0.38210  Biso   1.000  C
  C14      1.0000 0.93090  0.97770  0.11790  Biso   1.000  C
  C15      1.0000 0.93090  0.52230  0.61790  Biso   1.000  C
  C16      1.0000 0.06910  0.02230  0.88210  Biso   1.000  C
  H5       1.0000 0.15850  0.46490  0.38820  Biso   1.000  H
  H6       1.0000 0.84150  0.96490  0.11180  Biso   1.000  H
  H7       1.0000 0.84150  0.53510  0.61180  Biso   1.000  H
  H8       1.0000 0.15850  0.03510  0.88820  Biso   1.000  H
  C17      1.0000 0.02100  0.61300  0.41110  Biso   1.000  C
  C18      1.0000 0.97900  0.11300  0.08890  Biso   1.000  C
  C19      1.0000 0.97900  0.38700  0.58890  Biso   1.000  C
  C20      1.0000 0.02100  0.88700  0.91110  Biso   1.000  C
  H9       1.0000 0.07740  0.69310  0.43710  Biso   1.000  H
  H10      1.0000 0.92260  0.19310  0.06290  Biso   1.000  H
  H11      1.0000 0.92260  0.30690  0.56290  Biso   1.000  H
  H12      1.0000 0.07740  0.80690  0.93710  Biso   1.000  H
  C21      1.0000 0.89120  0.63300  0.40270  Biso   1.000  C
  C22      1.0000 0.10880  0.13300  0.09730  Biso   1.000  C
  C23      1.0000 0.10880  0.36700  0.59730  Biso   1.000  C
  C24      1.0000 0.89120  0.86700  0.90270  Biso   1.000  C
  H13      1.0000 0.85870  0.72670  0.42280  Biso   1.000  H
  H14      1.0000 0.14130  0.22670  0.07720  Biso   1.000  H
  H15      1.0000 0.14130  0.27330  0.57720  Biso   1.000  H
  H16      1.0000 0.85870  0.77330  0.92280  Biso   1.000  H
  C25      1.0000 0.66680  0.53420  0.35950  Biso   1.000  C
  C26      1.0000 0.33320  0.03420  0.14050  Biso   1.000  C
  C27      1.0000 0.33320  0.46580  0.64050  Biso   1.000  C
  C28      1.0000 0.66680  0.96580  0.85950  Biso   1.000  C
  H17      1.0000 0.64700  0.64400  0.37300  Biso   1.000  H
  H18      1.0000 0.35300  0.14400  0.12700  Biso   1.000  H
  H19      1.0000 0.35300  0.35600  0.62700  Biso   1.000  H
  H20      1.0000 0.64700  0.85600  0.87300  Biso   1.000  H
  H21      1.0000 0.62160  0.51090  0.30060  Biso   1.000  H
  H22      1.0000 0.37840  0.01090  0.19940  Biso   1.000  H
  H23      1.0000 0.37840  0.48910  0.69940  Biso   1.000  H
  H24      1.0000 0.62160  0.98910  0.80060  Biso   1.000  H
  C29      1.0000 0.04010  0.21200  0.31090  Biso   1.000  C
  C30      1.0000 0.95990  0.71200  0.18910  Biso   1.000  C
  C31      1.0000 0.95990  0.78800  0.68910  Biso   1.000  C
  C32      1.0000 0.04010  0.28800  0.81090  Biso   1.000  C
  H25      1.0000 0.96920  0.13790  0.29060  Biso   1.000  H
  H26      1.0000 0.03080  0.63790  0.20940  Biso   1.000  H
  H27      1.0000 0.03080  0.86210  0.70940  Biso   1.000  H
  H28      1.0000 0.96920  0.36210  0.79060  Biso   1.000  H
  H29      1.0000 0.07940  0.23930  0.26160  Biso   1.000  H
  H30      1.0000 0.92060  0.73930  0.23840  Biso   1.000  H
  H31      1.0000 0.92060  0.76070  0.73840  Biso   1.000  H
  H32      1.0000 0.07940  0.26070  0.76160  Biso   1.000  H
  C33      1.0000 0.60370  0.32860  0.53630  Biso   1.000  C
  C34      1.0000 0.39630  0.82860  0.96370  Biso   1.000  C
  C35      1.0000 0.39630  0.67140  0.46370  Biso   1.000  C
  C36      1.0000 0.60370  0.17140  0.03630  Biso   1.000  C
  H33      1.0000 0.60680  0.31370  0.59550  Biso   1.000  H
  H34      1.0000 0.39320  0.81370  0.90450  Biso   1.000  H
  H35      1.0000 0.39320  0.68630  0.40450  Biso   1.000  H
  H36      1.0000 0.60680  0.18630  0.09550  Biso   1.000  H
  C37      1.0000 0.56770  0.28680  0.40310  Biso   1.000  C
  C38      1.0000 0.43230  0.78680  0.09690  Biso   1.000  C
  C39      1.0000 0.43230  0.71320  0.59690  Biso   1.000  C
  C40      1.0000 0.56770  0.21320  0.90310  Biso   1.000  C
  H37      1.0000 0.54230  0.24130  0.34800  Biso   1.000  H
  H38      1.0000 0.45770  0.74130  0.15200  Biso   1.000  H
  H39      1.0000 0.45770  0.75870  0.65200  Biso   1.000  H
  H40      1.0000 0.54230  0.25870  0.84800  Biso   1.000  H
  C41      1.0000 0.20800  0.00710  0.48730  Biso   1.000  C
  C42      1.0000 0.79200  0.50710  0.01270  Biso   1.000  C
  C43      1.0000 0.79200  0.99290  0.51270  Biso   1.000  C
  C44      1.0000 0.20800  0.49290  0.98730  Biso   1.000  C
  H41      1.0000 0.21380  0.94660  0.53800  Biso   1.000  H
  H42      1.0000 0.78620  0.44660  0.96200  Biso   1.000  H
  H43      1.0000 0.78620  0.05340  0.46200  Biso   1.000  H
  H44      1.0000 0.21380  0.55340  0.03800  Biso   1.000  H
  C45      1.0000 0.26050  0.13230  0.38610  Biso   1.000  C
  C46      1.0000 0.73950  0.63230  0.11390  Biso   1.000  C
  C47      1.0000 0.73950  0.86770  0.61390  Biso   1.000  C
  C48      1.0000 0.26050  0.36770  0.88610  Biso   1.000  C
  H45      1.0000 0.30750  0.18100  0.34850  Biso   1.000  H
  H46      1.0000 0.69250  0.68100  0.15150  Biso   1.000  H
  H47      1.0000 0.69250  0.81900  0.65150  Biso   1.000  H
  H48      1.0000 0.30750  0.31900  0.84850  Biso   1.000  H
  C49      1.0000 0.40780  0.05830  0.68590  Biso   1.000  C
  C50      1.0000 0.59220  0.55830  0.81410  Biso   1.000  C
  C51      1.0000 0.59220  0.94170  0.31410  Biso   1.000  C
  C52      1.0000 0.40780  0.44170  0.18590  Biso   1.000  C
