data_image0
_cell_length_a       14.104
_cell_length_b       17.003
_cell_length_c       8.4344
_cell_angle_alpha    90
_cell_angle_beta     122.266
_cell_angle_gamma    90

_symmetry_space_group_name_H-M    "P 1"
_symmetry_int_tables_number       1

loop_
  _symmetry_equiv_pos_as_xyz
  'x, y, z'

loop_
  _atom_site_label
  _atom_site_occupancy
  _atom_site_fract_x
  _atom_site_fract_y
  _atom_site_fract_z
  _atom_site_thermal_displace_type
  _atom_site_B_iso_or_equiv
  _atom_site_type_symbol
  Cu1      1.0000 0.25000  0.75000  0.00000  Biso   1.000  Cu
  Cu2      1.0000 0.75000  0.75000  0.00000  Biso   1.000  Cu
  Cu3      1.0000 0.75000  0.25000  0.00000  Biso   1.000  Cu
  Cu4      1.0000 0.25000  0.25000  0.00000  Biso   1.000  Cu
  O1       1.0000 0.29510  0.85123  0.94110  Biso   1.000  O
  O2       1.0000 0.70490  0.85123  0.05890  Biso   1.000  O
  O3       1.0000 0.79510  0.35123  0.94110  Biso   1.000  O
  O4       1.0000 0.20490  0.35123  0.05890  Biso   1.000  O
  O5       1.0000 0.70490  0.14877  0.05890  Biso   1.000  O
  O6       1.0000 0.29510  0.14877  0.94110  Biso   1.000  O
  O7       1.0000 0.20490  0.64877  0.05890  Biso   1.000  O
  O8       1.0000 0.79510  0.64877  0.94110  Biso   1.000  O
  O9       1.0000 0.46340  0.80113  0.13770  Biso   1.000  O
  O10      1.0000 0.53660  0.80113  0.86230  Biso   1.000  O
  O11      1.0000 0.96340  0.30113  0.13770  Biso   1.000  O
  O12      1.0000 0.03660  0.30113  0.86230  Biso   1.000  O
  O13      1.0000 0.53660  0.19887  0.86230  Biso   1.000  O
  O14      1.0000 0.46340  0.19887  0.13770  Biso   1.000  O
  O15      1.0000 0.03660  0.69887  0.86230  Biso   1.000  O
  O16      1.0000 0.96340  0.69887  0.13770  Biso   1.000  O
  N1       1.0000 0.30250  0.66320  0.60400  Biso   1.000  N
  N2       1.0000 0.69750  0.66320  0.39600  Biso   1.000  N
  N3       1.0000 0.80250  0.16320  0.60400  Biso   1.000  N
  N4       1.0000 0.19750  0.16320  0.39600  Biso   1.000  N
  N5       1.0000 0.69750  0.33680  0.39600  Biso   1.000  N
  N6       1.0000 0.30250  0.33680  0.60400  Biso   1.000  N
  N7       1.0000 0.19750  0.83680  0.39600  Biso   1.000  N
  N8       1.0000 0.80250  0.83680  0.60400  Biso   1.000  N
  N9       1.0000 0.20670  0.62240  0.54460  Biso   1.000  N
  N10      1.0000 0.79330  0.62240  0.45540  Biso   1.000  N
  N11      1.0000 0.70670  0.12240  0.54460  Biso   1.000  N
  N12      1.0000 0.29330  0.12240  0.45540  Biso   1.000  N
  N13      1.0000 0.79330  0.37760  0.45540  Biso   1.000  N
  N14      1.0000 0.20670  0.37760  0.54460  Biso   1.000  N
  N15      1.0000 0.29330  0.87760  0.45540  Biso   1.000  N
  N16      1.0000 0.70670  0.87760  0.54460  Biso   1.000  N
  N17      1.0000 0.24710  0.69996  0.78690  Biso   1.000  N
  N18      1.0000 0.75290  0.69996  0.21310  Biso   1.000  N
  N19      1.0000 0.74710  0.19996  0.78690  Biso   1.000  N
  N20      1.0000 0.25290  0.19996  0.21310  Biso   1.000  N
  N21      1.0000 0.75290  0.30004  0.21310  Biso   1.000  N
  N22      1.0000 0.24710  0.30004  0.78690  Biso   1.000  N
  N23      1.0000 0.25290  0.80004  0.21310  Biso   1.000  N
  N24      1.0000 0.74710  0.80004  0.78690  Biso   1.000  N
  C1       1.0000 0.43740  0.57060  0.62270  Biso   1.000  C
  C2       1.0000 0.56260  0.57060  0.37730  Biso   1.000  C
  C3       1.0000 0.93740  0.07060  0.62270  Biso   1.000  C
  C4       1.0000 0.06260  0.07060  0.37730  Biso   1.000  C
  C5       1.0000 0.56260  0.42940  0.37730  Biso   1.000  C
  C6       1.0000 0.43740  0.42940  0.62270  Biso   1.000  C
  C7       1.0000 0.06260  0.92940  0.37730  Biso   1.000  C
  C8       1.0000 0.93740  0.92940  0.62270  Biso   1.000  C
  C9       1.0000 0.53790  0.57010  0.79540  Biso   1.000  C
  C10      1.0000 0.46210  0.57010  0.20460  Biso   1.000  C
  C11      1.0000 0.03790  0.07010  0.79540  Biso   1.000  C
  C12      1.0000 0.96210  0.07010  0.20460  Biso   1.000  C
  C13      1.0000 0.46210  0.42990  0.20460  Biso   1.000  C
  C14      1.0000 0.53790  0.42990  0.79540  Biso   1.000  C
  C15      1.0000 0.96210  0.92990  0.20460  Biso   1.000  C
  C16      1.0000 0.03790  0.92990  0.79540  Biso   1.000  C
  H1       1.0000 0.57240  0.61850  0.85470  Biso   1.000  H
  H2       1.0000 0.42760  0.61850  0.14530  Biso   1.000  H
  H3       1.0000 0.07240  0.11850  0.85470  Biso   1.000  H
  H4       1.0000 0.92760  0.11850  0.14530  Biso   1.000  H
  H5       1.0000 0.42760  0.38150  0.14530  Biso   1.000  H
  H6       1.0000 0.57240  0.38150  0.85470  Biso   1.000  H
  H7       1.0000 0.92760  0.88150  0.14530  Biso   1.000  H
  H8       1.0000 0.07240  0.88150  0.85470  Biso   1.000  H
  C17      1.0000 0.58810  0.50000  0.88150  Biso   1.000  C
  C18      1.0000 0.41190  0.50000  0.11850  Biso   1.000  C
  C19      1.0000 0.08810  0.00000  0.88150  Biso   1.000  C
  C20      1.0000 0.91190  0.00000  0.11850  Biso   1.000  C
  H9       1.0000 0.65690  0.50000  0.99960  Biso   1.000  H
  H10      1.0000 0.34310  0.50000  0.00040  Biso   1.000  H
  H11      1.0000 0.15690  0.00000  0.99960  Biso   1.000  H
  H12      1.0000 0.84310  0.00000  0.00040  Biso   1.000  H
  C21      1.0000 0.38830  0.50000  0.53660  Biso   1.000  C
  C22      1.0000 0.61170  0.50000  0.46340  Biso   1.000  C
  C23      1.0000 0.88830  0.00000  0.53660  Biso   1.000  C
  C24      1.0000 0.11170  0.00000  0.46340  Biso   1.000  C
  H13      1.0000 0.32030  0.50000  0.41730  Biso   1.000  H
  H14      1.0000 0.67970  0.50000  0.58270  Biso   1.000  H
  H15      1.0000 0.82030  0.00000  0.41730  Biso   1.000  H
  H16      1.0000 0.17970  0.00000  0.58270  Biso   1.000  H
  C25      1.0000 0.37660  0.64590  0.53370  Biso   1.000  C
  C26      1.0000 0.62340  0.64590  0.46630  Biso   1.000  C
  C27      1.0000 0.87660  0.14590  0.53370  Biso   1.000  C
  C28      1.0000 0.12340  0.14590  0.46630  Biso   1.000  C
  C29      1.0000 0.62340  0.35410  0.46630  Biso   1.000  C
  C30      1.0000 0.37660  0.35410  0.53370  Biso   1.000  C
  C31      1.0000 0.12340  0.85410  0.46630  Biso   1.000  C
  C32      1.0000 0.87660  0.85410  0.53370  Biso   1.000  C
  H17      1.0000 0.43100  0.68930  0.56690  Biso   1.000  H
  H18      1.0000 0.56900  0.68930  0.43310  Biso   1.000  H
  H19      1.0000 0.93100  0.18930  0.56690  Biso   1.000  H
  H20      1.0000 0.06900  0.18930  0.43310  Biso   1.000  H
  H21      1.0000 0.56900  0.31070  0.43310  Biso   1.000  H
  H22      1.0000 0.43100  0.31070  0.56690  Biso   1.000  H
  H23      1.0000 0.06900  0.81070  0.43310  Biso   1.000  H
  H24      1.0000 0.93100  0.81070  0.56690  Biso   1.000  H
  H25      1.0000 0.33160  0.64040  0.39550  Biso   1.000  H
  H26      1.0000 0.66840  0.64040  0.60450  Biso   1.000  H
  H27      1.0000 0.83160  0.14040  0.39550  Biso   1.000  H
  H28      1.0000 0.16840  0.14040  0.60450  Biso   1.000  H
  H29      1.0000 0.66840  0.35960  0.60450  Biso   1.000  H
  H30      1.0000 0.33160  0.35960  0.39550  Biso   1.000  H
  H31      1.0000 0.16840  0.85960  0.60450  Biso   1.000  H
  H32      1.0000 0.83160  0.85960  0.39550  Biso   1.000  H
  C33      1.0000 0.17590  0.64600  0.65940  Biso   1.000  C
  C34      1.0000 0.82410  0.64600  0.34060  Biso   1.000  C
  C35      1.0000 0.67590  0.14600  0.65940  Biso   1.000  C
  C36      1.0000 0.32410  0.14600  0.34060  Biso   1.000  C
  C37      1.0000 0.82410  0.35400  0.34060  Biso   1.000  C
  C38      1.0000 0.17590  0.35400  0.65940  Biso   1.000  C
  C39      1.0000 0.32410  0.85400  0.34060  Biso   1.000  C
  C40      1.0000 0.67590  0.85400  0.65940  Biso   1.000  C
  C41      1.0000 0.32610  0.70940  0.74740  Biso   1.000  C
  C42      1.0000 0.67390  0.70940  0.25260  Biso   1.000  C
  C43      1.0000 0.82610  0.20940  0.74740  Biso   1.000  C
  C44      1.0000 0.17390  0.20940  0.25260  Biso   1.000  C
  C45      1.0000 0.67390  0.29060  0.25260  Biso   1.000  C
  C46      1.0000 0.32610  0.29060  0.74740  Biso   1.000  C
  C47      1.0000 0.17390  0.79060  0.25260  Biso   1.000  C
  C48      1.0000 0.82610  0.79060  0.74740  Biso   1.000  C
  C49      1.0000 0.45210  0.92820  0.00540  Biso   1.000  C
  C50      1.0000 0.54790  0.92820  0.99460  Biso   1.000  C
  C51      1.0000 0.95210  0.42820  0.00540  Biso   1.000  C
  C52      1.0000 0.04790  0.42820  0.99460  Biso   1.000  C
  C53      1.0000 0.54790  0.07180  0.99460  Biso   1.000  C
  C54      1.0000 0.45210  0.07180  0.00540  Biso   1.000  C
  C55      1.0000 0.04790  0.57180  0.99460  Biso   1.000  C
  C56      1.0000 0.95210  0.57180  0.00540  Biso   1.000  C
  C57      1.0000 0.40580  0.00000  0.00920  Biso   1.000  C
  C58      1.0000 0.59420  0.00000  0.99080  Biso   1.000  C
  C59      1.0000 0.90580  0.50000  0.00920  Biso   1.000  C
  C60      1.0000 0.09420  0.50000  0.99080  Biso   1.000  C
  H33      1.0000 0.34020  0.00000  0.01440  Biso   1.000  H
  H34      1.0000 0.65980  0.00000  0.98560  Biso   1.000  H
  H35      1.0000 0.84020  0.50000  0.01440  Biso   1.000  H
  H36      1.0000 0.15980  0.50000  0.98560  Biso   1.000  H
  C61      1.0000 0.40200  0.85380  0.03040  Biso   1.000  C
  C62      1.0000 0.59800  0.85380  0.96960  Biso   1.000  C
  C63      1.0000 0.90200  0.35380  0.03040  Biso   1.000  C
  C64      1.0000 0.09800  0.35380  0.96960  Biso   1.000  C
  C65      1.0000 0.59800  0.14620  0.96960  Biso   1.000  C
  C66      1.0000 0.40200  0.14620  0.03040  Biso   1.000  C
  C67      1.0000 0.09800  0.64620  0.96960  Biso   1.000  C
  C68      1.0000 0.90200  0.64620  0.03040  Biso   1.000  C
