data_image0
_cell_length_a       7.4137
_cell_length_b       7.489
_cell_length_c       7.5391
_cell_angle_alpha    118.928
_cell_angle_beta     109.295
_cell_angle_gamma    92.47

_symmetry_space_group_name_H-M    "P 1"
_symmetry_int_tables_number       1

loop_
  _symmetry_equiv_pos_as_xyz
  'x, y, z'

loop_
  _atom_site_label
  _atom_site_occupancy
  _atom_site_fract_x
  _atom_site_fract_y
  _atom_site_fract_z
  _atom_site_thermal_displace_type
  _atom_site_B_iso_or_equiv
  _atom_site_type_symbol
  Cu1      1.0000 0.80990  0.04593  0.26970  Biso   1.000  Cu
  Cu2      1.0000 0.19010  0.95407  0.73030  Biso   1.000  Cu
  O1       1.0000 0.80570  0.30080  0.52950  Biso   1.000  O
  O2       1.0000 0.19430  0.69920  0.47050  Biso   1.000  O
  O3       1.0000 0.80370  0.78750  0.01150  Biso   1.000  O
  O4       1.0000 0.19630  0.21250  0.98850  Biso   1.000  O
  N1       1.0000 0.14440  0.63040  0.84730  Biso   1.000  N
  N2       1.0000 0.85560  0.36960  0.15270  Biso   1.000  N
  N3       1.0000 0.55900  0.68630  0.44680  Biso   1.000  N
  N4       1.0000 0.44100  0.31370  0.55320  Biso   1.000  N
  N5       1.0000 0.24270  0.58280  0.99720  Biso   1.000  N
  N6       1.0000 0.75730  0.41720  0.00280  Biso   1.000  N
  N7       1.0000 0.85600  0.85820  0.56150  Biso   1.000  N
  N8       1.0000 0.14400  0.14180  0.43850  Biso   1.000  N
  N9       1.0000 0.40630  0.89130  0.08390  Biso   1.000  N
  N10      1.0000 0.59370  0.10870  0.91610  Biso   1.000  N
  N11      1.0000 0.24130  0.81260  0.90180  Biso   1.000  N
  N12      1.0000 0.75870  0.18740  0.09820  Biso   1.000  N
  N13      1.0000 0.74660  0.74860  0.59680  Biso   1.000  N
  N14      1.0000 0.25340  0.25140  0.40320  Biso   1.000  N
  N15      1.0000 0.74910  0.87480  0.39380  Biso   1.000  N
  N16      1.0000 0.25090  0.12520  0.60620  Biso   1.000  N
  C1       1.0000 0.40230  0.74680  0.13970  Biso   1.000  C
  C2       1.0000 0.59770  0.25320  0.86030  Biso   1.000  C
  C3       1.0000 0.56630  0.76610  0.32570  Biso   1.000  C
  C4       1.0000 0.43370  0.23390  0.67430  Biso   1.000  C
  H1       1.0000 0.89900  0.42100  0.60300  Biso   1.000  H
  H2       1.0000 0.10100  0.57900  0.39700  Biso   1.000  H
  H3       1.0000 0.69100  0.33600  0.49400  Biso   1.000  H
  H4       1.0000 0.30900  0.66400  0.50600  Biso   1.000  H
  H5       1.0000 0.79200  0.66700  0.00900  Biso   1.000  H
  H6       1.0000 0.20800  0.33300  0.99100  Biso   1.000  H
  H7       1.0000 0.78000  0.78900  0.88800  Biso   1.000  H
  H8       1.0000 0.22000  0.21100  0.11200  Biso   1.000  H
