data_image0
_cell_length_a       15.152
_cell_length_b       9.453
_cell_length_c       19.96
_cell_angle_alpha    90
_cell_angle_beta     90
_cell_angle_gamma    90

_symmetry_space_group_name_H-M    "P 1"
_symmetry_int_tables_number       1

loop_
  _symmetry_equiv_pos_as_xyz
  'x, y, z'

loop_
  _atom_site_label
  _atom_site_occupancy
  _atom_site_fract_x
  _atom_site_fract_y
  _atom_site_fract_z
  _atom_site_thermal_displace_type
  _atom_site_B_iso_or_equiv
  _atom_site_type_symbol
  Cu1      1.0000 0.03067  0.07788  0.17399  Biso   1.000  Cu
  Cu2      1.0000 0.46933  0.92212  0.67399  Biso   1.000  Cu
  Cu3      1.0000 0.96933  0.57788  0.32601  Biso   1.000  Cu
  Cu4      1.0000 0.53067  0.42212  0.82601  Biso   1.000  Cu
  Cu5      1.0000 0.96933  0.92212  0.82601  Biso   1.000  Cu
  Cu6      1.0000 0.53067  0.07788  0.32601  Biso   1.000  Cu
  Cu7      1.0000 0.03067  0.42212  0.67399  Biso   1.000  Cu
  Cu8      1.0000 0.46933  0.57788  0.17399  Biso   1.000  Cu
  P1       1.0000 0.92363  0.28985  0.25214  Biso   1.000  P
  P2       1.0000 0.57637  0.71015  0.75214  Biso   1.000  P
  P3       1.0000 0.07637  0.78985  0.24786  Biso   1.000  P
  P4       1.0000 0.42363  0.21015  0.74786  Biso   1.000  P
  P5       1.0000 0.07637  0.71015  0.74786  Biso   1.000  P
  P6       1.0000 0.42363  0.28985  0.24786  Biso   1.000  P
  P7       1.0000 0.92363  0.21015  0.75214  Biso   1.000  P
  P8       1.0000 0.57637  0.78985  0.25214  Biso   1.000  P
  C1       1.0000 0.07555  0.16440  0.04491  Biso   1.000  C
  C2       1.0000 0.42445  0.83560  0.54491  Biso   1.000  C
  C3       1.0000 0.92445  0.66440  0.45509  Biso   1.000  C
  C4       1.0000 0.57555  0.33560  0.95509  Biso   1.000  C
  C5       1.0000 0.92445  0.83560  0.95509  Biso   1.000  C
  C6       1.0000 0.57555  0.16440  0.45509  Biso   1.000  C
  C7       1.0000 0.07555  0.33560  0.54491  Biso   1.000  C
  C8       1.0000 0.42445  0.66440  0.04491  Biso   1.000  C
  C9       1.0000 0.12347  0.94860  0.04492  Biso   1.000  C
  C10      1.0000 0.37653  0.05140  0.54492  Biso   1.000  C
  C11      1.0000 0.87653  0.44860  0.45508  Biso   1.000  C
  C12      1.0000 0.62347  0.55140  0.95508  Biso   1.000  C
  C13      1.0000 0.87653  0.05140  0.95508  Biso   1.000  C
  C14      1.0000 0.62347  0.94860  0.45508  Biso   1.000  C
  C15      1.0000 0.12347  0.55140  0.54492  Biso   1.000  C
  C16      1.0000 0.37653  0.44860  0.04492  Biso   1.000  C
  C17      1.0000 0.15350  0.81440  0.06049  Biso   1.000  C
  C18      1.0000 0.34650  0.18560  0.56049  Biso   1.000  C
  C19      1.0000 0.84650  0.31440  0.43951  Biso   1.000  C
  C20      1.0000 0.65350  0.68560  0.93951  Biso   1.000  C
  C21      1.0000 0.84650  0.18560  0.93951  Biso   1.000  C
  C22      1.0000 0.65350  0.81440  0.43951  Biso   1.000  C
  C23      1.0000 0.15350  0.68560  0.56049  Biso   1.000  C
  C24      1.0000 0.34650  0.31440  0.06049  Biso   1.000  C
  H1       1.0000 0.14730  0.77700  0.10330  Biso   1.000  H
  H2       1.0000 0.35270  0.22300  0.60330  Biso   1.000  H
  H3       1.0000 0.85270  0.27700  0.39670  Biso   1.000  H
  H4       1.0000 0.64730  0.72300  0.89670  Biso   1.000  H
  H5       1.0000 0.85270  0.22300  0.89670  Biso   1.000  H
  H6       1.0000 0.64730  0.77700  0.39670  Biso   1.000  H
  H7       1.0000 0.14730  0.72300  0.60330  Biso   1.000  H
  H8       1.0000 0.35270  0.27700  0.10330  Biso   1.000  H
  C25      1.0000 0.19328  0.73830  0.00939  Biso   1.000  C
  C26      1.0000 0.30672  0.26170  0.50939  Biso   1.000  C
  C27      1.0000 0.80672  0.23830  0.49061  Biso   1.000  C
  C28      1.0000 0.69328  0.76170  0.99061  Biso   1.000  C
  C29      1.0000 0.80672  0.26170  0.99061  Biso   1.000  C
  C30      1.0000 0.69328  0.73830  0.49061  Biso   1.000  C
  C31      1.0000 0.19328  0.76170  0.50939  Biso   1.000  C
  C32      1.0000 0.30672  0.23830  0.00939  Biso   1.000  C
  H9       1.0000 0.21430  0.64780  0.01840  Biso   1.000  H
  H10      1.0000 0.28570  0.35220  0.51840  Biso   1.000  H
  H11      1.0000 0.78570  0.14780  0.48160  Biso   1.000  H
  H12      1.0000 0.71430  0.85220  0.98160  Biso   1.000  H
  H13      1.0000 0.78570  0.35220  0.98160  Biso   1.000  H
  H14      1.0000 0.71430  0.64780  0.48160  Biso   1.000  H
  H15      1.0000 0.21430  0.85220  0.51840  Biso   1.000  H
  H16      1.0000 0.28570  0.14780  0.01840  Biso   1.000  H
  C33      1.0000 0.20279  0.79270  0.94517  Biso   1.000  C
  C34      1.0000 0.29721  0.20730  0.44517  Biso   1.000  C
  C35      1.0000 0.79721  0.29270  0.55483  Biso   1.000  C
  C36      1.0000 0.70279  0.70730  0.05483  Biso   1.000  C
  C37      1.0000 0.79721  0.20730  0.05483  Biso   1.000  C
  C38      1.0000 0.70279  0.79270  0.55483  Biso   1.000  C
  C39      1.0000 0.20279  0.70730  0.44517  Biso   1.000  C
  C40      1.0000 0.29721  0.29270  0.94517  Biso   1.000  C
  H17      1.0000 0.22970  0.73760  0.91240  Biso   1.000  H
  H18      1.0000 0.27030  0.26240  0.41240  Biso   1.000  H
  H19      1.0000 0.77030  0.23760  0.58760  Biso   1.000  H
  H20      1.0000 0.72970  0.76240  0.08760  Biso   1.000  H
  H21      1.0000 0.77030  0.26240  0.08760  Biso   1.000  H
  H22      1.0000 0.72970  0.73760  0.58760  Biso   1.000  H
  H23      1.0000 0.22970  0.76240  0.41240  Biso   1.000  H
  H24      1.0000 0.27030  0.23760  0.91240  Biso   1.000  H
  C41      1.0000 0.17339  0.92610  0.92870  Biso   1.000  C
  C42      1.0000 0.32661  0.07390  0.42870  Biso   1.000  C
  C43      1.0000 0.82661  0.42610  0.57130  Biso   1.000  C
  C44      1.0000 0.67339  0.57390  0.07130  Biso   1.000  C
  C45      1.0000 0.82661  0.07390  0.07130  Biso   1.000  C
  C46      1.0000 0.67339  0.92610  0.57130  Biso   1.000  C
  C47      1.0000 0.17339  0.57390  0.42870  Biso   1.000  C
  C48      1.0000 0.32661  0.42610  0.92870  Biso   1.000  C
  H25      1.0000 0.17980  0.96270  0.88570  Biso   1.000  H
  H26      1.0000 0.32020  0.03730  0.38570  Biso   1.000  H
  H27      1.0000 0.82020  0.46270  0.61430  Biso   1.000  H
  H28      1.0000 0.67980  0.53730  0.11430  Biso   1.000  H
  H29      1.0000 0.82020  0.03730  0.11430  Biso   1.000  H
  H30      1.0000 0.67980  0.96270  0.61430  Biso   1.000  H
  H31      1.0000 0.17980  0.53730  0.38570  Biso   1.000  H
  H32      1.0000 0.32020  0.46270  0.88570  Biso   1.000  H
  C49      1.0000 0.13350  0.00320  0.98006  Biso   1.000  C
  C50      1.0000 0.36650  0.99680  0.48006  Biso   1.000  C
  C51      1.0000 0.86650  0.50320  0.51994  Biso   1.000  C
  C52      1.0000 0.63350  0.49680  0.01994  Biso   1.000  C
  C53      1.0000 0.86650  0.99680  0.01994  Biso   1.000  C
  C54      1.0000 0.63350  0.00320  0.51994  Biso   1.000  C
  C55      1.0000 0.13350  0.49680  0.48006  Biso   1.000  C
  C56      1.0000 0.36650  0.50320  0.98006  Biso   1.000  C
  C57      1.0000 0.03682  0.29900  0.06985  Biso   1.000  C
  C58      1.0000 0.46318  0.70100  0.56985  Biso   1.000  C
  C59      1.0000 0.96318  0.79900  0.43015  Biso   1.000  C
  C60      1.0000 0.53682  0.20100  0.93015  Biso   1.000  C
  C61      1.0000 0.96318  0.70100  0.93015  Biso   1.000  C
  C62      1.0000 0.53682  0.29900  0.43015  Biso   1.000  C
  C63      1.0000 0.03682  0.20100  0.56985  Biso   1.000  C
  C64      1.0000 0.46318  0.79900  0.06985  Biso   1.000  C
  H33      1.0000 0.97770  0.31230  0.05090  Biso   1.000  H
  H34      1.0000 0.52230  0.68770  0.55090  Biso   1.000  H
  H35      1.0000 0.02230  0.81230  0.44910  Biso   1.000  H
  H36      1.0000 0.47770  0.18770  0.94910  Biso   1.000  H
  H37      1.0000 0.02230  0.68770  0.94910  Biso   1.000  H
  H38      1.0000 0.47770  0.31230  0.44910  Biso   1.000  H
  H39      1.0000 0.97770  0.18770  0.55090  Biso   1.000  H
  H40      1.0000 0.52230  0.81230  0.05090  Biso   1.000  H
  C65      1.0000 0.11536  0.34950  0.16904  Biso   1.000  C
  C66      1.0000 0.38464  0.65050  0.66904  Biso   1.000  C
  C67      1.0000 0.88464  0.84950  0.33096  Biso   1.000  C
  C68      1.0000 0.61536  0.15050  0.83096  Biso   1.000  C
  C69      1.0000 0.88464  0.65050  0.83096  Biso   1.000  C
  C70      1.0000 0.61536  0.34950  0.33096  Biso   1.000  C
  C71      1.0000 0.11536  0.15050  0.66904  Biso   1.000  C
  C72      1.0000 0.38464  0.84950  0.16904  Biso   1.000  C
  H41      1.0000 0.16250  0.28010  0.16900  Biso   1.000  H
  H42      1.0000 0.33750  0.71990  0.66900  Biso   1.000  H
  H43      1.0000 0.83750  0.78010  0.33100  Biso   1.000  H
  H44      1.0000 0.66250  0.21990  0.83100  Biso   1.000  H
  H45      1.0000 0.83750  0.71990  0.83100  Biso   1.000  H
  H46      1.0000 0.66250  0.28010  0.33100  Biso   1.000  H
  H47      1.0000 0.16250  0.21990  0.66900  Biso   1.000  H
  H48      1.0000 0.33750  0.78010  0.16900  Biso   1.000  H
  H49      1.0000 0.10790  0.38510  0.21430  Biso   1.000  H
  H50      1.0000 0.39210  0.61490  0.71430  Biso   1.000  H
  H51      1.0000 0.89210  0.88510  0.28570  Biso   1.000  H
  H52      1.0000 0.60790  0.11490  0.78570  Biso   1.000  H
  H53      1.0000 0.89210  0.61490  0.78570  Biso   1.000  H
  H54      1.0000 0.60790  0.38510  0.28570  Biso   1.000  H
  H55      1.0000 0.10790  0.11490  0.71430  Biso   1.000  H
  H56      1.0000 0.39210  0.88510  0.21430  Biso   1.000  H
  C73      1.0000 0.09390  0.43070  0.05605  Biso   1.000  C
  C74      1.0000 0.40610  0.56930  0.55605  Biso   1.000  C
  C75      1.0000 0.90610  0.93070  0.44395  Biso   1.000  C
  C76      1.0000 0.59390  0.06930  0.94395  Biso   1.000  C
  C77      1.0000 0.90610  0.56930  0.94395  Biso   1.000  C
  C78      1.0000 0.59390  0.43070  0.44395  Biso   1.000  C
  C79      1.0000 0.09390  0.06930  0.55605  Biso   1.000  C
  C80      1.0000 0.40610  0.93070  0.05605  Biso   1.000  C
  H57      1.0000 0.13850  0.40990  0.02260  Biso   1.000  H
  H58      1.0000 0.36150  0.59010  0.52260  Biso   1.000  H
  H59      1.0000 0.86150  0.90990  0.47740  Biso   1.000  H
  H60      1.0000 0.63850  0.09010  0.97740  Biso   1.000  H
  H61      1.0000 0.86150  0.59010  0.97740  Biso   1.000  H
  H62      1.0000 0.63850  0.40990  0.47740  Biso   1.000  H
  H63      1.0000 0.13850  0.09010  0.52260  Biso   1.000  H
  H64      1.0000 0.36150  0.90990  0.02260  Biso   1.000  H
  H65      1.0000 0.05760  0.50810  0.03990  Biso   1.000  H
  H66      1.0000 0.44240  0.49190  0.53990  Biso   1.000  H
  H67      1.0000 0.94240  0.00810  0.46010  Biso   1.000  H
  H68      1.0000 0.55760  0.99190  0.96010  Biso   1.000  H
  H69      1.0000 0.94240  0.49190  0.96010  Biso   1.000  H
  H70      1.0000 0.55760  0.50810  0.46010  Biso   1.000  H
  H71      1.0000 0.05760  0.99190  0.53990  Biso   1.000  H
  H72      1.0000 0.44240  0.00810  0.03990  Biso   1.000  H
  C81      1.0000 0.95253  0.36160  0.17060  Biso   1.000  C
  C82      1.0000 0.54747  0.63840  0.67060  Biso   1.000  C
  C83      1.0000 0.04747  0.86160  0.32940  Biso   1.000  C
  C84      1.0000 0.45253  0.13840  0.82940  Biso   1.000  C
  C85      1.0000 0.04747  0.63840  0.82940  Biso   1.000  C
  C86      1.0000 0.45253  0.36160  0.32940  Biso   1.000  C
  C87      1.0000 0.95253  0.13840  0.67060  Biso   1.000  C
  C88      1.0000 0.54747  0.86160  0.17060  Biso   1.000  C
  H73      1.0000 0.90320  0.35080  0.14000  Biso   1.000  H
  H74      1.0000 0.59680  0.64920  0.64000  Biso   1.000  H
  H75      1.0000 0.09680  0.85080  0.36000  Biso   1.000  H
  H76      1.0000 0.40320  0.14920  0.86000  Biso   1.000  H
  H77      1.0000 0.09680  0.64920  0.86000  Biso   1.000  H
  H78      1.0000 0.40320  0.35080  0.36000  Biso   1.000  H
  H79      1.0000 0.90320  0.14920  0.64000  Biso   1.000  H
  H80      1.0000 0.59680  0.85080  0.14000  Biso   1.000  H
  H81      1.0000 0.96570  0.46170  0.17470  Biso   1.000  H
  H82      1.0000 0.53430  0.53830  0.67470  Biso   1.000  H
  H83      1.0000 0.03430  0.96170  0.32530  Biso   1.000  H
  H84      1.0000 0.46570  0.03830  0.82530  Biso   1.000  H
  H85      1.0000 0.03430  0.53830  0.82530  Biso   1.000  H
  H86      1.0000 0.46570  0.46170  0.32530  Biso   1.000  H
  H87      1.0000 0.96570  0.03830  0.67470  Biso   1.000  H
  H88      1.0000 0.53430  0.96170  0.17470  Biso   1.000  H
  C89      1.0000 0.13600  0.46890  0.12127  Biso   1.000  C
  C90      1.0000 0.36400  0.53110  0.62127  Biso   1.000  C
  C91      1.0000 0.86400  0.96890  0.37873  Biso   1.000  C
  C92      1.0000 0.63600  0.03110  0.87873  Biso   1.000  C
  C93      1.0000 0.86400  0.53110  0.87873  Biso   1.000  C
  C94      1.0000 0.63600  0.46890  0.37873  Biso   1.000  C
  C95      1.0000 0.13600  0.03110  0.62127  Biso   1.000  C
  C96      1.0000 0.36400  0.96890  0.12127  Biso   1.000  C
  H89      1.0000 0.11220  0.55730  0.13800  Biso   1.000  H
  H90      1.0000 0.38780  0.44270  0.63800  Biso   1.000  H
  H91      1.0000 0.88780  0.05730  0.36200  Biso   1.000  H
  H92      1.0000 0.61220  0.94270  0.86200  Biso   1.000  H
  H93      1.0000 0.88780  0.44270  0.86200  Biso   1.000  H
  H94      1.0000 0.61220  0.55730  0.36200  Biso   1.000  H
  H95      1.0000 0.11220  0.94270  0.63800  Biso   1.000  H
  H96      1.0000 0.38780  0.05730  0.13800  Biso   1.000  H
  H97      1.0000 0.19930  0.47910  0.11590  Biso   1.000  H
  H98      1.0000 0.30070  0.52090  0.61590  Biso   1.000  H
  H99      1.0000 0.80070  0.97910  0.38410  Biso   1.000  H
  H100     1.0000 0.69930  0.02090  0.88410  Biso   1.000  H
  H101     1.0000 0.80070  0.52090  0.88410  Biso   1.000  H
  H102     1.0000 0.69930  0.47910  0.38410  Biso   1.000  H
  H103     1.0000 0.19930  0.02090  0.61590  Biso   1.000  H
  H104     1.0000 0.30070  0.97910  0.11590  Biso   1.000  H
  N1       1.0000 0.03106  0.28515  0.14395  Biso   1.000  N
  N2       1.0000 0.46894  0.71485  0.64395  Biso   1.000  N
  N3       1.0000 0.96894  0.78515  0.35605  Biso   1.000  N
  N4       1.0000 0.53106  0.21485  0.85605  Biso   1.000  N
  N5       1.0000 0.96894  0.71485  0.85605  Biso   1.000  N
  N6       1.0000 0.53106  0.28515  0.35605  Biso   1.000  N
  N7       1.0000 0.03106  0.21485  0.64395  Biso   1.000  N
  N8       1.0000 0.46894  0.78515  0.14395  Biso   1.000  N
  N9       1.0000 0.08600  0.05380  0.08479  Biso   1.000  N
  N10      1.0000 0.41400  0.94620  0.58479  Biso   1.000  N
  N11      1.0000 0.91400  0.55380  0.41521  Biso   1.000  N
  N12      1.0000 0.58600  0.44620  0.91521  Biso   1.000  N
  N13      1.0000 0.91400  0.94620  0.91521  Biso   1.000  N
  N14      1.0000 0.58600  0.05380  0.41521  Biso   1.000  N
  N15      1.0000 0.08600  0.44620  0.58479  Biso   1.000  N
  N16      1.0000 0.41400  0.55380  0.08479  Biso   1.000  N
  N17      1.0000 0.10188  0.13950  0.98200  Biso   1.000  N
  N18      1.0000 0.39812  0.86050  0.48200  Biso   1.000  N
  N19      1.0000 0.89812  0.63950  0.51800  Biso   1.000  N
  N20      1.0000 0.60188  0.36050  0.01800  Biso   1.000  N
  N21      1.0000 0.89812  0.86050  0.01800  Biso   1.000  N
  N22      1.0000 0.60188  0.13950  0.51800  Biso   1.000  N
  N23      1.0000 0.10188  0.36050  0.48200  Biso   1.000  N
  N24      1.0000 0.39812  0.63950  0.98200  Biso   1.000  N
  H105     1.0000 0.09950  0.19780  0.94900  Biso   1.000  H
  H106     1.0000 0.40050  0.80220  0.44900  Biso   1.000  H
  H107     1.0000 0.90050  0.69780  0.55100  Biso   1.000  H
  H108     1.0000 0.59950  0.30220  0.05100  Biso   1.000  H
  H109     1.0000 0.90050  0.80220  0.05100  Biso   1.000  H
  H110     1.0000 0.59950  0.19780  0.55100  Biso   1.000  H
  H111     1.0000 0.09950  0.30220  0.44900  Biso   1.000  H
  H112     1.0000 0.40050  0.69780  0.94900  Biso   1.000  H
  O1       1.0000 0.97312  0.37744  0.30499  Biso   1.000  O
  O2       1.0000 0.52688  0.62256  0.80499  Biso   1.000  O
  O3       1.0000 0.02688  0.87744  0.19501  Biso   1.000  O
  O4       1.0000 0.47312  0.12256  0.69501  Biso   1.000  O
  O5       1.0000 0.02688  0.62256  0.69501  Biso   1.000  O
  O6       1.0000 0.47312  0.37744  0.19501  Biso   1.000  O
  O7       1.0000 0.97312  0.12256  0.80499  Biso   1.000  O
  O8       1.0000 0.52688  0.87744  0.30499  Biso   1.000  O
  O9       1.0000 0.82553  0.29506  0.26057  Biso   1.000  O
  O10      1.0000 0.67447  0.70494  0.76057  Biso   1.000  O
  O11      1.0000 0.17447  0.79506  0.23943  Biso   1.000  O
  O12      1.0000 0.32553  0.20494  0.73943  Biso   1.000  O
  O13      1.0000 0.17447  0.70494  0.73943  Biso   1.000  O
  O14      1.0000 0.32553  0.29506  0.23943  Biso   1.000  O
  O15      1.0000 0.82553  0.20494  0.76057  Biso   1.000  O
  O16      1.0000 0.67447  0.79506  0.26057  Biso   1.000  O
  O17      1.0000 0.96248  0.13989  0.24969  Biso   1.000  O
  O18      1.0000 0.53752  0.86011  0.74969  Biso   1.000  O
  O19      1.0000 0.03752  0.63989  0.25031  Biso   1.000  O
  O20      1.0000 0.46248  0.36011  0.75031  Biso   1.000  O
  O21      1.0000 0.03752  0.86011  0.75031  Biso   1.000  O
  O22      1.0000 0.46248  0.13989  0.25031  Biso   1.000  O
  O23      1.0000 0.96248  0.36011  0.74969  Biso   1.000  O
  O24      1.0000 0.53752  0.63989  0.24969  Biso   1.000  O
  O25      1.0000 0.09820  0.28650  0.86832  Biso   1.000  O
  O26      1.0000 0.40180  0.71350  0.36832  Biso   1.000  O
  O27      1.0000 0.90180  0.78650  0.63168  Biso   1.000  O
  O28      1.0000 0.59820  0.21350  0.13168  Biso   1.000  O
  O29      1.0000 0.90180  0.71350  0.13168  Biso   1.000  O
  O30      1.0000 0.59820  0.28650  0.63168  Biso   1.000  O
  O31      1.0000 0.09820  0.21350  0.36832  Biso   1.000  O
  O32      1.0000 0.40180  0.78650  0.86832  Biso   1.000  O
  H113     1.0000 0.13220  0.32400  0.83950  Biso   1.000  H
  H114     1.0000 0.36780  0.67600  0.33950  Biso   1.000  H
  H115     1.0000 0.86780  0.82400  0.66050  Biso   1.000  H
  H116     1.0000 0.63220  0.17600  0.16050  Biso   1.000  H
  H117     1.0000 0.86780  0.67600  0.16050  Biso   1.000  H
  H118     1.0000 0.63220  0.32400  0.66050  Biso   1.000  H
  H119     1.0000 0.13220  0.17600  0.33950  Biso   1.000  H
  H120     1.0000 0.36780  0.82400  0.83950  Biso   1.000  H
  H121     1.0000 0.06330  0.24210  0.84250  Biso   1.000  H
  H122     1.0000 0.43670  0.75790  0.34250  Biso   1.000  H
  H123     1.0000 0.93670  0.74210  0.65750  Biso   1.000  H
  H124     1.0000 0.56330  0.25790  0.15750  Biso   1.000  H
  H125     1.0000 0.93670  0.75790  0.15750  Biso   1.000  H
  H126     1.0000 0.56330  0.24210  0.65750  Biso   1.000  H
  H127     1.0000 0.06330  0.25790  0.34250  Biso   1.000  H
  H128     1.0000 0.43670  0.74210  0.84250  Biso   1.000  H
  O33      1.0000 0.19735  0.08980  0.26424  Biso   1.000  O
  O34      1.0000 0.30265  0.91020  0.76424  Biso   1.000  O
  O35      1.0000 0.80265  0.58980  0.23576  Biso   1.000  O
  O36      1.0000 0.69735  0.41020  0.73576  Biso   1.000  O
  O37      1.0000 0.80265  0.91020  0.73576  Biso   1.000  O
  O38      1.0000 0.69735  0.08980  0.23576  Biso   1.000  O
  O39      1.0000 0.19735  0.41020  0.76424  Biso   1.000  O
  O40      1.0000 0.30265  0.58980  0.26424  Biso   1.000  O
  H129     1.0000 0.24630  0.13290  0.26490  Biso   1.000  H
  H130     1.0000 0.25370  0.86710  0.76490  Biso   1.000  H
  H131     1.0000 0.75370  0.63290  0.23510  Biso   1.000  H
  H132     1.0000 0.74630  0.36710  0.73510  Biso   1.000  H
  H133     1.0000 0.75370  0.86710  0.73510  Biso   1.000  H
  H134     1.0000 0.74630  0.13290  0.23510  Biso   1.000  H
  H135     1.0000 0.24630  0.36710  0.76490  Biso   1.000  H
  H136     1.0000 0.25370  0.63290  0.26490  Biso   1.000  H
  H137     1.0000 0.20880  0.00500  0.25310  Biso   1.000  H
  H138     1.0000 0.29120  0.99500  0.75310  Biso   1.000  H
  H139     1.0000 0.79120  0.50500  0.24690  Biso   1.000  H
  H140     1.0000 0.70880  0.49500  0.74690  Biso   1.000  H
  H141     1.0000 0.79120  0.99500  0.74690  Biso   1.000  H
  H142     1.0000 0.70880  0.00500  0.24690  Biso   1.000  H
  H143     1.0000 0.20880  0.49500  0.75310  Biso   1.000  H
  H144     1.0000 0.29120  0.50500  0.25310  Biso   1.000  H
