data_image0
_cell_length_a       17.507
_cell_length_b       9.5357
_cell_length_c       21.263
_cell_angle_alpha    90
_cell_angle_beta     90
_cell_angle_gamma    90

_symmetry_space_group_name_H-M    "P 1"
_symmetry_int_tables_number       1

loop_
  _symmetry_equiv_pos_as_xyz
  'x, y, z'

loop_
  _atom_site_label
  _atom_site_occupancy
  _atom_site_fract_x
  _atom_site_fract_y
  _atom_site_fract_z
  _atom_site_thermal_displace_type
  _atom_site_B_iso_or_equiv
  _atom_site_type_symbol
  Cu1      1.0000 0.07887  0.42059  0.19387  Biso   1.000  Cu
  Cu2      1.0000 0.42113  0.57941  0.69387  Biso   1.000  Cu
  Cu3      1.0000 0.92113  0.92059  0.30613  Biso   1.000  Cu
  Cu4      1.0000 0.57887  0.07941  0.80613  Biso   1.000  Cu
  Cu5      1.0000 0.92113  0.57941  0.80613  Biso   1.000  Cu
  Cu6      1.0000 0.57887  0.42059  0.30613  Biso   1.000  Cu
  Cu7      1.0000 0.07887  0.07941  0.69387  Biso   1.000  Cu
  Cu8      1.0000 0.42113  0.92059  0.19387  Biso   1.000  Cu
  P1       1.0000 0.02629  0.15255  0.25638  Biso   1.000  P
  P2       1.0000 0.47371  0.84745  0.75638  Biso   1.000  P
  P3       1.0000 0.97371  0.65255  0.24362  Biso   1.000  P
  P4       1.0000 0.52629  0.34745  0.74362  Biso   1.000  P
  P5       1.0000 0.97371  0.84745  0.74362  Biso   1.000  P
  P6       1.0000 0.52629  0.15255  0.24362  Biso   1.000  P
  P7       1.0000 0.02629  0.34745  0.75638  Biso   1.000  P
  P8       1.0000 0.47371  0.65255  0.25638  Biso   1.000  P
  C1       1.0000 0.18147  0.16680  0.17583  Biso   1.000  C
  C2       1.0000 0.31853  0.83320  0.67583  Biso   1.000  C
  C3       1.0000 0.81853  0.66680  0.32417  Biso   1.000  C
  C4       1.0000 0.68147  0.33320  0.82417  Biso   1.000  C
  C5       1.0000 0.81853  0.83320  0.82417  Biso   1.000  C
  C6       1.0000 0.68147  0.16680  0.32417  Biso   1.000  C
  C7       1.0000 0.18147  0.33320  0.67583  Biso   1.000  C
  C8       1.0000 0.31853  0.66680  0.17583  Biso   1.000  C
  H1       1.0000 0.19420  0.20440  0.21690  Biso   1.000  H
  H2       1.0000 0.30580  0.79560  0.71690  Biso   1.000  H
  H3       1.0000 0.80580  0.70440  0.28310  Biso   1.000  H
  H4       1.0000 0.69420  0.29560  0.78310  Biso   1.000  H
  H5       1.0000 0.80580  0.79560  0.78310  Biso   1.000  H
  H6       1.0000 0.69420  0.20440  0.28310  Biso   1.000  H
  H7       1.0000 0.19420  0.29560  0.71690  Biso   1.000  H
  H8       1.0000 0.30580  0.70440  0.21690  Biso   1.000  H
  H9       1.0000 0.17890  0.06540  0.17870  Biso   1.000  H
  H10      1.0000 0.32110  0.93460  0.67870  Biso   1.000  H
  H11      1.0000 0.82110  0.56540  0.32130  Biso   1.000  H
  H12      1.0000 0.67890  0.43460  0.82130  Biso   1.000  H
  H13      1.0000 0.82110  0.93460  0.82130  Biso   1.000  H
  H14      1.0000 0.67890  0.06540  0.32130  Biso   1.000  H
  H15      1.0000 0.17890  0.43460  0.67870  Biso   1.000  H
  H16      1.0000 0.32110  0.56540  0.17870  Biso   1.000  H
  C9       1.0000 0.23932  0.21130  0.12760  Biso   1.000  C
  C10      1.0000 0.26068  0.78870  0.62760  Biso   1.000  C
  C11      1.0000 0.76068  0.71130  0.37240  Biso   1.000  C
  C12      1.0000 0.73932  0.28870  0.87240  Biso   1.000  C
  C13      1.0000 0.76068  0.78870  0.87240  Biso   1.000  C
  C14      1.0000 0.73932  0.21130  0.37240  Biso   1.000  C
  C15      1.0000 0.23932  0.28870  0.62760  Biso   1.000  C
  C16      1.0000 0.26068  0.71130  0.12760  Biso   1.000  C
  H17      1.0000 0.28550  0.15530  0.13020  Biso   1.000  H
  H18      1.0000 0.21450  0.84470  0.63020  Biso   1.000  H
  H19      1.0000 0.71450  0.65530  0.36980  Biso   1.000  H
  H20      1.0000 0.78550  0.34470  0.86980  Biso   1.000  H
  H21      1.0000 0.71450  0.84470  0.86980  Biso   1.000  H
  H22      1.0000 0.78550  0.15530  0.36980  Biso   1.000  H
  H23      1.0000 0.28550  0.34470  0.63020  Biso   1.000  H
  H24      1.0000 0.21450  0.65530  0.13020  Biso   1.000  H
  H25      1.0000 0.25230  0.30970  0.13190  Biso   1.000  H
  H26      1.0000 0.24770  0.69030  0.63190  Biso   1.000  H
  H27      1.0000 0.74770  0.80970  0.36810  Biso   1.000  H
  H28      1.0000 0.75230  0.19030  0.86810  Biso   1.000  H
  H29      1.0000 0.74770  0.69030  0.86810  Biso   1.000  H
  H30      1.0000 0.75230  0.30970  0.36810  Biso   1.000  H
  H31      1.0000 0.25230  0.19030  0.63190  Biso   1.000  H
  H32      1.0000 0.24770  0.80970  0.13190  Biso   1.000  H
  C17      1.0000 0.19541  0.18290  0.06628  Biso   1.000  C
  C18      1.0000 0.30459  0.81710  0.56628  Biso   1.000  C
  C19      1.0000 0.80459  0.68290  0.43372  Biso   1.000  C
  C20      1.0000 0.69541  0.31710  0.93372  Biso   1.000  C
  C21      1.0000 0.80459  0.81710  0.93372  Biso   1.000  C
  C22      1.0000 0.69541  0.18290  0.43372  Biso   1.000  C
  C23      1.0000 0.19541  0.31710  0.56628  Biso   1.000  C
  C24      1.0000 0.30459  0.68290  0.06628  Biso   1.000  C
  H33      1.0000 0.19460  0.08370  0.05630  Biso   1.000  H
  H34      1.0000 0.30540  0.91630  0.55630  Biso   1.000  H
  H35      1.0000 0.80540  0.58370  0.44370  Biso   1.000  H
  H36      1.0000 0.69460  0.41630  0.94370  Biso   1.000  H
  H37      1.0000 0.80540  0.91630  0.94370  Biso   1.000  H
  H38      1.0000 0.69460  0.08370  0.44370  Biso   1.000  H
  H39      1.0000 0.19460  0.41630  0.55630  Biso   1.000  H
  H40      1.0000 0.30540  0.58370  0.05630  Biso   1.000  H
  H41      1.0000 0.21740  0.23410  0.03120  Biso   1.000  H
  H42      1.0000 0.28260  0.76590  0.53120  Biso   1.000  H
  H43      1.0000 0.78260  0.73410  0.46880  Biso   1.000  H
  H44      1.0000 0.71740  0.26590  0.96880  Biso   1.000  H
  H45      1.0000 0.78260  0.76590  0.96880  Biso   1.000  H
  H46      1.0000 0.71740  0.23410  0.46880  Biso   1.000  H
  H47      1.0000 0.21740  0.26590  0.53120  Biso   1.000  H
  H48      1.0000 0.28260  0.73410  0.03120  Biso   1.000  H
  C25      1.0000 0.11475  0.23770  0.08245  Biso   1.000  C
  C26      1.0000 0.38525  0.76230  0.58245  Biso   1.000  C
  C27      1.0000 0.88525  0.73770  0.41755  Biso   1.000  C
  C28      1.0000 0.61475  0.26230  0.91755  Biso   1.000  C
  C29      1.0000 0.88525  0.76230  0.91755  Biso   1.000  C
  C30      1.0000 0.61475  0.23770  0.41755  Biso   1.000  C
  C31      1.0000 0.11475  0.26230  0.58245  Biso   1.000  C
  C32      1.0000 0.38525  0.73770  0.08245  Biso   1.000  C
  H49      1.0000 0.07610  0.17960  0.06170  Biso   1.000  H
  H50      1.0000 0.42390  0.82040  0.56170  Biso   1.000  H
  H51      1.0000 0.92390  0.67960  0.43830  Biso   1.000  H
  H52      1.0000 0.57610  0.32040  0.93830  Biso   1.000  H
  H53      1.0000 0.92390  0.82040  0.93830  Biso   1.000  H
  H54      1.0000 0.57610  0.17960  0.43830  Biso   1.000  H
  H55      1.0000 0.07610  0.32040  0.56170  Biso   1.000  H
  H56      1.0000 0.42390  0.67960  0.06170  Biso   1.000  H
  C33      1.0000 0.10386  0.38790  0.06472  Biso   1.000  C
  C34      1.0000 0.39614  0.61210  0.56472  Biso   1.000  C
  C35      1.0000 0.89614  0.88790  0.43528  Biso   1.000  C
  C36      1.0000 0.60386  0.11210  0.93528  Biso   1.000  C
  C37      1.0000 0.89614  0.61210  0.93528  Biso   1.000  C
  C38      1.0000 0.60386  0.38790  0.43528  Biso   1.000  C
  C39      1.0000 0.10386  0.11210  0.56472  Biso   1.000  C
  C40      1.0000 0.39614  0.88790  0.06472  Biso   1.000  C
  C41      1.0000 0.09550  0.58010  0.00877  Biso   1.000  C
  C42      1.0000 0.40450  0.41990  0.50877  Biso   1.000  C
  C43      1.0000 0.90450  0.08010  0.49123  Biso   1.000  C
  C44      1.0000 0.59550  0.91990  0.99123  Biso   1.000  C
  C45      1.0000 0.90450  0.41990  0.99123  Biso   1.000  C
  C46      1.0000 0.59550  0.58010  0.49123  Biso   1.000  C
  C47      1.0000 0.09550  0.91990  0.50877  Biso   1.000  C
  C48      1.0000 0.40450  0.08010  0.00877  Biso   1.000  C
  C49      1.0000 0.09680  0.68270  0.96206  Biso   1.000  C
  C50      1.0000 0.40320  0.31730  0.46206  Biso   1.000  C
  C51      1.0000 0.90320  0.18270  0.53794  Biso   1.000  C
  C52      1.0000 0.59680  0.81730  0.03794  Biso   1.000  C
  C53      1.0000 0.90320  0.31730  0.03794  Biso   1.000  C
  C54      1.0000 0.59680  0.68270  0.53794  Biso   1.000  C
  C55      1.0000 0.09680  0.81730  0.46206  Biso   1.000  C
  C56      1.0000 0.40320  0.18270  0.96206  Biso   1.000  C
  H57      1.0000 0.10990  0.66190  0.92070  Biso   1.000  H
  H58      1.0000 0.39010  0.33810  0.42070  Biso   1.000  H
  H59      1.0000 0.89010  0.16190  0.57930  Biso   1.000  H
  H60      1.0000 0.60990  0.83810  0.07930  Biso   1.000  H
  H61      1.0000 0.89010  0.33810  0.07930  Biso   1.000  H
  H62      1.0000 0.60990  0.66190  0.57930  Biso   1.000  H
  H63      1.0000 0.10990  0.83810  0.42070  Biso   1.000  H
  H64      1.0000 0.39010  0.16190  0.92070  Biso   1.000  H
  C57      1.0000 0.07769  0.81640  0.98059  Biso   1.000  C
  C58      1.0000 0.42231  0.18360  0.48059  Biso   1.000  C
  C59      1.0000 0.92231  0.31640  0.51941  Biso   1.000  C
  C60      1.0000 0.57769  0.68360  0.01941  Biso   1.000  C
  C61      1.0000 0.92231  0.18360  0.01941  Biso   1.000  C
  C62      1.0000 0.57769  0.81640  0.51941  Biso   1.000  C
  C63      1.0000 0.07769  0.68360  0.48059  Biso   1.000  C
  C64      1.0000 0.42231  0.31640  0.98059  Biso   1.000  C
  H65      1.0000 0.07860  0.88870  0.95120  Biso   1.000  H
  H66      1.0000 0.42140  0.11130  0.45120  Biso   1.000  H
  H67      1.0000 0.92140  0.38870  0.54880  Biso   1.000  H
  H68      1.0000 0.57860  0.61130  0.04880  Biso   1.000  H
  H69      1.0000 0.92140  0.11130  0.04880  Biso   1.000  H
  H70      1.0000 0.57860  0.88870  0.54880  Biso   1.000  H
  H71      1.0000 0.07860  0.61130  0.45120  Biso   1.000  H
  H72      1.0000 0.42140  0.38870  0.95120  Biso   1.000  H
  C65      1.0000 0.05695  0.84590  0.04266  Biso   1.000  C
  C66      1.0000 0.44305  0.15410  0.54266  Biso   1.000  C
  C67      1.0000 0.94305  0.34590  0.45734  Biso   1.000  C
  C68      1.0000 0.55695  0.65410  0.95734  Biso   1.000  C
  C69      1.0000 0.94305  0.15410  0.95734  Biso   1.000  C
  C70      1.0000 0.55695  0.84590  0.45734  Biso   1.000  C
  C71      1.0000 0.05695  0.65410  0.54266  Biso   1.000  C
  C72      1.0000 0.44305  0.34590  0.04266  Biso   1.000  C
  H73      1.0000 0.04260  0.93680  0.05320  Biso   1.000  H
  H74      1.0000 0.45740  0.06320  0.55320  Biso   1.000  H
  H75      1.0000 0.95740  0.43680  0.44680  Biso   1.000  H
  H76      1.0000 0.54260  0.56320  0.94680  Biso   1.000  H
  H77      1.0000 0.95740  0.06320  0.94680  Biso   1.000  H
  H78      1.0000 0.54260  0.93680  0.44680  Biso   1.000  H
  H79      1.0000 0.04260  0.56320  0.55320  Biso   1.000  H
  H80      1.0000 0.45740  0.43680  0.05320  Biso   1.000  H
  C73      1.0000 0.05702  0.74430  0.08884  Biso   1.000  C
  C74      1.0000 0.44298  0.25570  0.58884  Biso   1.000  C
  C75      1.0000 0.94298  0.24430  0.41116  Biso   1.000  C
  C76      1.0000 0.55702  0.75570  0.91116  Biso   1.000  C
  C77      1.0000 0.94298  0.25570  0.91116  Biso   1.000  C
  C78      1.0000 0.55702  0.74430  0.41116  Biso   1.000  C
  C79      1.0000 0.05702  0.75570  0.58884  Biso   1.000  C
  C80      1.0000 0.44298  0.24430  0.08884  Biso   1.000  C
  H81      1.0000 0.04400  0.76560  0.13020  Biso   1.000  H
  H82      1.0000 0.45600  0.23440  0.63020  Biso   1.000  H
  H83      1.0000 0.95600  0.26560  0.36980  Biso   1.000  H
  H84      1.0000 0.54400  0.73440  0.86980  Biso   1.000  H
  H85      1.0000 0.95600  0.23440  0.86980  Biso   1.000  H
  H86      1.0000 0.54400  0.76560  0.36980  Biso   1.000  H
  H87      1.0000 0.04400  0.73440  0.63020  Biso   1.000  H
  H88      1.0000 0.45600  0.26560  0.13020  Biso   1.000  H
  C81      1.0000 0.07721  0.60960  0.07123  Biso   1.000  C
  C82      1.0000 0.42279  0.39040  0.57123  Biso   1.000  C
  C83      1.0000 0.92279  0.10960  0.42877  Biso   1.000  C
  C84      1.0000 0.57721  0.89040  0.92877  Biso   1.000  C
  C85      1.0000 0.92279  0.39040  0.92877  Biso   1.000  C
  C86      1.0000 0.57721  0.60960  0.42877  Biso   1.000  C
  C87      1.0000 0.07721  0.89040  0.57123  Biso   1.000  C
  C88      1.0000 0.42279  0.10960  0.07123  Biso   1.000  C
  C89      1.0000 0.04253  0.13370  0.17217  Biso   1.000  C
  C90      1.0000 0.45747  0.86630  0.67217  Biso   1.000  C
  C91      1.0000 0.95747  0.63370  0.32783  Biso   1.000  C
  C92      1.0000 0.54253  0.36630  0.82783  Biso   1.000  C
  C93      1.0000 0.95747  0.86630  0.82783  Biso   1.000  C
  C94      1.0000 0.54253  0.13370  0.32783  Biso   1.000  C
  C95      1.0000 0.04253  0.36630  0.67217  Biso   1.000  C
  C96      1.0000 0.45747  0.63370  0.17217  Biso   1.000  C
  H89      1.0000 0.05490  0.03700  0.16240  Biso   1.000  H
  H90      1.0000 0.44510  0.96300  0.66240  Biso   1.000  H
  H91      1.0000 0.94510  0.53700  0.33760  Biso   1.000  H
  H92      1.0000 0.55490  0.46300  0.83760  Biso   1.000  H
  H93      1.0000 0.94510  0.96300  0.83760  Biso   1.000  H
  H94      1.0000 0.55490  0.03700  0.33760  Biso   1.000  H
  H95      1.0000 0.05490  0.46300  0.66240  Biso   1.000  H
  H96      1.0000 0.44510  0.53700  0.16240  Biso   1.000  H
  H97      1.0000 0.99660  0.15890  0.14930  Biso   1.000  H
  H98      1.0000 0.50340  0.84110  0.64930  Biso   1.000  H
  H99      1.0000 0.00340  0.65890  0.35070  Biso   1.000  H
  H100     1.0000 0.49660  0.34110  0.85070  Biso   1.000  H
  H101     1.0000 0.00340  0.84110  0.85070  Biso   1.000  H
  H102     1.0000 0.49660  0.15890  0.35070  Biso   1.000  H
  H103     1.0000 0.99660  0.34110  0.64930  Biso   1.000  H
  H104     1.0000 0.50340  0.65890  0.14930  Biso   1.000  H
  N1       1.0000 0.10653  0.22650  0.15254  Biso   1.000  N
  N2       1.0000 0.39347  0.77350  0.65254  Biso   1.000  N
  N3       1.0000 0.89347  0.72650  0.34746  Biso   1.000  N
  N4       1.0000 0.60653  0.27350  0.84746  Biso   1.000  N
  N5       1.0000 0.89347  0.77350  0.84746  Biso   1.000  N
  N6       1.0000 0.60653  0.22650  0.34746  Biso   1.000  N
  N7       1.0000 0.10653  0.27350  0.65254  Biso   1.000  N
  N8       1.0000 0.39347  0.72650  0.15254  Biso   1.000  N
  N9       1.0000 0.08418  0.48510  0.10616  Biso   1.000  N
  N10      1.0000 0.41582  0.51490  0.60616  Biso   1.000  N
  N11      1.0000 0.91582  0.98510  0.39384  Biso   1.000  N
  N12      1.0000 0.58418  0.01490  0.89384  Biso   1.000  N
  N13      1.0000 0.91582  0.51490  0.89384  Biso   1.000  N
  N14      1.0000 0.58418  0.48510  0.39384  Biso   1.000  N
  N15      1.0000 0.08418  0.01490  0.60616  Biso   1.000  N
  N16      1.0000 0.41582  0.98510  0.10616  Biso   1.000  N
  N17      1.0000 0.11186  0.43850  0.00610  Biso   1.000  N
  N18      1.0000 0.38814  0.56150  0.50610  Biso   1.000  N
  N19      1.0000 0.88814  0.93850  0.49390  Biso   1.000  N
  N20      1.0000 0.61186  0.06150  0.99390  Biso   1.000  N
  N21      1.0000 0.88814  0.56150  0.99390  Biso   1.000  N
  N22      1.0000 0.61186  0.43850  0.49390  Biso   1.000  N
  N23      1.0000 0.11186  0.06150  0.50610  Biso   1.000  N
  N24      1.0000 0.38814  0.93850  0.00610  Biso   1.000  N
  H105     1.0000 0.12470  0.39170  0.97320  Biso   1.000  H
  H106     1.0000 0.37530  0.60830  0.47320  Biso   1.000  H
  H107     1.0000 0.87530  0.89170  0.52680  Biso   1.000  H
  H108     1.0000 0.62470  0.10830  0.02680  Biso   1.000  H
  H109     1.0000 0.87530  0.60830  0.02680  Biso   1.000  H
  H110     1.0000 0.62470  0.39170  0.52680  Biso   1.000  H
  H111     1.0000 0.12470  0.10830  0.47320  Biso   1.000  H
  H112     1.0000 0.37530  0.89170  0.97320  Biso   1.000  H
  O1       1.0000 0.08386  0.06929  0.29364  Biso   1.000  O
  O2       1.0000 0.41614  0.93071  0.79364  Biso   1.000  O
  O3       1.0000 0.91614  0.56929  0.20636  Biso   1.000  O
  O4       1.0000 0.58386  0.43071  0.70636  Biso   1.000  O
  O5       1.0000 0.91614  0.93071  0.70636  Biso   1.000  O
  O6       1.0000 0.58386  0.06929  0.20636  Biso   1.000  O
  O7       1.0000 0.08386  0.43071  0.79364  Biso   1.000  O
  O8       1.0000 0.41614  0.56929  0.29364  Biso   1.000  O
  O9       1.0000 0.94410  0.10448  0.26876  Biso   1.000  O
  O10      1.0000 0.55590  0.89552  0.76876  Biso   1.000  O
  O11      1.0000 0.05590  0.60448  0.23124  Biso   1.000  O
  O12      1.0000 0.44410  0.39552  0.73124  Biso   1.000  O
  O13      1.0000 0.05590  0.89552  0.73124  Biso   1.000  O
  O14      1.0000 0.44410  0.10448  0.23124  Biso   1.000  O
  O15      1.0000 0.94410  0.39552  0.76876  Biso   1.000  O
  O16      1.0000 0.55590  0.60448  0.26876  Biso   1.000  O
  O17      1.0000 0.03385  0.31310  0.26441  Biso   1.000  O
  O18      1.0000 0.46615  0.68690  0.76441  Biso   1.000  O
  O19      1.0000 0.96615  0.81310  0.23559  Biso   1.000  O
  O20      1.0000 0.53385  0.18690  0.73559  Biso   1.000  O
  O21      1.0000 0.96615  0.68690  0.73559  Biso   1.000  O
  O22      1.0000 0.53385  0.31310  0.23559  Biso   1.000  O
  O23      1.0000 0.03385  0.18690  0.76441  Biso   1.000  O
  O24      1.0000 0.46615  0.81310  0.26441  Biso   1.000  O
  O25      1.0000 0.19805  0.45720  0.23488  Biso   1.000  O
  O26      1.0000 0.30195  0.54280  0.73488  Biso   1.000  O
  O27      1.0000 0.80195  0.95720  0.26512  Biso   1.000  O
  O28      1.0000 0.69805  0.04280  0.76512  Biso   1.000  O
  O29      1.0000 0.80195  0.54280  0.76512  Biso   1.000  O
  O30      1.0000 0.69805  0.45720  0.26512  Biso   1.000  O
  O31      1.0000 0.19805  0.04280  0.73488  Biso   1.000  O
  O32      1.0000 0.30195  0.95720  0.23488  Biso   1.000  O
  H113     1.0000 0.23880  0.40930  0.23850  Biso   1.000  H
  H114     1.0000 0.26120  0.59070  0.73850  Biso   1.000  H
  H115     1.0000 0.76120  0.90930  0.26150  Biso   1.000  H
  H116     1.0000 0.73880  0.09070  0.76150  Biso   1.000  H
  H117     1.0000 0.76120  0.59070  0.76150  Biso   1.000  H
  H118     1.0000 0.73880  0.40930  0.26150  Biso   1.000  H
  H119     1.0000 0.23880  0.09070  0.73850  Biso   1.000  H
  H120     1.0000 0.26120  0.90930  0.23850  Biso   1.000  H
  H121     1.0000 0.20390  0.50170  0.26910  Biso   1.000  H
  H122     1.0000 0.29610  0.49830  0.76910  Biso   1.000  H
  H123     1.0000 0.79610  0.00170  0.23090  Biso   1.000  H
  H124     1.0000 0.70390  0.99830  0.73090  Biso   1.000  H
  H125     1.0000 0.79610  0.49830  0.73090  Biso   1.000  H
  H126     1.0000 0.70390  0.50170  0.23090  Biso   1.000  H
  H127     1.0000 0.20390  0.99830  0.76910  Biso   1.000  H
  H128     1.0000 0.29610  0.00170  0.26910  Biso   1.000  H
  O33      1.0000 0.10078  0.43254  0.37175  Biso   1.000  O
  O34      1.0000 0.39922  0.56746  0.87175  Biso   1.000  O
  O35      1.0000 0.89922  0.93254  0.12825  Biso   1.000  O
  O36      1.0000 0.60078  0.06746  0.62825  Biso   1.000  O
  O37      1.0000 0.89922  0.56746  0.62825  Biso   1.000  O
  O38      1.0000 0.60078  0.43254  0.12825  Biso   1.000  O
  O39      1.0000 0.10078  0.06746  0.87175  Biso   1.000  O
  O40      1.0000 0.39922  0.93254  0.37175  Biso   1.000  O
  H129     1.0000 0.07890  0.40900  0.33770  Biso   1.000  H
  H130     1.0000 0.42110  0.59100  0.83770  Biso   1.000  H
  H131     1.0000 0.92110  0.90900  0.16230  Biso   1.000  H
  H132     1.0000 0.57890  0.09100  0.66230  Biso   1.000  H
  H133     1.0000 0.92110  0.59100  0.66230  Biso   1.000  H
  H134     1.0000 0.57890  0.40900  0.16230  Biso   1.000  H
  H135     1.0000 0.07890  0.09100  0.83770  Biso   1.000  H
  H136     1.0000 0.42110  0.90900  0.33770  Biso   1.000  H
  H137     1.0000 0.13320  0.49640  0.36360  Biso   1.000  H
  H138     1.0000 0.36680  0.50360  0.86360  Biso   1.000  H
  H139     1.0000 0.86680  0.99640  0.13640  Biso   1.000  H
  H140     1.0000 0.63320  0.00360  0.63640  Biso   1.000  H
  H141     1.0000 0.86680  0.50360  0.63640  Biso   1.000  H
  H142     1.0000 0.63320  0.49640  0.13640  Biso   1.000  H
  H143     1.0000 0.13320  0.00360  0.86360  Biso   1.000  H
  H144     1.0000 0.36680  0.99640  0.36360  Biso   1.000  H
  O41      1.0000 0.20313  0.63950  0.33997  Biso   1.000  O
  O42      1.0000 0.29687  0.36050  0.83997  Biso   1.000  O
  O43      1.0000 0.79687  0.13950  0.16003  Biso   1.000  O
  O44      1.0000 0.70313  0.86050  0.66003  Biso   1.000  O
  O45      1.0000 0.79687  0.36050  0.66003  Biso   1.000  O
  O46      1.0000 0.70313  0.63950  0.16003  Biso   1.000  O
  O47      1.0000 0.20313  0.86050  0.83997  Biso   1.000  O
  O48      1.0000 0.29687  0.13950  0.33997  Biso   1.000  O
  H145     1.0000 0.20100  0.70540  0.31300  Biso   1.000  H
  H146     1.0000 0.29900  0.29460  0.81300  Biso   1.000  H
  H147     1.0000 0.79900  0.20540  0.18700  Biso   1.000  H
  H148     1.0000 0.70100  0.79460  0.68700  Biso   1.000  H
  H149     1.0000 0.79900  0.29460  0.68700  Biso   1.000  H
  H150     1.0000 0.70100  0.70540  0.18700  Biso   1.000  H
  H151     1.0000 0.20100  0.79460  0.81300  Biso   1.000  H
  H152     1.0000 0.29900  0.20540  0.31300  Biso   1.000  H
  H153     1.0000 0.24340  0.65810  0.36090  Biso   1.000  H
  H154     1.0000 0.25660  0.34190  0.86090  Biso   1.000  H
  H155     1.0000 0.75660  0.15810  0.13910  Biso   1.000  H
  H156     1.0000 0.74340  0.84190  0.63910  Biso   1.000  H
  H157     1.0000 0.75660  0.34190  0.63910  Biso   1.000  H
  H158     1.0000 0.74340  0.65810  0.13910  Biso   1.000  H
  H159     1.0000 0.24340  0.84190  0.86090  Biso   1.000  H
  H160     1.0000 0.25660  0.15810  0.36090  Biso   1.000  H
  O49      1.0000 0.15587  0.83570  0.25569  Biso   1.000  O
  O50      1.0000 0.34413  0.16430  0.75569  Biso   1.000  O
  O51      1.0000 0.84413  0.33570  0.24431  Biso   1.000  O
  O52      1.0000 0.65587  0.66430  0.74431  Biso   1.000  O
  O53      1.0000 0.84413  0.16430  0.74431  Biso   1.000  O
  O54      1.0000 0.65587  0.83570  0.24431  Biso   1.000  O
  O55      1.0000 0.15587  0.66430  0.75569  Biso   1.000  O
  O56      1.0000 0.34413  0.33570  0.25569  Biso   1.000  O
  H161     1.0000 0.12960  0.90610  0.26730  Biso   1.000  H
  H162     1.0000 0.37040  0.09390  0.76730  Biso   1.000  H
  H163     1.0000 0.87040  0.40610  0.23270  Biso   1.000  H
  H164     1.0000 0.62960  0.59390  0.73270  Biso   1.000  H
  H165     1.0000 0.87040  0.09390  0.73270  Biso   1.000  H
  H166     1.0000 0.62960  0.90610  0.23270  Biso   1.000  H
  H167     1.0000 0.12960  0.59390  0.76730  Biso   1.000  H
  H168     1.0000 0.37040  0.40610  0.26730  Biso   1.000  H
  H169     1.0000 0.12170  0.77910  0.24280  Biso   1.000  H
  H170     1.0000 0.37830  0.22090  0.74280  Biso   1.000  H
  H171     1.0000 0.87830  0.27910  0.25720  Biso   1.000  H
  H172     1.0000 0.62170  0.72090  0.75720  Biso   1.000  H
  H173     1.0000 0.87830  0.22090  0.75720  Biso   1.000  H
  H174     1.0000 0.62170  0.77910  0.25720  Biso   1.000  H
  H175     1.0000 0.12170  0.72090  0.74280  Biso   1.000  H
  H176     1.0000 0.37830  0.27910  0.24280  Biso   1.000  H
  O57      1.0000 0.15474  0.17480  0.39475  Biso   1.000  O
  O58      1.0000 0.34526  0.82520  0.89475  Biso   1.000  O
  O59      1.0000 0.84526  0.67480  0.10525  Biso   1.000  O
  O60      1.0000 0.65474  0.32520  0.60525  Biso   1.000  O
  O61      1.0000 0.84526  0.82520  0.60525  Biso   1.000  O
  O62      1.0000 0.65474  0.17480  0.10525  Biso   1.000  O
  O63      1.0000 0.15474  0.32520  0.89475  Biso   1.000  O
  O64      1.0000 0.34526  0.67480  0.39475  Biso   1.000  O
  H177     1.0000 0.14380  0.26160  0.39340  Biso   1.000  H
  H178     1.0000 0.35620  0.73840  0.89340  Biso   1.000  H
  H179     1.0000 0.85620  0.76160  0.10660  Biso   1.000  H
  H180     1.0000 0.64380  0.23840  0.60660  Biso   1.000  H
  H181     1.0000 0.85620  0.73840  0.60660  Biso   1.000  H
  H182     1.0000 0.64380  0.26160  0.10660  Biso   1.000  H
  H183     1.0000 0.14380  0.23840  0.89340  Biso   1.000  H
  H184     1.0000 0.35620  0.76160  0.39340  Biso   1.000  H
  H185     1.0000 0.13400  0.13230  0.36400  Biso   1.000  H
  H186     1.0000 0.36600  0.86770  0.86400  Biso   1.000  H
  H187     1.0000 0.86600  0.63230  0.13600  Biso   1.000  H
  H188     1.0000 0.63400  0.36770  0.63600  Biso   1.000  H
  H189     1.0000 0.86600  0.86770  0.63600  Biso   1.000  H
  H190     1.0000 0.63400  0.13230  0.13600  Biso   1.000  H
  H191     1.0000 0.13400  0.36770  0.86400  Biso   1.000  H
  H192     1.0000 0.36600  0.63230  0.36400  Biso   1.000  H
