data_image0
_cell_length_a       9.5112
_cell_length_b       8.7422
_cell_length_c       18.327
_cell_angle_alpha    90
_cell_angle_beta     104.342
_cell_angle_gamma    90

_symmetry_space_group_name_H-M    "P 1"
_symmetry_int_tables_number       1

loop_
  _symmetry_equiv_pos_as_xyz
  'x, y, z'

loop_
  _atom_site_label
  _atom_site_occupancy
  _atom_site_fract_x
  _atom_site_fract_y
  _atom_site_fract_z
  _atom_site_thermal_displace_type
  _atom_site_B_iso_or_equiv
  _atom_site_type_symbol
  Cu1      1.0000 0.61626  0.50150  0.34417  Biso   1.000  Cu
  Cu2      1.0000 0.38374  0.00150  0.15583  Biso   1.000  Cu
  Cu3      1.0000 0.38374  0.49850  0.65583  Biso   1.000  Cu
  Cu4      1.0000 0.61626  0.99850  0.84417  Biso   1.000  Cu
  P1       1.0000 0.61122  0.27469  0.22255  Biso   1.000  P
  P2       1.0000 0.38878  0.77469  0.27745  Biso   1.000  P
  P3       1.0000 0.38878  0.72531  0.77745  Biso   1.000  P
  P4       1.0000 0.61122  0.22531  0.72255  Biso   1.000  P
  C1       1.0000 0.88590  0.32980  0.38110  Biso   1.000  C
  C2       1.0000 0.11410  0.82980  0.11890  Biso   1.000  C
  C3       1.0000 0.11410  0.67020  0.61890  Biso   1.000  C
  C4       1.0000 0.88590  0.17020  0.88110  Biso   1.000  C
  H1       1.0000 0.90420  0.43890  0.38100  Biso   1.000  H
  H2       1.0000 0.09580  0.93890  0.11900  Biso   1.000  H
  H3       1.0000 0.09580  0.56110  0.61900  Biso   1.000  H
  H4       1.0000 0.90420  0.06110  0.88100  Biso   1.000  H
  H5       1.0000 0.91660  0.28390  0.33940  Biso   1.000  H
  H6       1.0000 0.08340  0.78390  0.16060  Biso   1.000  H
  H7       1.0000 0.08340  0.71610  0.66060  Biso   1.000  H
  H8       1.0000 0.91660  0.21610  0.83940  Biso   1.000  H
  C5       1.0000 0.96940  0.25990  0.45500  Biso   1.000  C
  C6       1.0000 0.03060  0.75990  0.04500  Biso   1.000  C
  C7       1.0000 0.03060  0.74010  0.54500  Biso   1.000  C
  C8       1.0000 0.96940  0.24010  0.95500  Biso   1.000  C
  H9       1.0000 0.01160  0.33930  0.49070  Biso   1.000  H
  H10      1.0000 0.98840  0.83930  0.00930  Biso   1.000  H
  H11      1.0000 0.98840  0.66070  0.50930  Biso   1.000  H
  H12      1.0000 0.01160  0.16070  0.99070  Biso   1.000  H
  H13      1.0000 0.04650  0.19440  0.44700  Biso   1.000  H
  H14      1.0000 0.95350  0.69440  0.05300  Biso   1.000  H
  H15      1.0000 0.95350  0.80560  0.55300  Biso   1.000  H
  H16      1.0000 0.04650  0.30560  0.94700  Biso   1.000  H
  C9       1.0000 0.85800  0.16680  0.48400  Biso   1.000  C
  C10      1.0000 0.14200  0.66680  0.01600  Biso   1.000  C
  C11      1.0000 0.14200  0.83320  0.51600  Biso   1.000  C
  C12      1.0000 0.85800  0.33320  0.98400  Biso   1.000  C
  H17      1.0000 0.85340  0.06200  0.46620  Biso   1.000  H
  H18      1.0000 0.14660  0.56200  0.03380  Biso   1.000  H
  H19      1.0000 0.14660  0.93800  0.53380  Biso   1.000  H
  H20      1.0000 0.85340  0.43800  0.96620  Biso   1.000  H
  H21      1.0000 0.88050  0.16700  0.53860  Biso   1.000  H
  H22      1.0000 0.11950  0.66700  0.96140  Biso   1.000  H
  H23      1.0000 0.11950  0.83300  0.46140  Biso   1.000  H
  H24      1.0000 0.88050  0.33300  0.03860  Biso   1.000  H
  C13      1.0000 0.71700  0.25160  0.45043  Biso   1.000  C
  C14      1.0000 0.28300  0.75160  0.04957  Biso   1.000  C
  C15      1.0000 0.28300  0.74840  0.54957  Biso   1.000  C
  C16      1.0000 0.71700  0.24840  0.95043  Biso   1.000  C
  H25      1.0000 0.63330  0.18430  0.44720  Biso   1.000  H
  H26      1.0000 0.36670  0.68430  0.05280  Biso   1.000  H
  H27      1.0000 0.36670  0.81570  0.55280  Biso   1.000  H
  H28      1.0000 0.63330  0.31570  0.94720  Biso   1.000  H
  C17      1.0000 0.66800  0.18210  0.31522  Biso   1.000  C
  C18      1.0000 0.33200  0.68210  0.18478  Biso   1.000  C
  C19      1.0000 0.33200  0.81790  0.68478  Biso   1.000  C
  C20      1.0000 0.66800  0.31790  0.81522  Biso   1.000  C
  H29      1.0000 0.58580  0.13130  0.32710  Biso   1.000  H
  H30      1.0000 0.41420  0.63130  0.17290  Biso   1.000  H
  H31      1.0000 0.41420  0.86870  0.67290  Biso   1.000  H
  H32      1.0000 0.58580  0.36870  0.82710  Biso   1.000  H
  H33      1.0000 0.74180  0.10590  0.31470  Biso   1.000  H
  H34      1.0000 0.25820  0.60590  0.18530  Biso   1.000  H
  H35      1.0000 0.25820  0.89410  0.68530  Biso   1.000  H
  H36      1.0000 0.74180  0.39410  0.81470  Biso   1.000  H
  C21      1.0000 0.70000  0.39710  0.49101  Biso   1.000  C
  C22      1.0000 0.30000  0.89710  0.00899  Biso   1.000  C
  C23      1.0000 0.30000  0.60290  0.50899  Biso   1.000  C
  C24      1.0000 0.70000  0.10290  0.99101  Biso   1.000  C
  C25      1.0000 0.66000  0.64020  0.50629  Biso   1.000  C
  C26      1.0000 0.34000  0.14020  0.99371  Biso   1.000  C
  C27      1.0000 0.34000  0.35980  0.49371  Biso   1.000  C
  C28      1.0000 0.66000  0.85980  0.00629  Biso   1.000  C
  C29      1.0000 0.69510  0.56970  0.57768  Biso   1.000  C
  C30      1.0000 0.30490  0.06970  0.92232  Biso   1.000  C
  C31      1.0000 0.30490  0.43030  0.42232  Biso   1.000  C
  C32      1.0000 0.69510  0.93030  0.07768  Biso   1.000  C
  C33      1.0000 0.70580  0.65270  0.64395  Biso   1.000  C
  C34      1.0000 0.29420  0.15270  0.85605  Biso   1.000  C
  C35      1.0000 0.29420  0.34730  0.35605  Biso   1.000  C
  C36      1.0000 0.70580  0.84730  0.14395  Biso   1.000  C
  H37      1.0000 0.72770  0.60570  0.69090  Biso   1.000  H
  H38      1.0000 0.27230  0.10570  0.80910  Biso   1.000  H
  H39      1.0000 0.27230  0.39430  0.30910  Biso   1.000  H
  H40      1.0000 0.72770  0.89430  0.19090  Biso   1.000  H
  C37      1.0000 0.68220  0.80700  0.63590  Biso   1.000  C
  C38      1.0000 0.31780  0.30700  0.86410  Biso   1.000  C
  C39      1.0000 0.31780  0.19300  0.36410  Biso   1.000  C
  C40      1.0000 0.68220  0.69300  0.13590  Biso   1.000  C
  H41      1.0000 0.68950  0.86650  0.67870  Biso   1.000  H
  H42      1.0000 0.31050  0.36650  0.82130  Biso   1.000  H
  H43      1.0000 0.31050  0.13350  0.32130  Biso   1.000  H
  H44      1.0000 0.68950  0.63350  0.17870  Biso   1.000  H
  C41      1.0000 0.64710  0.87850  0.56500  Biso   1.000  C
  C42      1.0000 0.35290  0.37850  0.93500  Biso   1.000  C
  C43      1.0000 0.35290  0.12150  0.43500  Biso   1.000  C
  C44      1.0000 0.64710  0.62150  0.06500  Biso   1.000  C
  H45      1.0000 0.63190  0.98370  0.56210  Biso   1.000  H
  H46      1.0000 0.36810  0.48370  0.93790  Biso   1.000  H
  H47      1.0000 0.36810  0.01630  0.43790  Biso   1.000  H
  H48      1.0000 0.63190  0.51630  0.06210  Biso   1.000  H
  C45      1.0000 0.63470  0.79520  0.49880  Biso   1.000  C
  C46      1.0000 0.36530  0.29520  0.00120  Biso   1.000  C
  C47      1.0000 0.36530  0.20480  0.50120  Biso   1.000  C
  C48      1.0000 0.63470  0.70480  0.99880  Biso   1.000  C
  H49      1.0000 0.61040  0.84210  0.45180  Biso   1.000  H
  H50      1.0000 0.38960  0.34210  0.04820  Biso   1.000  H
  H51      1.0000 0.38960  0.15790  0.54820  Biso   1.000  H
  H52      1.0000 0.61040  0.65790  0.95180  Biso   1.000  H
  N1       1.0000 0.72670  0.30070  0.37291  Biso   1.000  N
  N2       1.0000 0.27330  0.80070  0.12709  Biso   1.000  N
  N3       1.0000 0.27330  0.69930  0.62709  Biso   1.000  N
  N4       1.0000 0.72670  0.19930  0.87291  Biso   1.000  N
  N5       1.0000 0.66350  0.52630  0.45260  Biso   1.000  N
  N6       1.0000 0.33650  0.02630  0.04740  Biso   1.000  N
  N7       1.0000 0.33650  0.47370  0.54740  Biso   1.000  N
  N8       1.0000 0.66350  0.97370  0.95260  Biso   1.000  N
  N9       1.0000 0.71930  0.41630  0.56566  Biso   1.000  N
  N10      1.0000 0.28070  0.91630  0.93434  Biso   1.000  N
  N11      1.0000 0.28070  0.58370  0.43434  Biso   1.000  N
  N12      1.0000 0.71930  0.08370  0.06566  Biso   1.000  N
  H53      1.0000 0.74240  0.34650  0.59960  Biso   1.000  H
  H54      1.0000 0.25760  0.84650  0.90040  Biso   1.000  H
  H55      1.0000 0.25760  0.65350  0.40040  Biso   1.000  H
  H56      1.0000 0.74240  0.15350  0.09960  Biso   1.000  H
  O1       1.0000 0.73330  0.27370  0.18320  Biso   1.000  O
  O2       1.0000 0.26670  0.77370  0.31680  Biso   1.000  O
  O3       1.0000 0.26670  0.72630  0.81680  Biso   1.000  O
  O4       1.0000 0.73330  0.22630  0.68320  Biso   1.000  O
  O5       1.0000 0.57060  0.43590  0.24208  Biso   1.000  O
  O6       1.0000 0.42940  0.93590  0.25792  Biso   1.000  O
  O7       1.0000 0.42940  0.56410  0.75792  Biso   1.000  O
  O8       1.0000 0.57060  0.06410  0.74208  Biso   1.000  O
  O9       1.0000 0.47690  0.19450  0.17664  Biso   1.000  O
  O10      1.0000 0.52310  0.69450  0.32336  Biso   1.000  O
  O11      1.0000 0.52310  0.80550  0.82336  Biso   1.000  O
  O12      1.0000 0.47690  0.30550  0.67664  Biso   1.000  O
  O13      1.0000 0.00060  0.79220  0.27820  Biso   1.000  O
  O14      1.0000 0.99940  0.29220  0.22180  Biso   1.000  O
  O15      1.0000 0.99940  0.20780  0.72180  Biso   1.000  O
  O16      1.0000 0.00060  0.70780  0.77820  Biso   1.000  O
  O17      1.0000 0.83860  0.77070  0.34480  Biso   1.000  O
  O18      1.0000 0.16140  0.27070  0.15520  Biso   1.000  O
  O19      1.0000 0.16140  0.22930  0.65520  Biso   1.000  O
  O20      1.0000 0.83860  0.72930  0.84480  Biso   1.000  O
  H57      1.0000 0.91290  0.43070  0.40190  Biso   1.000  H
  H58      1.0000 0.08710  0.93070  0.09810  Biso   1.000  H
  H59      1.0000 0.08710  0.56930  0.59810  Biso   1.000  H
  H60      1.0000 0.91290  0.06930  0.90190  Biso   1.000  H
  H61      1.0000 0.90990  0.32190  0.33280  Biso   1.000  H
  H62      1.0000 0.09010  0.82190  0.16720  Biso   1.000  H
  H63      1.0000 0.09010  0.67810  0.66720  Biso   1.000  H
  H64      1.0000 0.90990  0.17810  0.83280  Biso   1.000  H
  C49      1.0000 0.96370  0.20400  0.43560  Biso   1.000  C
  C50      1.0000 0.03630  0.70400  0.06440  Biso   1.000  C
  C51      1.0000 0.03630  0.79600  0.56440  Biso   1.000  C
  C52      1.0000 0.96370  0.29600  0.93560  Biso   1.000  C
  H65      1.0000 0.98180  0.11450  0.40800  Biso   1.000  H
  H66      1.0000 0.01820  0.61450  0.09200  Biso   1.000  H
  H67      1.0000 0.01820  0.88550  0.59200  Biso   1.000  H
  H68      1.0000 0.98180  0.38550  0.90800  Biso   1.000  H
  H69      1.0000 0.05530  0.24120  0.46650  Biso   1.000  H
  H70      1.0000 0.94470  0.74120  0.03350  Biso   1.000  H
  H71      1.0000 0.94470  0.75880  0.53350  Biso   1.000  H
  H72      1.0000 0.05530  0.25880  0.96650  Biso   1.000  H
  H73      1.0000 0.84050  0.05750  0.48390  Biso   1.000  H
  H74      1.0000 0.15950  0.55750  0.01610  Biso   1.000  H
  H75      1.0000 0.15950  0.94250  0.51610  Biso   1.000  H
  H76      1.0000 0.84050  0.44250  0.98390  Biso   1.000  H
  H77      1.0000 0.89820  0.19930  0.53560  Biso   1.000  H
  H78      1.0000 0.10180  0.69930  0.96440  Biso   1.000  H
  H79      1.0000 0.10180  0.80070  0.46440  Biso   1.000  H
  H80      1.0000 0.89820  0.30070  0.03560  Biso   1.000  H
  O21      1.0000 0.01600  0.98560  0.29800  Biso   1.000  O
  O22      1.0000 0.98400  0.48560  0.20200  Biso   1.000  O
  O23      1.0000 0.98400  0.01440  0.70200  Biso   1.000  O
  O24      1.0000 0.01600  0.51440  0.79800  Biso   1.000  O
  O25      1.0000 0.01690  0.59390  0.27030  Biso   1.000  O
  O26      1.0000 0.98310  0.09390  0.22970  Biso   1.000  O
  O27      1.0000 0.98310  0.40610  0.72970  Biso   1.000  O
  O28      1.0000 0.01690  0.90610  0.77030  Biso   1.000  O
  O29      1.0000 0.79500  0.71400  0.34830  Biso   1.000  O
  O30      1.0000 0.20500  0.21400  0.15170  Biso   1.000  O
  O31      1.0000 0.20500  0.28600  0.65170  Biso   1.000  O
  O32      1.0000 0.79500  0.78600  0.84830  Biso   1.000  O
