data_image0
_cell_length_a       5.4627
_cell_length_b       9.0931
_cell_length_c       27.2711
_cell_angle_alpha    90
_cell_angle_beta     90
_cell_angle_gamma    90

_symmetry_space_group_name_H-M    "P 1"
_symmetry_int_tables_number       1

loop_
  _symmetry_equiv_pos_as_xyz
  'x, y, z'

loop_
  _atom_site_label
  _atom_site_occupancy
  _atom_site_fract_x
  _atom_site_fract_y
  _atom_site_fract_z
  _atom_site_thermal_displace_type
  _atom_site_B_iso_or_equiv
  _atom_site_type_symbol
  Cu1      1.0000 0.96078  0.44902  0.29530  Biso   1.000  Cu
  Cu2      1.0000 0.46078  0.05098  0.70470  Biso   1.000  Cu
  Cu3      1.0000 0.03922  0.94902  0.20470  Biso   1.000  Cu
  Cu4      1.0000 0.53922  0.55098  0.79530  Biso   1.000  Cu
  O1       1.0000 0.28370  0.47430  0.35133  Biso   1.000  O
  O2       1.0000 0.78370  0.02570  0.64867  Biso   1.000  O
  O3       1.0000 0.71630  0.97430  0.14867  Biso   1.000  O
  O4       1.0000 0.21630  0.52570  0.85133  Biso   1.000  O
  O5       1.0000 0.97810  0.63110  0.25476  Biso   1.000  O
  O6       1.0000 0.47810  0.86890  0.74524  Biso   1.000  O
  O7       1.0000 0.02190  0.13110  0.24524  Biso   1.000  O
  O8       1.0000 0.52190  0.36890  0.75476  Biso   1.000  O
  O9       1.0000 0.78550  0.84650  0.24337  Biso   1.000  O
  O10      1.0000 0.28550  0.65350  0.75663  Biso   1.000  O
  O11      1.0000 0.21450  0.34650  0.25663  Biso   1.000  O
  O12      1.0000 0.71450  0.15350  0.74337  Biso   1.000  O
  N1       1.0000 0.86190  0.28130  0.33748  Biso   1.000  N
  N2       1.0000 0.36190  0.21870  0.66252  Biso   1.000  N
  N3       1.0000 0.13810  0.78130  0.16252  Biso   1.000  N
  N4       1.0000 0.63810  0.71870  0.83748  Biso   1.000  N
  H1       1.0000 0.84970  0.19790  0.31850  Biso   1.000  H
  H2       1.0000 0.34970  0.30210  0.68150  Biso   1.000  H
  H3       1.0000 0.15030  0.69790  0.18150  Biso   1.000  H
  H4       1.0000 0.65030  0.80210  0.81850  Biso   1.000  H
  H5       1.0000 0.98110  0.26520  0.36070  Biso   1.000  H
  H6       1.0000 0.48110  0.23480  0.63930  Biso   1.000  H
  H7       1.0000 0.01890  0.76520  0.13930  Biso   1.000  H
  H8       1.0000 0.51890  0.73480  0.86070  Biso   1.000  H
  N5       1.0000 0.65900  0.53170  0.31674  Biso   1.000  N
  N6       1.0000 0.15900  0.96830  0.68326  Biso   1.000  N
  N7       1.0000 0.34100  0.03170  0.18326  Biso   1.000  N
  N8       1.0000 0.84100  0.46830  0.81674  Biso   1.000  N
  C1       1.0000 0.62270  0.30780  0.36267  Biso   1.000  C
  C2       1.0000 0.12270  0.19220  0.63733  Biso   1.000  C
  C3       1.0000 0.37730  0.80780  0.13733  Biso   1.000  C
  C4       1.0000 0.87730  0.69220  0.86267  Biso   1.000  C
  H9       1.0000 0.51170  0.22380  0.35470  Biso   1.000  H
  H10      1.0000 0.01170  0.27620  0.64530  Biso   1.000  H
  H11      1.0000 0.48830  0.72380  0.14530  Biso   1.000  H
  H12      1.0000 0.98830  0.77620  0.85470  Biso   1.000  H
  C5       1.0000 0.50570  0.44870  0.34218  Biso   1.000  C
  C6       1.0000 0.00570  0.05130  0.65782  Biso   1.000  C
  C7       1.0000 0.49430  0.94870  0.15782  Biso   1.000  C
  C8       1.0000 0.99430  0.55130  0.84218  Biso   1.000  C
  C9       1.0000 0.65840  0.31070  0.41867  Biso   1.000  C
  C10      1.0000 0.15840  0.18930  0.58133  Biso   1.000  C
  C11      1.0000 0.34160  0.81070  0.08133  Biso   1.000  C
  C12      1.0000 0.84160  0.68930  0.91867  Biso   1.000  C
  H13      1.0000 0.76880  0.22680  0.42720  Biso   1.000  H
  H14      1.0000 0.26880  0.27320  0.57280  Biso   1.000  H
  H15      1.0000 0.23120  0.72680  0.07280  Biso   1.000  H
  H16      1.0000 0.73120  0.77320  0.92720  Biso   1.000  H
  C13      1.0000 0.42350  0.28910  0.44671  Biso   1.000  C
  C14      1.0000 0.92350  0.21090  0.55329  Biso   1.000  C
  C15      1.0000 0.57650  0.78910  0.05329  Biso   1.000  C
  C16      1.0000 0.07650  0.71090  0.94671  Biso   1.000  C
  H17      1.0000 0.31350  0.37220  0.44050  Biso   1.000  H
  H18      1.0000 0.81350  0.12780  0.55950  Biso   1.000  H
  H19      1.0000 0.68650  0.87220  0.05950  Biso   1.000  H
  H20      1.0000 0.18650  0.62780  0.94050  Biso   1.000  H
  H21      1.0000 0.45930  0.28330  0.48190  Biso   1.000  H
  H22      1.0000 0.95930  0.21670  0.51810  Biso   1.000  H
  H23      1.0000 0.54070  0.78330  0.01810  Biso   1.000  H
  H24      1.0000 0.04070  0.71670  0.98190  Biso   1.000  H
  H25      1.0000 0.34480  0.19770  0.43600  Biso   1.000  H
  H26      1.0000 0.84480  0.30230  0.56400  Biso   1.000  H
  H27      1.0000 0.65520  0.69770  0.06400  Biso   1.000  H
  H28      1.0000 0.15520  0.80230  0.93600  Biso   1.000  H
  C17      1.0000 0.78810  0.45330  0.43516  Biso   1.000  C
  C18      1.0000 0.28810  0.04670  0.56484  Biso   1.000  C
  C19      1.0000 0.21190  0.95330  0.06484  Biso   1.000  C
  C20      1.0000 0.71190  0.54670  0.93516  Biso   1.000  C
  H29      1.0000 0.67740  0.53710  0.43070  Biso   1.000  H
  H30      1.0000 0.17740  0.96290  0.56930  Biso   1.000  H
  H31      1.0000 0.32260  0.03710  0.06930  Biso   1.000  H
  H32      1.0000 0.82260  0.46290  0.93070  Biso   1.000  H
  H33      1.0000 0.93590  0.46820  0.41540  Biso   1.000  H
  H34      1.0000 0.43590  0.03180  0.58460  Biso   1.000  H
  H35      1.0000 0.06410  0.96820  0.08460  Biso   1.000  H
  H36      1.0000 0.56410  0.53180  0.91540  Biso   1.000  H
  H37      1.0000 0.83340  0.44520  0.46980  Biso   1.000  H
  H38      1.0000 0.33340  0.05480  0.53020  Biso   1.000  H
  H39      1.0000 0.16660  0.94520  0.03020  Biso   1.000  H
  H40      1.0000 0.66660  0.55480  0.96980  Biso   1.000  H
  C21      1.0000 0.57540  0.66300  0.29072  Biso   1.000  C
  C22      1.0000 0.07540  0.83700  0.70928  Biso   1.000  C
  C23      1.0000 0.42460  0.16300  0.20928  Biso   1.000  C
  C24      1.0000 0.92460  0.33700  0.79072  Biso   1.000  C
  H41      1.0000 0.44950  0.63000  0.26650  Biso   1.000  H
  H42      1.0000 0.94950  0.87000  0.73350  Biso   1.000  H
  H43      1.0000 0.55050  0.13000  0.23350  Biso   1.000  H
  H44      1.0000 0.05050  0.37000  0.76650  Biso   1.000  H
  C25      1.0000 0.79700  0.71660  0.26119  Biso   1.000  C
  C26      1.0000 0.29700  0.78340  0.73881  Biso   1.000  C
  C27      1.0000 0.20300  0.21660  0.23881  Biso   1.000  C
  C28      1.0000 0.70300  0.28340  0.76119  Biso   1.000  C
  C29      1.0000 0.45600  0.78460  0.32216  Biso   1.000  C
  C30      1.0000 0.95600  0.71540  0.67784  Biso   1.000  C
  C31      1.0000 0.54400  0.28460  0.17784  Biso   1.000  C
  C32      1.0000 0.04400  0.21540  0.82216  Biso   1.000  C
  H45      1.0000 0.42840  0.87190  0.30120  Biso   1.000  H
  H46      1.0000 0.92840  0.62810  0.69880  Biso   1.000  H
  H47      1.0000 0.57160  0.37190  0.19880  Biso   1.000  H
  H48      1.0000 0.07160  0.12810  0.80120  Biso   1.000  H
  H49      1.0000 0.29380  0.74950  0.33340  Biso   1.000  H
  H50      1.0000 0.79380  0.75050  0.66660  Biso   1.000  H
  H51      1.0000 0.70620  0.24950  0.16660  Biso   1.000  H
  H52      1.0000 0.20620  0.25050  0.83340  Biso   1.000  H
  C33      1.0000 0.60250  0.83140  0.36654  Biso   1.000  C
  C34      1.0000 0.10250  0.66860  0.63346  Biso   1.000  C
  C35      1.0000 0.39750  0.33140  0.13346  Biso   1.000  C
  C36      1.0000 0.89750  0.16860  0.86654  Biso   1.000  C
  C37      1.0000 0.51800  0.80270  0.41364  Biso   1.000  C
  C38      1.0000 0.01800  0.69730  0.58636  Biso   1.000  C
  C39      1.0000 0.48200  0.30270  0.08636  Biso   1.000  C
  C40      1.0000 0.98200  0.19730  0.91364  Biso   1.000  C
  H53      1.0000 0.36850  0.75100  0.41790  Biso   1.000  H
  H54      1.0000 0.86850  0.74900  0.58210  Biso   1.000  H
  H55      1.0000 0.63150  0.25100  0.08210  Biso   1.000  H
  H56      1.0000 0.13150  0.24900  0.91790  Biso   1.000  H
  C41      1.0000 0.64850  0.84840  0.45443  Biso   1.000  C
  C42      1.0000 0.14850  0.65160  0.54557  Biso   1.000  C
  C43      1.0000 0.35150  0.34840  0.04557  Biso   1.000  C
  C44      1.0000 0.85150  0.15160  0.95443  Biso   1.000  C
  H57      1.0000 0.58600  0.83010  0.48640  Biso   1.000  H
  H58      1.0000 0.08600  0.66990  0.51360  Biso   1.000  H
  H59      1.0000 0.41400  0.33010  0.01360  Biso   1.000  H
  H60      1.0000 0.91400  0.16990  0.98640  Biso   1.000  H
  C45      1.0000 0.86930  0.92050  0.44883  Biso   1.000  C
  C46      1.0000 0.36930  0.57950  0.55117  Biso   1.000  C
  C47      1.0000 0.13070  0.42050  0.05117  Biso   1.000  C
  C48      1.0000 0.63070  0.07950  0.94883  Biso   1.000  C
  H61      1.0000 0.96060  0.94980  0.47680  Biso   1.000  H
  H62      1.0000 0.46060  0.55020  0.52320  Biso   1.000  H
  H63      1.0000 0.03940  0.44980  0.02320  Biso   1.000  H
  H64      1.0000 0.53940  0.05020  0.97680  Biso   1.000  H
  C49      1.0000 0.95650  0.94970  0.40229  Biso   1.000  C
  C50      1.0000 0.45650  0.55030  0.59771  Biso   1.000  C
  C51      1.0000 0.04350  0.44970  0.09771  Biso   1.000  C
  C52      1.0000 0.54350  0.05030  0.90229  Biso   1.000  C
  H65      1.0000 0.10780  0.99990  0.39840  Biso   1.000  H
  H66      1.0000 0.60780  0.50010  0.60160  Biso   1.000  H
  H67      1.0000 0.89220  0.49990  0.10160  Biso   1.000  H
  H68      1.0000 0.39220  0.00010  0.89840  Biso   1.000  H
  C53      1.0000 0.82600  0.90660  0.36148  Biso   1.000  C
  C54      1.0000 0.32600  0.59340  0.63852  Biso   1.000  C
  C55      1.0000 0.17400  0.40660  0.13852  Biso   1.000  C
  C56      1.0000 0.67400  0.09340  0.86148  Biso   1.000  C
  H69      1.0000 0.88760  0.92780  0.32970  Biso   1.000  H
  H70      1.0000 0.38760  0.57220  0.67030  Biso   1.000  H
  H71      1.0000 0.11240  0.42780  0.17030  Biso   1.000  H
  H72      1.0000 0.61240  0.07220  0.82970  Biso   1.000  H
