data_image0
_cell_length_a       5.5355
_cell_length_b       8.9581
_cell_length_c       16.0027
_cell_angle_alpha    90
_cell_angle_beta     92.687
_cell_angle_gamma    90

_symmetry_space_group_name_H-M    "P 1"
_symmetry_int_tables_number       1

loop_
  _symmetry_equiv_pos_as_xyz
  'x, y, z'

loop_
  _atom_site_label
  _atom_site_occupancy
  _atom_site_fract_x
  _atom_site_fract_y
  _atom_site_fract_z
  _atom_site_thermal_displace_type
  _atom_site_B_iso_or_equiv
  _atom_site_type_symbol
  Cu1      1.0000 0.94926  0.36591  0.91390  Biso   1.000  Cu
  Cu2      1.0000 0.05074  0.86591  0.08610  Biso   1.000  Cu
  O1       1.0000 0.79540  0.97980  0.02577  Biso   1.000  O
  O2       1.0000 0.20460  0.47980  0.97423  Biso   1.000  O
  O3       1.0000 0.98450  0.19040  0.99060  Biso   1.000  O
  O4       1.0000 0.01550  0.69040  0.00940  Biso   1.000  O
  O5       1.0000 0.26080  0.32010  0.82401  Biso   1.000  O
  O6       1.0000 0.73920  0.82010  0.17599  Biso   1.000  O
  N1       1.0000 0.63990  0.27840  0.88603  Biso   1.000  N
  N2       1.0000 0.36010  0.77840  0.11397  Biso   1.000  N
  N3       1.0000 0.84100  0.50800  0.82220  Biso   1.000  N
  N4       1.0000 0.15900  0.00800  0.17780  Biso   1.000  N
  H1       1.0000 0.89410  0.60280  0.83520  Biso   1.000  H
  H2       1.0000 0.10590  0.10280  0.16480  Biso   1.000  H
  H3       1.0000 0.90640  0.47990  0.77280  Biso   1.000  H
  H4       1.0000 0.09360  0.97990  0.22720  Biso   1.000  H
  C1       1.0000 0.80420  0.10280  0.98690  Biso   1.000  C
  C2       1.0000 0.19580  0.60280  0.01310  Biso   1.000  C
  C3       1.0000 0.57750  0.14490  0.93250  Biso   1.000  C
  C4       1.0000 0.42250  0.64490  0.06750  Biso   1.000  C
  H5       1.0000 0.44720  0.17250  0.97090  Biso   1.000  H
  H6       1.0000 0.55280  0.67250  0.02910  Biso   1.000  H
  C5       1.0000 0.48510  0.01380  0.87840  Biso   1.000  C
  C6       1.0000 0.51490  0.51380  0.12160  Biso   1.000  C
  H7       1.0000 0.46000  0.92660  0.91500  Biso   1.000  H
  H8       1.0000 0.54000  0.42660  0.08500  Biso   1.000  H
  H9       1.0000 0.32660  0.04090  0.85150  Biso   1.000  H
  H10      1.0000 0.67340  0.54090  0.14850  Biso   1.000  H
  C7       1.0000 0.65630  0.96970  0.81100  Biso   1.000  C
  C8       1.0000 0.34370  0.46970  0.18900  Biso   1.000  C
  C9       1.0000 0.86440  0.88630  0.83080  Biso   1.000  C
  C10      1.0000 0.13560  0.38630  0.16920  Biso   1.000  C
  H11      1.0000 0.89570  0.85230  0.88640  Biso   1.000  H
  H12      1.0000 0.10430  0.35230  0.11360  Biso   1.000  H
  C11      1.0000 0.02560  0.85280  0.76960  Biso   1.000  C
  C12      1.0000 0.97440  0.35280  0.23040  Biso   1.000  C
  H13      1.0000 0.17120  0.80110  0.78430  Biso   1.000  H
  H14      1.0000 0.82880  0.30110  0.21570  Biso   1.000  H
  C13      1.0000 0.97610  0.89410  0.68770  Biso   1.000  C
  C14      1.0000 0.02390  0.39410  0.31230  Biso   1.000  C
  H15      1.0000 0.08350  0.86720  0.64560  Biso   1.000  H
  H16      1.0000 0.91650  0.36720  0.35440  Biso   1.000  H
  C15      1.0000 0.76870  0.97520  0.66710  Biso   1.000  C
  C16      1.0000 0.23130  0.47520  0.33290  Biso   1.000  C
  H17      1.0000 0.73590  0.00570  0.61090  Biso   1.000  H
  H18      1.0000 0.26410  0.50570  0.38910  Biso   1.000  H
  C17      1.0000 0.60770  0.01240  0.72820  Biso   1.000  C
  C18      1.0000 0.39230  0.51240  0.27180  Biso   1.000  C
  H19      1.0000 0.46480  0.06700  0.71340  Biso   1.000  H
  H20      1.0000 0.53520  0.56700  0.28660  Biso   1.000  H
  C19      1.0000 0.47760  0.35360  0.84103  Biso   1.000  C
  C20      1.0000 0.52240  0.85360  0.15897  Biso   1.000  C
  C21      1.0000 0.57340  0.50690  0.81230  Biso   1.000  C
  C22      1.0000 0.42660  0.00690  0.18770  Biso   1.000  C
  H21      1.0000 0.51490  0.58210  0.85280  Biso   1.000  H
  H22      1.0000 0.48510  0.08210  0.14720  Biso   1.000  H
  C23      1.0000 0.47580  0.55740  0.72550  Biso   1.000  C
  C24      1.0000 0.52420  0.05740  0.27450  Biso   1.000  C
  H23      1.0000 0.29720  0.56130  0.72600  Biso   1.000  H
  H24      1.0000 0.70280  0.06130  0.27400  Biso   1.000  H
  H25      1.0000 0.53360  0.66030  0.71590  Biso   1.000  H
  H26      1.0000 0.46640  0.16030  0.28410  Biso   1.000  H
  C25      1.0000 0.54440  0.46160  0.65210  Biso   1.000  C
  C26      1.0000 0.45560  0.96160  0.34790  Biso   1.000  C
  C27      1.0000 0.39800  0.34490  0.62510  Biso   1.000  C
  C28      1.0000 0.60200  0.84490  0.37490  Biso   1.000  C
  H27      1.0000 0.25700  0.32240  0.65420  Biso   1.000  H
  H28      1.0000 0.74300  0.82240  0.34580  Biso   1.000  H
  C29      1.0000 0.45300  0.26000  0.55610  Biso   1.000  C
  C30      1.0000 0.54700  0.76000  0.44390  Biso   1.000  C
  H29      1.0000 0.34830  0.18130  0.53790  Biso   1.000  H
  H30      1.0000 0.65170  0.68130  0.46210  Biso   1.000  H
  C31      1.0000 0.66050  0.28940  0.51350  Biso   1.000  C
  C32      1.0000 0.33950  0.78940  0.48650  Biso   1.000  C
  H31      1.0000 0.69880  0.23160  0.46610  Biso   1.000  H
  H32      1.0000 0.30120  0.73160  0.53390  Biso   1.000  H
  C33      1.0000 0.81080  0.40470  0.54120  Biso   1.000  C
  C34      1.0000 0.18920  0.90470  0.45880  Biso   1.000  C
  H33      1.0000 0.95360  0.42560  0.51270  Biso   1.000  H
  H34      1.0000 0.04640  0.92560  0.48730  Biso   1.000  H
  C35      1.0000 0.75570  0.48970  0.60990  Biso   1.000  C
  C36      1.0000 0.24430  0.98970  0.39010  Biso   1.000  C
  H35      1.0000 0.86160  0.56750  0.62860  Biso   1.000  H
  H36      1.0000 0.13840  0.06750  0.37140  Biso   1.000  H
