data_image0
_cell_length_a       7.376
_cell_length_b       8.719
_cell_length_c       9.581
_cell_angle_alpha    81.683
_cell_angle_beta     74.957
_cell_angle_gamma    81.811

_symmetry_space_group_name_H-M    "P 1"
_symmetry_int_tables_number       1

loop_
  _symmetry_equiv_pos_as_xyz
  'x, y, z'

loop_
  _atom_site_label
  _atom_site_occupancy
  _atom_site_fract_x
  _atom_site_fract_y
  _atom_site_fract_z
  _atom_site_thermal_displace_type
  _atom_site_B_iso_or_equiv
  _atom_site_type_symbol
  Cu1      1.0000 0.00000  0.50000  0.00000  Biso   1.000  Cu
  O1       1.0000 0.87090  0.26060  0.00990  Biso   1.000  O
  O2       1.0000 0.12910  0.73940  0.99010  Biso   1.000  O
  O3       1.0000 0.93910  0.09850  0.85290  Biso   1.000  O
  O4       1.0000 0.06090  0.90150  0.14710  Biso   1.000  O
  O5       1.0000 0.68540  0.09300  0.01730  Biso   1.000  O
  O6       1.0000 0.31460  0.90700  0.98270  Biso   1.000  O
  N1       1.0000 0.75110  0.57970  0.12408  Biso   1.000  N
  N2       1.0000 0.24890  0.42030  0.87592  Biso   1.000  N
  N3       1.0000 0.53040  0.70530  0.27384  Biso   1.000  N
  N4       1.0000 0.46960  0.29470  0.72616  Biso   1.000  N
  N5       1.0000 0.45950  0.57310  0.26540  Biso   1.000  N
  N6       1.0000 0.54050  0.42690  0.73460  Biso   1.000  N
  N7       1.0000 0.18220  0.21350  0.32881  Biso   1.000  N
  N8       1.0000 0.81780  0.78650  0.67119  Biso   1.000  N
  N9       1.0000 0.12080  0.33850  0.40610  Biso   1.000  N
  N10      1.0000 0.87920  0.66150  0.59390  Biso   1.000  N
  N11      1.0000 0.08060  0.39560  0.17971  Biso   1.000  N
  N12      1.0000 0.91940  0.60440  0.82029  Biso   1.000  N
  N13      1.0000 0.82870  0.15280  0.95880  Biso   1.000  N
  N14      1.0000 0.17130  0.84720  0.04120  Biso   1.000  N
  C1       1.0000 0.59780  0.50190  0.17300  Biso   1.000  C
  C2       1.0000 0.40220  0.49810  0.82700  Biso   1.000  C
  H1       1.0000 0.59060  0.40620  0.14380  Biso   1.000  H
  H2       1.0000 0.40940  0.59380  0.85620  Biso   1.000  H
  C3       1.0000 0.70310  0.70840  0.18920  Biso   1.000  C
  C4       1.0000 0.29690  0.29160  0.81080  Biso   1.000  C
  H3       1.0000 0.77880  0.78830  0.17740  Biso   1.000  H
  H4       1.0000 0.22120  0.21170  0.82260  Biso   1.000  H
  C5       1.0000 0.41970  0.81810  0.36610  Biso   1.000  C
  C6       1.0000 0.58030  0.18190  0.63390  Biso   1.000  C
  C7       1.0000 0.37310  0.77760  0.51480  Biso   1.000  C
  C8       1.0000 0.62690  0.22240  0.48520  Biso   1.000  C
  H5       1.0000 0.41350  0.67910  0.55490  Biso   1.000  H
  H6       1.0000 0.58650  0.32090  0.44510  Biso   1.000  H
  C9       1.0000 0.26520  0.88620  0.60280  Biso   1.000  C
  C10      1.0000 0.73480  0.11380  0.39720  Biso   1.000  C
  H7       1.0000 0.23520  0.86170  0.70330  Biso   1.000  H
  H8       1.0000 0.76480  0.13830  0.29670  Biso   1.000  H
  C11      1.0000 0.20170  0.03100  0.54240  Biso   1.000  C
  C12      1.0000 0.79830  0.96900  0.45760  Biso   1.000  C
  H9       1.0000 0.12620  0.10320  0.60130  Biso   1.000  H
  H10      1.0000 0.87380  0.89680  0.39870  Biso   1.000  H
  C13      1.0000 0.25220  0.06690  0.39310  Biso   1.000  C
  C14      1.0000 0.74780  0.93310  0.60690  Biso   1.000  C
  C15      1.0000 0.36370  0.96220  0.30240  Biso   1.000  C
  C16      1.0000 0.63630  0.03780  0.69760  Biso   1.000  C
  H11      1.0000 0.39940  0.98830  0.20220  Biso   1.000  H
  H12      1.0000 0.60060  0.01170  0.79780  Biso   1.000  H
  C17      1.0000 0.15630  0.24910  0.19550  Biso   1.000  C
  C18      1.0000 0.84370  0.75090  0.80450  Biso   1.000  C
  H13      1.0000 0.18680  0.18150  0.12410  Biso   1.000  H
  H14      1.0000 0.81320  0.81850  0.87590  Biso   1.000  H
  C19      1.0000 0.06220  0.44430  0.31170  Biso   1.000  C
  C20      1.0000 0.93780  0.55570  0.68830  Biso   1.000  C
  H15      1.0000 0.01210  0.54470  0.33290  Biso   1.000  H
  H16      1.0000 0.98790  0.45530  0.66710  Biso   1.000  H
