data_image0
_cell_length_a       8.6919
_cell_length_b       15.754
_cell_length_c       16.664
_cell_angle_alpha    90
_cell_angle_beta     90
_cell_angle_gamma    90

_symmetry_space_group_name_H-M    "P 1"
_symmetry_int_tables_number       1

loop_
  _symmetry_equiv_pos_as_xyz
  'x, y, z'

loop_
  _atom_site_label
  _atom_site_occupancy
  _atom_site_fract_x
  _atom_site_fract_y
  _atom_site_fract_z
  _atom_site_thermal_displace_type
  _atom_site_B_iso_or_equiv
  _atom_site_type_symbol
  Cu1      1.0000 0.22169  0.45706  0.04572  Biso   1.000  Cu
  Cu2      1.0000 0.27831  0.54294  0.54572  Biso   1.000  Cu
  Cu3      1.0000 0.77831  0.95706  0.45428  Biso   1.000  Cu
  Cu4      1.0000 0.72169  0.04294  0.95428  Biso   1.000  Cu
  O1       1.0000 0.42140  0.46670  0.09829  Biso   1.000  O
  O2       1.0000 0.07860  0.53330  0.59829  Biso   1.000  O
  O3       1.0000 0.57860  0.96670  0.40171  Biso   1.000  O
  O4       1.0000 0.92140  0.03330  0.90171  Biso   1.000  O
  N1       1.0000 0.26430  0.57990  0.96906  Biso   1.000  N
  N2       1.0000 0.23570  0.42010  0.46906  Biso   1.000  N
  N3       1.0000 0.73570  0.07990  0.53094  Biso   1.000  N
  N4       1.0000 0.76430  0.92010  0.03094  Biso   1.000  N
  N5       1.0000 0.22430  0.65840  0.85940  Biso   1.000  N
  N6       1.0000 0.27570  0.34160  0.35940  Biso   1.000  N
  N7       1.0000 0.77570  0.15840  0.64060  Biso   1.000  N
  N8       1.0000 0.72430  0.84160  0.14060  Biso   1.000  N
  N9       1.0000 0.98190  0.94520  0.50350  Biso   1.000  N
  N10      1.0000 0.51810  0.05480  0.00350  Biso   1.000  N
  N11      1.0000 0.01810  0.44520  0.99650  Biso   1.000  N
  N12      1.0000 0.48190  0.55480  0.49650  Biso   1.000  N
  O5       1.0000 0.11680  0.49865  0.14316  Biso   1.000  O
  O6       1.0000 0.38320  0.50135  0.64316  Biso   1.000  O
  O7       1.0000 0.88320  0.99865  0.35684  Biso   1.000  O
  O8       1.0000 0.61680  0.00135  0.85684  Biso   1.000  O
  C1       1.0000 0.92740  0.83490  0.60470  Biso   1.000  C
  C2       1.0000 0.57260  0.16510  0.10470  Biso   1.000  C
  C3       1.0000 0.07260  0.33490  0.89530  Biso   1.000  C
  C4       1.0000 0.42740  0.66510  0.39530  Biso   1.000  C
  C5       1.0000 0.77510  0.81850  0.58210  Biso   1.000  C
  C6       1.0000 0.72490  0.18150  0.08210  Biso   1.000  C
  C7       1.0000 0.22490  0.31850  0.91790  Biso   1.000  C
  C8       1.0000 0.27510  0.68150  0.41790  Biso   1.000  C
  C9       1.0000 0.21500  0.70350  0.72010  Biso   1.000  C
  C10      1.0000 0.28500  0.29650  0.22010  Biso   1.000  C
  C11      1.0000 0.78500  0.20350  0.77990  Biso   1.000  C
  C12      1.0000 0.71500  0.79650  0.27990  Biso   1.000  C
  H1       1.0000 0.31190  0.67990  0.71210  Biso   1.000  H
  H2       1.0000 0.18810  0.32010  0.21210  Biso   1.000  H
  H3       1.0000 0.68810  0.17990  0.78790  Biso   1.000  H
  H4       1.0000 0.81190  0.82010  0.28790  Biso   1.000  H
  N13      1.0000 0.69390  0.86850  0.52763  Biso   1.000  N
  N14      1.0000 0.80610  0.13150  0.02763  Biso   1.000  N
  N15      1.0000 0.30610  0.36850  0.97237  Biso   1.000  N
  N16      1.0000 0.19390  0.63150  0.47237  Biso   1.000  N
  C13      1.0000 0.39090  0.63320  0.95720  Biso   1.000  C
  C14      1.0000 0.10910  0.36680  0.45720  Biso   1.000  C
  C15      1.0000 0.60910  0.13320  0.54280  Biso   1.000  C
  C16      1.0000 0.89090  0.86680  0.04280  Biso   1.000  C
  C17      1.0000 0.14350  0.69730  0.79400  Biso   1.000  C
  C18      1.0000 0.35650  0.30270  0.29400  Biso   1.000  C
  C19      1.0000 0.85650  0.19730  0.70600  Biso   1.000  C
  C20      1.0000 0.64350  0.80270  0.20600  Biso   1.000  C
  C21      1.0000 0.17080  0.59800  0.91060  Biso   1.000  C
  C22      1.0000 0.32920  0.40200  0.41060  Biso   1.000  C
  C23      1.0000 0.82920  0.09800  0.58940  Biso   1.000  C
  C24      1.0000 0.67080  0.90200  0.08940  Biso   1.000  C
  H5       1.0000 0.07570  0.57180  0.90430  Biso   1.000  H
  H6       1.0000 0.42430  0.42820  0.40430  Biso   1.000  H
  H7       1.0000 0.92430  0.07180  0.59570  Biso   1.000  H
  H8       1.0000 0.57570  0.92820  0.09570  Biso   1.000  H
  C25      1.0000 0.52170  0.64560  0.00440  Biso   1.000  C
  C26      1.0000 0.97830  0.35440  0.50440  Biso   1.000  C
  C27      1.0000 0.47830  0.14560  0.49560  Biso   1.000  C
  C28      1.0000 0.02170  0.85440  0.99560  Biso   1.000  C
  H9       1.0000 0.53840  0.61390  0.05070  Biso   1.000  H
  H10      1.0000 0.96160  0.38610  0.55070  Biso   1.000  H
  H11      1.0000 0.46160  0.11390  0.44930  Biso   1.000  H
  H12      1.0000 0.03840  0.88610  0.94930  Biso   1.000  H
  C29      1.0000 0.33570  0.51410  0.22590  Biso   1.000  C
  C30      1.0000 0.16430  0.48590  0.72590  Biso   1.000  C
  C31      1.0000 0.66430  0.01410  0.27410  Biso   1.000  C
  C32      1.0000 0.83570  0.98590  0.77410  Biso   1.000  C
  H13      1.0000 0.36860  0.52920  0.27710  Biso   1.000  H
  H14      1.0000 0.13140  0.47080  0.77710  Biso   1.000  H
  H15      1.0000 0.63140  0.02920  0.22290  Biso   1.000  H
  H16      1.0000 0.86860  0.97080  0.72290  Biso   1.000  H
  C33      1.0000 0.99830  0.73110  0.80620  Biso   1.000  C
  C34      1.0000 0.50170  0.26890  0.30620  Biso   1.000  C
  C35      1.0000 0.00170  0.23110  0.69380  Biso   1.000  C
  C36      1.0000 0.49830  0.76890  0.19380  Biso   1.000  C
  H17      1.0000 0.95030  0.72570  0.85580  Biso   1.000  H
  H18      1.0000 0.54970  0.27430  0.35580  Biso   1.000  H
  H19      1.0000 0.04970  0.22570  0.64420  Biso   1.000  H
  H20      1.0000 0.45030  0.77430  0.14420  Biso   1.000  H
  C37      1.0000 0.22140  0.98400  0.54340  Biso   1.000  C
  C38      1.0000 0.27860  0.01600  0.04340  Biso   1.000  C
  C39      1.0000 0.77860  0.48400  0.95660  Biso   1.000  C
  C40      1.0000 0.72140  0.51600  0.45660  Biso   1.000  C
  H21      1.0000 0.31530  0.01230  0.54470  Biso   1.000  H
  H22      1.0000 0.18470  0.98770  0.04470  Biso   1.000  H
  H23      1.0000 0.68470  0.51230  0.95530  Biso   1.000  H
  H24      1.0000 0.81530  0.48770  0.45530  Biso   1.000  H
  C41      1.0000 0.02230  0.89780  0.57020  Biso   1.000  C
  C42      1.0000 0.47770  0.10220  0.07020  Biso   1.000  C
  C43      1.0000 0.97770  0.39780  0.92980  Biso   1.000  C
  C44      1.0000 0.52230  0.60220  0.42980  Biso   1.000  C
  C45      1.0000 0.36730  0.68280  0.88850  Biso   1.000  C
  C46      1.0000 0.13270  0.31720  0.38850  Biso   1.000  C
  C47      1.0000 0.63270  0.18280  0.61150  Biso   1.000  C
  C48      1.0000 0.86730  0.81720  0.11150  Biso   1.000  C
  C49      1.0000 0.10190  0.99610  0.48720  Biso   1.000  C
  C50      1.0000 0.39810  0.00390  0.98720  Biso   1.000  C
  C51      1.0000 0.89810  0.49610  0.01280  Biso   1.000  C
  C52      1.0000 0.60190  0.50390  0.51280  Biso   1.000  C
  H25      1.0000 0.10580  0.03420  0.44460  Biso   1.000  H
  H26      1.0000 0.39420  0.96580  0.94460  Biso   1.000  H
  H27      1.0000 0.89420  0.53420  0.05540  Biso   1.000  H
  H28      1.0000 0.60580  0.46580  0.55540  Biso   1.000  H
  C53      1.0000 0.67740  0.75130  0.60860  Biso   1.000  C
  C54      1.0000 0.82260  0.24870  0.10860  Biso   1.000  C
  C55      1.0000 0.32260  0.25130  0.89140  Biso   1.000  C
  C56      1.0000 0.17740  0.74870  0.39140  Biso   1.000  C
  H29      1.0000 0.70310  0.70830  0.64450  Biso   1.000  H
  H30      1.0000 0.79690  0.29170  0.14450  Biso   1.000  H
  H31      1.0000 0.29690  0.20830  0.85550  Biso   1.000  H
  H32      1.0000 0.20310  0.79170  0.35550  Biso   1.000  H
  C57      1.0000 0.14160  0.74480  0.65860  Biso   1.000  C
  C58      1.0000 0.35840  0.25520  0.15860  Biso   1.000  C
  C59      1.0000 0.85840  0.24480  0.84140  Biso   1.000  C
  C60      1.0000 0.64160  0.75520  0.34140  Biso   1.000  C
  H33      1.0000 0.18880  0.74800  0.60860  Biso   1.000  H
  H34      1.0000 0.31120  0.25200  0.10860  Biso   1.000  H
  H35      1.0000 0.81120  0.24800  0.89140  Biso   1.000  H
  H36      1.0000 0.68880  0.75200  0.39140  Biso   1.000  H
  C61      1.0000 0.55230  0.83500  0.52250  Biso   1.000  C
  C62      1.0000 0.94770  0.16500  0.02250  Biso   1.000  C
  C63      1.0000 0.44770  0.33500  0.97750  Biso   1.000  C
  C64      1.0000 0.05230  0.66500  0.47750  Biso   1.000  C
  H37      1.0000 0.47330  0.85680  0.49110  Biso   1.000  H
  H38      1.0000 0.02670  0.14320  0.99110  Biso   1.000  H
  H39      1.0000 0.52670  0.35680  0.00890  Biso   1.000  H
  H40      1.0000 0.97330  0.64320  0.50890  Biso   1.000  H
  C65      1.0000 0.53940  0.76210  0.57130  Biso   1.000  C
  C66      1.0000 0.96060  0.23790  0.07130  Biso   1.000  C
  C67      1.0000 0.46060  0.26210  0.92870  Biso   1.000  C
  C68      1.0000 0.03940  0.73790  0.42870  Biso   1.000  C
  H41      1.0000 0.45280  0.72790  0.57700  Biso   1.000  H
  H42      1.0000 0.04720  0.27210  0.07700  Biso   1.000  H
  H43      1.0000 0.54720  0.22790  0.92300  Biso   1.000  H
  H44      1.0000 0.95280  0.77210  0.42300  Biso   1.000  H
  C69      1.0000 0.06780  0.53810  0.27770  Biso   1.000  C
  C70      1.0000 0.43220  0.46190  0.77770  Biso   1.000  C
  C71      1.0000 0.93220  0.03810  0.22230  Biso   1.000  C
  C72      1.0000 0.56780  0.96190  0.72230  Biso   1.000  C
  H45      1.0000 0.01280  0.58910  0.26470  Biso   1.000  H
  H46      1.0000 0.48720  0.41090  0.76470  Biso   1.000  H
  H47      1.0000 0.98720  0.08910  0.23530  Biso   1.000  H
  H48      1.0000 0.51280  0.91090  0.73530  Biso   1.000  H
  H49      1.0000 0.12420  0.54620  0.32660  Biso   1.000  H
  H50      1.0000 0.37580  0.45380  0.82660  Biso   1.000  H
  H51      1.0000 0.87580  0.04620  0.17340  Biso   1.000  H
  H52      1.0000 0.62420  0.95380  0.67340  Biso   1.000  H
  H53      1.0000 0.99630  0.49220  0.28440  Biso   1.000  H
  H54      1.0000 0.50370  0.50780  0.78440  Biso   1.000  H
  H55      1.0000 0.00370  0.99220  0.21560  Biso   1.000  H
  H56      1.0000 0.49630  0.00780  0.71560  Biso   1.000  H
  C73      1.0000 0.17260  0.92300  0.59520  Biso   1.000  C
  C74      1.0000 0.32740  0.07700  0.09520  Biso   1.000  C
  C75      1.0000 0.82740  0.42300  0.90480  Biso   1.000  C
  C76      1.0000 0.67260  0.57700  0.40480  Biso   1.000  C
  H57      1.0000 0.22710  0.90160  0.63880  Biso   1.000  H
  H58      1.0000 0.27290  0.09840  0.13880  Biso   1.000  H
  H59      1.0000 0.77290  0.40160  0.86120  Biso   1.000  H
  H60      1.0000 0.72710  0.59840  0.36120  Biso   1.000  H
  C77      1.0000 0.17920  0.51690  0.21020  Biso   1.000  C
  C78      1.0000 0.32080  0.48310  0.71020  Biso   1.000  C
  C79      1.0000 0.82080  0.01690  0.28980  Biso   1.000  C
  C80      1.0000 0.67920  0.98310  0.78980  Biso   1.000  C
  C81      1.0000 0.46990  0.74580  0.86460  Biso   1.000  C
  C82      1.0000 0.03010  0.25420  0.36460  Biso   1.000  C
  C83      1.0000 0.53010  0.24580  0.63540  Biso   1.000  C
  C84      1.0000 0.96990  0.75420  0.13540  Biso   1.000  C
  H61      1.0000 0.45190  0.77900  0.81950  Biso   1.000  H
  H62      1.0000 0.04810  0.22100  0.31950  Biso   1.000  H
  H63      1.0000 0.54810  0.27900  0.68050  Biso   1.000  H
  H64      1.0000 0.95190  0.72100  0.18050  Biso   1.000  H
  C85      1.0000 0.44670  0.49010  0.17030  Biso   1.000  C
  C86      1.0000 0.05330  0.50990  0.67030  Biso   1.000  C
  C87      1.0000 0.55330  0.99010  0.32970  Biso   1.000  C
  C88      1.0000 0.94670  0.00990  0.82970  Biso   1.000  C
  C89      1.0000 0.99790  0.78210  0.66950  Biso   1.000  C
  C90      1.0000 0.50210  0.21790  0.16950  Biso   1.000  C
  C91      1.0000 0.00210  0.28210  0.83050  Biso   1.000  C
  C92      1.0000 0.49790  0.71790  0.33050  Biso   1.000  C
  C93      1.0000 0.59990  0.75640  0.91140  Biso   1.000  C
  C94      1.0000 0.90010  0.24360  0.41140  Biso   1.000  C
  C95      1.0000 0.40010  0.25640  0.58860  Biso   1.000  C
  C96      1.0000 0.09990  0.74360  0.08860  Biso   1.000  C
  H65      1.0000 0.67180  0.79750  0.89720  Biso   1.000  H
  H66      1.0000 0.82820  0.20250  0.39720  Biso   1.000  H
  H67      1.0000 0.32820  0.29750  0.60280  Biso   1.000  H
  H68      1.0000 0.17180  0.70250  0.10280  Biso   1.000  H
  C97      1.0000 0.61540  0.48860  0.19510  Biso   1.000  C
  C98      1.0000 0.88460  0.51140  0.69510  Biso   1.000  C
  C99      1.0000 0.38460  0.98860  0.30490  Biso   1.000  C
  C100     1.0000 0.11540  0.01140  0.80490  Biso   1.000  C
  H69      1.0000 0.67380  0.45720  0.15630  Biso   1.000  H
  H70      1.0000 0.82620  0.54280  0.65630  Biso   1.000  H
  H71      1.0000 0.32620  0.95720  0.34370  Biso   1.000  H
  H72      1.0000 0.17380  0.04280  0.84370  Biso   1.000  H
  H73      1.0000 0.62490  0.46190  0.24670  Biso   1.000  H
  H74      1.0000 0.87510  0.53810  0.74670  Biso   1.000  H
  H75      1.0000 0.37510  0.96190  0.25330  Biso   1.000  H
  H76      1.0000 0.12490  0.03810  0.75330  Biso   1.000  H
  H77      1.0000 0.65380  0.54560  0.19810  Biso   1.000  H
  H78      1.0000 0.84620  0.45440  0.69810  Biso   1.000  H
  H79      1.0000 0.34620  0.04560  0.30190  Biso   1.000  H
  H80      1.0000 0.15380  0.95440  0.80190  Biso   1.000  H
  C101     1.0000 0.92520  0.77300  0.74420  Biso   1.000  C
  C102     1.0000 0.57480  0.22700  0.24420  Biso   1.000  C
  C103     1.0000 0.07480  0.27300  0.75580  Biso   1.000  C
  C104     1.0000 0.42520  0.72700  0.25580  Biso   1.000  C
  H81      1.0000 0.82720  0.79530  0.75190  Biso   1.000  H
  H82      1.0000 0.67280  0.20470  0.25190  Biso   1.000  H
  H83      1.0000 0.17280  0.29530  0.74810  Biso   1.000  H
  H84      1.0000 0.32720  0.70470  0.24810  Biso   1.000  H
  C105     1.0000 0.62550  0.70660  0.97980  Biso   1.000  C
  C106     1.0000 0.87450  0.29340  0.47980  Biso   1.000  C
  C107     1.0000 0.37450  0.20660  0.52020  Biso   1.000  C
  C108     1.0000 0.12550  0.79340  0.02020  Biso   1.000  C
  H85      1.0000 0.71490  0.71490  0.00940  Biso   1.000  H
  H86      1.0000 0.78510  0.28510  0.50940  Biso   1.000  H
  H87      1.0000 0.28510  0.21490  0.49060  Biso   1.000  H
  H88      1.0000 0.21490  0.78510  0.99060  Biso   1.000  H
