data_image0
_cell_length_a       5.4005
_cell_length_b       8.9359
_cell_length_c       12.019
_cell_angle_alpha    103.17
_cell_angle_beta     94.31
_cell_angle_gamma    100.11

_symmetry_space_group_name_H-M    "P 1"
_symmetry_int_tables_number       1

loop_
  _symmetry_equiv_pos_as_xyz
  'x, y, z'

loop_
  _atom_site_label
  _atom_site_occupancy
  _atom_site_fract_x
  _atom_site_fract_y
  _atom_site_fract_z
  _atom_site_thermal_displace_type
  _atom_site_B_iso_or_equiv
  _atom_site_type_symbol
  C1       1.0000 0.09600  0.16450  0.93344  Biso   1.000  C
  C2       1.0000 0.90400  0.83550  0.06656  Biso   1.000  C
  H1       1.0000 0.03030  0.06680  0.88390  Biso   1.000  H
  H2       1.0000 0.96970  0.93320  0.11610  Biso   1.000  H
  C3       1.0000 0.97310  0.28650  0.92852  Biso   1.000  C
  C4       1.0000 0.02690  0.71350  0.07148  Biso   1.000  C
  H3       1.0000 0.83060  0.27020  0.87550  Biso   1.000  H
  H4       1.0000 0.16940  0.72980  0.12450  Biso   1.000  H
  C5       1.0000 0.06170  0.43260  0.00230  Biso   1.000  C
  C6       1.0000 0.93830  0.56740  0.99770  Biso   1.000  C
  C7       1.0000 0.27210  0.44560  0.07950  Biso   1.000  C
  C8       1.0000 0.72790  0.55440  0.92050  Biso   1.000  C
  H5       1.0000 0.33660  0.54060  0.13260  Biso   1.000  H
  H6       1.0000 0.66340  0.45940  0.86740  Biso   1.000  H
  C9       1.0000 0.38730  0.31970  0.07870  Biso   1.000  C
  C10      1.0000 0.61270  0.68030  0.92130  Biso   1.000  C
  H7       1.0000 0.52940  0.33270  0.13140  Biso   1.000  H
  H8       1.0000 0.47060  0.66730  0.86860  Biso   1.000  H
  C11      1.0000 0.63010  0.08230  0.22670  Biso   1.000  C
  C12      1.0000 0.36990  0.91770  0.77330  Biso   1.000  C
  C13      1.0000 0.79180  0.15800  0.33915  Biso   1.000  C
  C14      1.0000 0.20820  0.84200  0.66085  Biso   1.000  C
  C15      1.0000 0.01210  0.26020  0.34620  Biso   1.000  C
  C16      1.0000 0.98790  0.73980  0.65380  Biso   1.000  C
  H9       1.0000 0.06450  0.28600  0.27990  Biso   1.000  H
  H10      1.0000 0.93550  0.71400  0.72010  Biso   1.000  H
  C17      1.0000 0.16120  0.32710  0.45060  Biso   1.000  C
  C18      1.0000 0.83880  0.67290  0.54940  Biso   1.000  C
  H11      1.0000 0.31330  0.39650  0.45420  Biso   1.000  H
  H12      1.0000 0.68670  0.60350  0.54580  Biso   1.000  H
  C19      1.0000 0.08400  0.29070  0.54690  Biso   1.000  C
  C20      1.0000 0.91600  0.70930  0.45310  Biso   1.000  C
  C21      1.0000 0.86760  0.18940  0.54310  Biso   1.000  C
  C22      1.0000 0.13240  0.81060  0.45690  Biso   1.000  C
  H13      1.0000 0.81710  0.16340  0.60970  Biso   1.000  H
  H14      1.0000 0.18290  0.83660  0.39030  Biso   1.000  H
  C23      1.0000 0.72020  0.12410  0.43840  Biso   1.000  C
  C24      1.0000 0.27980  0.87590  0.56160  Biso   1.000  C
  H15      1.0000 0.56810  0.05510  0.43550  Biso   1.000  H
  H16      1.0000 0.43190  0.94490  0.56450  Biso   1.000  H
  Cl1      1.0000 0.27020  0.37549  0.67857  Biso   1.000  Cl
  Cl2      1.0000 0.72980  0.62451  0.32143  Biso   1.000  Cl
  Cu1      1.0000 0.50000  0.00000  0.00000  Biso   1.000  Cu
  N1       1.0000 0.30400  0.17955  0.00567  Biso   1.000  N
  N2       1.0000 0.69600  0.82045  0.99433  Biso   1.000  N
  O1       1.0000 0.71370  0.12059  0.13845  Biso   1.000  O
  O2       1.0000 0.28630  0.87941  0.86155  Biso   1.000  O
  O3       1.0000 0.43220  0.98920  0.22212  Biso   1.000  O
  O4       1.0000 0.56780  0.01080  0.77788  Biso   1.000  O
