data_image0
_cell_length_a       12.6295
_cell_length_b       20.7874
_cell_length_c       18.3301
_cell_angle_alpha    90
_cell_angle_beta     90
_cell_angle_gamma    90

_symmetry_space_group_name_H-M    "P 1"
_symmetry_int_tables_number       1

loop_
  _symmetry_equiv_pos_as_xyz
  'x, y, z'

loop_
  _atom_site_label
  _atom_site_occupancy
  _atom_site_fract_x
  _atom_site_fract_y
  _atom_site_fract_z
  _atom_site_thermal_displace_type
  _atom_site_B_iso_or_equiv
  _atom_site_type_symbol
  Gd1      1.0000 0.80300  0.20385  0.51260  Biso   1.000  Gd
  Gd2      1.0000 0.69700  0.70385  0.51260  Biso   1.000  Gd
  Gd3      1.0000 0.80300  0.29615  0.01260  Biso   1.000  Gd
  Gd4      1.0000 0.30300  0.20385  0.98740  Biso   1.000  Gd
  Gd5      1.0000 0.19700  0.79615  0.48740  Biso   1.000  Gd
  Gd6      1.0000 0.30300  0.29615  0.48740  Biso   1.000  Gd
  Gd7      1.0000 0.19700  0.70385  0.98740  Biso   1.000  Gd
  Gd8      1.0000 0.69700  0.79615  0.01260  Biso   1.000  Gd
  Cu1      1.0000 0.98472  0.15027  0.37033  Biso   1.000  Cu
  Cu2      1.0000 0.51528  0.65027  0.37033  Biso   1.000  Cu
  Cu3      1.0000 0.98472  0.34973  0.87033  Biso   1.000  Cu
  Cu4      1.0000 0.48472  0.15027  0.12967  Biso   1.000  Cu
  Cu5      1.0000 0.01528  0.84973  0.62967  Biso   1.000  Cu
  Cu6      1.0000 0.48472  0.34973  0.62967  Biso   1.000  Cu
  Cu7      1.0000 0.01528  0.65027  0.12967  Biso   1.000  Cu
  Cu8      1.0000 0.51528  0.84973  0.87033  Biso   1.000  Cu
  O1       1.0000 0.87620  0.11994  0.43884  Biso   1.000  O
  O2       1.0000 0.62380  0.61994  0.43884  Biso   1.000  O
  O3       1.0000 0.87620  0.38006  0.93884  Biso   1.000  O
  O4       1.0000 0.37620  0.11994  0.06116  Biso   1.000  O
  O5       1.0000 0.12380  0.88006  0.56116  Biso   1.000  O
  O6       1.0000 0.37620  0.38006  0.56116  Biso   1.000  O
  O7       1.0000 0.12380  0.61994  0.06116  Biso   1.000  O
  O8       1.0000 0.62380  0.88006  0.93884  Biso   1.000  O
  C1       1.0000 0.85010  0.05762  0.44370  Biso   1.000  C
  C2       1.0000 0.64990  0.55762  0.44370  Biso   1.000  C
  C3       1.0000 0.85010  0.44238  0.94370  Biso   1.000  C
  C4       1.0000 0.35010  0.05762  0.05630  Biso   1.000  C
  C5       1.0000 0.14990  0.94238  0.55630  Biso   1.000  C
  C6       1.0000 0.35010  0.44238  0.55630  Biso   1.000  C
  C7       1.0000 0.14990  0.55762  0.05630  Biso   1.000  C
  C8       1.0000 0.64990  0.94238  0.94370  Biso   1.000  C
  C9       1.0000 0.74860  0.04174  0.46950  Biso   1.000  C
  C10      1.0000 0.75140  0.54174  0.46950  Biso   1.000  C
  C11      1.0000 0.74860  0.45826  0.96950  Biso   1.000  C
  C12      1.0000 0.24860  0.04174  0.03050  Biso   1.000  C
  C13      1.0000 0.25140  0.95826  0.53050  Biso   1.000  C
  C14      1.0000 0.24860  0.45826  0.53050  Biso   1.000  C
  C15      1.0000 0.25140  0.54174  0.03050  Biso   1.000  C
  C16      1.0000 0.75140  0.95826  0.96950  Biso   1.000  C
  C17      1.0000 0.71610  0.97880  0.47360  Biso   1.000  C
  C18      1.0000 0.78390  0.47880  0.47360  Biso   1.000  C
  C19      1.0000 0.71610  0.52120  0.97360  Biso   1.000  C
  C20      1.0000 0.21610  0.97880  0.02640  Biso   1.000  C
  C21      1.0000 0.28390  0.02120  0.52640  Biso   1.000  C
  C22      1.0000 0.21610  0.52120  0.52640  Biso   1.000  C
  C23      1.0000 0.28390  0.47880  0.02640  Biso   1.000  C
  C24      1.0000 0.78390  0.02120  0.97360  Biso   1.000  C
  H1       1.0000 0.64840  0.96930  0.49030  Biso   1.000  H
  H2       1.0000 0.85160  0.46930  0.49030  Biso   1.000  H
  H3       1.0000 0.64840  0.53070  0.99030  Biso   1.000  H
  H4       1.0000 0.14840  0.96930  0.00970  Biso   1.000  H
  H5       1.0000 0.35160  0.03070  0.50970  Biso   1.000  H
  H6       1.0000 0.14840  0.53070  0.50970  Biso   1.000  H
  H7       1.0000 0.35160  0.46930  0.00970  Biso   1.000  H
  H8       1.0000 0.85160  0.03070  0.99030  Biso   1.000  H
  C25      1.0000 0.78340  0.92950  0.45310  Biso   1.000  C
  C26      1.0000 0.71660  0.42950  0.45310  Biso   1.000  C
  C27      1.0000 0.78340  0.57050  0.95310  Biso   1.000  C
  C28      1.0000 0.28340  0.92950  0.04690  Biso   1.000  C
  C29      1.0000 0.21660  0.07050  0.54690  Biso   1.000  C
  C30      1.0000 0.28340  0.57050  0.54690  Biso   1.000  C
  C31      1.0000 0.21660  0.42950  0.04690  Biso   1.000  C
  C32      1.0000 0.71660  0.07050  0.95310  Biso   1.000  C
  H9       1.0000 0.76090  0.88700  0.45570  Biso   1.000  H
  H10      1.0000 0.73910  0.38700  0.45570  Biso   1.000  H
  H11      1.0000 0.76090  0.61300  0.95570  Biso   1.000  H
  H12      1.0000 0.26090  0.88700  0.04430  Biso   1.000  H
  H13      1.0000 0.23910  0.11300  0.54430  Biso   1.000  H
  H14      1.0000 0.26090  0.61300  0.54430  Biso   1.000  H
  H15      1.0000 0.23910  0.38700  0.04430  Biso   1.000  H
  H16      1.0000 0.73910  0.11300  0.95570  Biso   1.000  H
  C33      1.0000 0.88260  0.94360  0.42920  Biso   1.000  C
  C34      1.0000 0.61740  0.44360  0.42920  Biso   1.000  C
  C35      1.0000 0.88260  0.55640  0.92920  Biso   1.000  C
  C36      1.0000 0.38260  0.94360  0.07080  Biso   1.000  C
  C37      1.0000 0.11740  0.05640  0.57080  Biso   1.000  C
  C38      1.0000 0.38260  0.55640  0.57080  Biso   1.000  C
  C39      1.0000 0.11740  0.44360  0.07080  Biso   1.000  C
  C40      1.0000 0.61740  0.05640  0.92920  Biso   1.000  C
  H17      1.0000 0.92810  0.91020  0.41640  Biso   1.000  H
  H18      1.0000 0.57190  0.41020  0.41640  Biso   1.000  H
  H19      1.0000 0.92810  0.58980  0.91640  Biso   1.000  H
  H20      1.0000 0.42810  0.91020  0.08360  Biso   1.000  H
  H21      1.0000 0.07190  0.08980  0.58360  Biso   1.000  H
  H22      1.0000 0.42810  0.58980  0.58360  Biso   1.000  H
  H23      1.0000 0.07190  0.41020  0.08360  Biso   1.000  H
  H24      1.0000 0.57190  0.08980  0.91640  Biso   1.000  H
  C41      1.0000 0.91790  0.00746  0.42340  Biso   1.000  C
  C42      1.0000 0.58210  0.50746  0.42340  Biso   1.000  C
  C43      1.0000 0.91790  0.49254  0.92340  Biso   1.000  C
  C44      1.0000 0.41790  0.00746  0.07660  Biso   1.000  C
  C45      1.0000 0.08210  0.99254  0.57660  Biso   1.000  C
  C46      1.0000 0.41790  0.49254  0.57660  Biso   1.000  C
  C47      1.0000 0.08210  0.50746  0.07660  Biso   1.000  C
  C48      1.0000 0.58210  0.99254  0.92340  Biso   1.000  C
  C49      1.0000 0.02400  0.01807  0.39630  Biso   1.000  C
  C50      1.0000 0.47600  0.51807  0.39630  Biso   1.000  C
  C51      1.0000 0.02400  0.48193  0.89630  Biso   1.000  C
  C52      1.0000 0.52400  0.01807  0.10370  Biso   1.000  C
  C53      1.0000 0.97600  0.98193  0.60370  Biso   1.000  C
  C54      1.0000 0.52400  0.48193  0.60370  Biso   1.000  C
  C55      1.0000 0.97600  0.51807  0.10370  Biso   1.000  C
  C56      1.0000 0.47600  0.98193  0.89630  Biso   1.000  C
  H25      1.0000 0.06790  0.98220  0.39370  Biso   1.000  H
  H26      1.0000 0.43210  0.48220  0.39370  Biso   1.000  H
  H27      1.0000 0.06790  0.51780  0.89370  Biso   1.000  H
  H28      1.0000 0.56790  0.98220  0.10630  Biso   1.000  H
  H29      1.0000 0.93210  0.01780  0.60630  Biso   1.000  H
  H30      1.0000 0.56790  0.51780  0.60630  Biso   1.000  H
  H31      1.0000 0.93210  0.48220  0.10630  Biso   1.000  H
  H32      1.0000 0.43210  0.01780  0.89370  Biso   1.000  H
  O9       1.0000 0.68870  0.09531  0.48740  Biso   1.000  O
  O10      1.0000 0.81130  0.59531  0.48740  Biso   1.000  O
  O11      1.0000 0.68870  0.40469  0.98740  Biso   1.000  O
  O12      1.0000 0.18870  0.09531  0.01260  Biso   1.000  O
  O13      1.0000 0.31130  0.90469  0.51260  Biso   1.000  O
  O14      1.0000 0.18870  0.40469  0.51260  Biso   1.000  O
  O15      1.0000 0.31130  0.59531  0.01260  Biso   1.000  O
  O16      1.0000 0.81130  0.90469  0.98740  Biso   1.000  O
  C57      1.0000 0.58140  0.08220  0.50950  Biso   1.000  C
  C58      1.0000 0.91860  0.58220  0.50950  Biso   1.000  C
  C59      1.0000 0.58140  0.41780  0.00950  Biso   1.000  C
  C60      1.0000 0.08140  0.08220  0.99050  Biso   1.000  C
  C61      1.0000 0.41860  0.91780  0.49050  Biso   1.000  C
  C62      1.0000 0.08140  0.41780  0.49050  Biso   1.000  C
  C63      1.0000 0.41860  0.58220  0.99050  Biso   1.000  C
  C64      1.0000 0.91860  0.91780  0.00950  Biso   1.000  C
  H33      1.0000 0.54610  0.12190  0.52050  Biso   1.000  H
  H34      1.0000 0.95390  0.62190  0.52050  Biso   1.000  H
  H35      1.0000 0.54610  0.37810  0.02050  Biso   1.000  H
  H36      1.0000 0.04610  0.12190  0.97950  Biso   1.000  H
  H37      1.0000 0.45390  0.87810  0.47950  Biso   1.000  H
  H38      1.0000 0.04610  0.37810  0.47950  Biso   1.000  H
  H39      1.0000 0.45390  0.62190  0.97950  Biso   1.000  H
  H40      1.0000 0.95390  0.87810  0.02050  Biso   1.000  H
  H41      1.0000 0.58190  0.05530  0.55210  Biso   1.000  H
  H42      1.0000 0.91810  0.55530  0.55210  Biso   1.000  H
  H43      1.0000 0.58190  0.44470  0.05210  Biso   1.000  H
  H44      1.0000 0.08190  0.05530  0.94790  Biso   1.000  H
  H45      1.0000 0.41810  0.94470  0.44790  Biso   1.000  H
  H46      1.0000 0.08190  0.44470  0.44790  Biso   1.000  H
  H47      1.0000 0.41810  0.55530  0.94790  Biso   1.000  H
  H48      1.0000 0.91810  0.94470  0.05210  Biso   1.000  H
  H49      1.0000 0.54480  0.06060  0.47070  Biso   1.000  H
  H50      1.0000 0.95520  0.56060  0.47070  Biso   1.000  H
  H51      1.0000 0.54480  0.43940  0.97070  Biso   1.000  H
  H52      1.0000 0.04480  0.06060  0.02930  Biso   1.000  H
  H53      1.0000 0.45520  0.93940  0.52930  Biso   1.000  H
  H54      1.0000 0.04480  0.43940  0.52930  Biso   1.000  H
  H55      1.0000 0.45520  0.56060  0.02930  Biso   1.000  H
  H56      1.0000 0.95520  0.93940  0.97070  Biso   1.000  H
  N1       1.0000 0.06350  0.07102  0.37563  Biso   1.000  N
  N2       1.0000 0.43650  0.57102  0.37563  Biso   1.000  N
  N3       1.0000 0.06350  0.42898  0.87563  Biso   1.000  N
  N4       1.0000 0.56350  0.07102  0.12437  Biso   1.000  N
  N5       1.0000 0.93650  0.92898  0.62437  Biso   1.000  N
  N6       1.0000 0.56350  0.42898  0.62437  Biso   1.000  N
  N7       1.0000 0.93650  0.57102  0.12437  Biso   1.000  N
  N8       1.0000 0.43650  0.92898  0.87563  Biso   1.000  N
  C65      1.0000 0.17310  0.07080  0.34810  Biso   1.000  C
  C66      1.0000 0.32690  0.57080  0.34810  Biso   1.000  C
  C67      1.0000 0.17310  0.42920  0.84810  Biso   1.000  C
  C68      1.0000 0.67310  0.07080  0.15190  Biso   1.000  C
  C69      1.0000 0.82690  0.92920  0.65190  Biso   1.000  C
  C70      1.0000 0.67310  0.42920  0.65190  Biso   1.000  C
  C71      1.0000 0.82690  0.57080  0.15190  Biso   1.000  C
  C72      1.0000 0.32690  0.92920  0.84810  Biso   1.000  C
  H57      1.0000 0.20320  0.02830  0.35470  Biso   1.000  H
  H58      1.0000 0.29680  0.52830  0.35470  Biso   1.000  H
  H59      1.0000 0.20320  0.47170  0.85470  Biso   1.000  H
  H60      1.0000 0.70320  0.02830  0.14530  Biso   1.000  H
  H61      1.0000 0.79680  0.97170  0.64530  Biso   1.000  H
  H62      1.0000 0.70320  0.47170  0.64530  Biso   1.000  H
  H63      1.0000 0.79680  0.52830  0.14530  Biso   1.000  H
  H64      1.0000 0.29680  0.97170  0.85470  Biso   1.000  H
  H65      1.0000 0.21510  0.10090  0.37630  Biso   1.000  H
  H66      1.0000 0.28490  0.60090  0.37630  Biso   1.000  H
  H67      1.0000 0.21510  0.39910  0.87630  Biso   1.000  H
  H68      1.0000 0.71510  0.10090  0.12370  Biso   1.000  H
  H69      1.0000 0.78490  0.89910  0.62370  Biso   1.000  H
  H70      1.0000 0.71510  0.39910  0.62370  Biso   1.000  H
  H71      1.0000 0.78490  0.60090  0.12370  Biso   1.000  H
  H72      1.0000 0.28490  0.89910  0.87630  Biso   1.000  H
  C73      1.0000 0.17880  0.08920  0.26700  Biso   1.000  C
  C74      1.0000 0.32120  0.58920  0.26700  Biso   1.000  C
  C75      1.0000 0.17880  0.41080  0.76700  Biso   1.000  C
  C76      1.0000 0.67880  0.08920  0.23300  Biso   1.000  C
  C77      1.0000 0.82120  0.91080  0.73300  Biso   1.000  C
  C78      1.0000 0.67880  0.41080  0.73300  Biso   1.000  C
  C79      1.0000 0.82120  0.58920  0.23300  Biso   1.000  C
  C80      1.0000 0.32120  0.91080  0.76700  Biso   1.000  C
  C81      1.0000 0.16640  0.16240  0.25690  Biso   1.000  C
  C82      1.0000 0.33360  0.66240  0.25690  Biso   1.000  C
  C83      1.0000 0.16640  0.33760  0.75690  Biso   1.000  C
  C84      1.0000 0.66640  0.16240  0.24310  Biso   1.000  C
  C85      1.0000 0.83360  0.83760  0.74310  Biso   1.000  C
  C86      1.0000 0.66640  0.33760  0.74310  Biso   1.000  C
  C87      1.0000 0.83360  0.66240  0.24310  Biso   1.000  C
  C88      1.0000 0.33360  0.83760  0.75690  Biso   1.000  C
  H73      1.0000 0.22770  0.18360  0.27780  Biso   1.000  H
  H74      1.0000 0.27230  0.68360  0.27780  Biso   1.000  H
  H75      1.0000 0.22770  0.31640  0.77780  Biso   1.000  H
  H76      1.0000 0.72770  0.18360  0.22220  Biso   1.000  H
  H77      1.0000 0.77230  0.81640  0.72220  Biso   1.000  H
  H78      1.0000 0.72770  0.31640  0.72220  Biso   1.000  H
  H79      1.0000 0.77230  0.68360  0.22220  Biso   1.000  H
  H80      1.0000 0.27230  0.81640  0.77780  Biso   1.000  H
  H81      1.0000 0.16570  0.17190  0.20500  Biso   1.000  H
  H82      1.0000 0.33430  0.67190  0.20500  Biso   1.000  H
  H83      1.0000 0.16570  0.32810  0.70500  Biso   1.000  H
  H84      1.0000 0.66570  0.17190  0.29500  Biso   1.000  H
  H85      1.0000 0.83430  0.82810  0.79500  Biso   1.000  H
  H86      1.0000 0.66570  0.32810  0.79500  Biso   1.000  H
  H87      1.0000 0.83430  0.67190  0.29500  Biso   1.000  H
  H88      1.0000 0.33430  0.82810  0.70500  Biso   1.000  H
  C89      1.0000 0.09920  0.05200  0.22240  Biso   1.000  C
  C90      1.0000 0.40080  0.55200  0.22240  Biso   1.000  C
  C91      1.0000 0.09920  0.44800  0.72240  Biso   1.000  C
  C92      1.0000 0.59920  0.05200  0.27760  Biso   1.000  C
  C93      1.0000 0.90080  0.94800  0.77760  Biso   1.000  C
  C94      1.0000 0.59920  0.44800  0.77760  Biso   1.000  C
  C95      1.0000 0.90080  0.55200  0.27760  Biso   1.000  C
  C96      1.0000 0.40080  0.94800  0.72240  Biso   1.000  C
  H89      1.0000 0.10470  0.06460  0.17210  Biso   1.000  H
  H90      1.0000 0.39530  0.56460  0.17210  Biso   1.000  H
  H91      1.0000 0.10470  0.43540  0.67210  Biso   1.000  H
  H92      1.0000 0.60470  0.06460  0.32790  Biso   1.000  H
  H93      1.0000 0.89530  0.93540  0.82790  Biso   1.000  H
  H94      1.0000 0.60470  0.43540  0.82790  Biso   1.000  H
  H95      1.0000 0.89530  0.56460  0.32790  Biso   1.000  H
  H96      1.0000 0.39530  0.93540  0.67210  Biso   1.000  H
  H97      1.0000 0.02910  0.06100  0.23980  Biso   1.000  H
  H98      1.0000 0.47090  0.56100  0.23980  Biso   1.000  H
  H99      1.0000 0.02910  0.43900  0.73980  Biso   1.000  H
  H100     1.0000 0.52910  0.06100  0.26020  Biso   1.000  H
  H101     1.0000 0.97090  0.93900  0.76020  Biso   1.000  H
  H102     1.0000 0.52910  0.43900  0.76020  Biso   1.000  H
  H103     1.0000 0.97090  0.56100  0.26020  Biso   1.000  H
  H104     1.0000 0.47090  0.93900  0.73980  Biso   1.000  H
  H105     1.0000 0.11330  0.00680  0.22670  Biso   1.000  H
  H106     1.0000 0.38670  0.50680  0.22670  Biso   1.000  H
  H107     1.0000 0.11330  0.49320  0.72670  Biso   1.000  H
  H108     1.0000 0.61330  0.00680  0.27330  Biso   1.000  H
  H109     1.0000 0.88670  0.99320  0.77330  Biso   1.000  H
  H110     1.0000 0.61330  0.49320  0.77330  Biso   1.000  H
  H111     1.0000 0.88670  0.50680  0.27330  Biso   1.000  H
  H112     1.0000 0.38670  0.99320  0.72670  Biso   1.000  H
  C97      1.0000 0.29080  0.07330  0.24190  Biso   1.000  C
  C98      1.0000 0.20920  0.57330  0.24190  Biso   1.000  C
  C99      1.0000 0.29080  0.42670  0.74190  Biso   1.000  C
  C100     1.0000 0.79080  0.07330  0.25810  Biso   1.000  C
  C101     1.0000 0.70920  0.92670  0.75810  Biso   1.000  C
  C102     1.0000 0.79080  0.42670  0.75810  Biso   1.000  C
  C103     1.0000 0.70920  0.57330  0.25810  Biso   1.000  C
  C104     1.0000 0.20920  0.92670  0.74190  Biso   1.000  C
  H113     1.0000 0.29850  0.08450  0.19130  Biso   1.000  H
  H114     1.0000 0.20150  0.58450  0.19130  Biso   1.000  H
  H115     1.0000 0.29850  0.41550  0.69130  Biso   1.000  H
  H116     1.0000 0.79850  0.08450  0.30870  Biso   1.000  H
  H117     1.0000 0.70150  0.91550  0.80870  Biso   1.000  H
  H118     1.0000 0.79850  0.41550  0.80870  Biso   1.000  H
  H119     1.0000 0.70150  0.58450  0.30870  Biso   1.000  H
  H120     1.0000 0.20150  0.91550  0.69130  Biso   1.000  H
  H121     1.0000 0.30350  0.02800  0.24800  Biso   1.000  H
  H122     1.0000 0.19650  0.52800  0.24800  Biso   1.000  H
  H123     1.0000 0.30350  0.47200  0.74800  Biso   1.000  H
  H124     1.0000 0.80350  0.02800  0.25200  Biso   1.000  H
  H125     1.0000 0.69650  0.97200  0.75200  Biso   1.000  H
  H126     1.0000 0.80350  0.47200  0.75200  Biso   1.000  H
  H127     1.0000 0.69650  0.52800  0.25200  Biso   1.000  H
  H128     1.0000 0.19650  0.97200  0.74800  Biso   1.000  H
  H129     1.0000 0.34090  0.09720  0.27040  Biso   1.000  H
  H130     1.0000 0.15910  0.59720  0.27040  Biso   1.000  H
  H131     1.0000 0.34090  0.40280  0.77040  Biso   1.000  H
  H132     1.0000 0.84090  0.09720  0.22960  Biso   1.000  H
  H133     1.0000 0.65910  0.90280  0.72960  Biso   1.000  H
  H134     1.0000 0.84090  0.40280  0.72960  Biso   1.000  H
  H135     1.0000 0.65910  0.59720  0.22960  Biso   1.000  H
  H136     1.0000 0.15910  0.90280  0.77040  Biso   1.000  H
  N9       1.0000 0.07020  0.18945  0.29019  Biso   1.000  N
  N10      1.0000 0.42980  0.68945  0.29019  Biso   1.000  N
  N11      1.0000 0.07020  0.31055  0.79019  Biso   1.000  N
  N12      1.0000 0.57020  0.18945  0.20981  Biso   1.000  N
  N13      1.0000 0.92980  0.81055  0.70981  Biso   1.000  N
  N14      1.0000 0.57020  0.31055  0.70981  Biso   1.000  N
  N15      1.0000 0.92980  0.68945  0.20981  Biso   1.000  N
  N16      1.0000 0.42980  0.81055  0.79019  Biso   1.000  N
  C105     1.0000 0.03910  0.24640  0.27320  Biso   1.000  C
  C106     1.0000 0.46090  0.74640  0.27320  Biso   1.000  C
  C107     1.0000 0.03910  0.25360  0.77320  Biso   1.000  C
  C108     1.0000 0.53910  0.24640  0.22680  Biso   1.000  C
  C109     1.0000 0.96090  0.75360  0.72680  Biso   1.000  C
  C110     1.0000 0.53910  0.25360  0.72680  Biso   1.000  C
  C111     1.0000 0.96090  0.74640  0.22680  Biso   1.000  C
  C112     1.0000 0.46090  0.75360  0.77320  Biso   1.000  C
  C113     1.0000 0.94600  0.27150  0.31240  Biso   1.000  C
  C114     1.0000 0.55400  0.77150  0.31240  Biso   1.000  C
  C115     1.0000 0.94600  0.22850  0.81240  Biso   1.000  C
  C116     1.0000 0.44600  0.27150  0.18760  Biso   1.000  C
  C117     1.0000 0.05400  0.72850  0.68760  Biso   1.000  C
  C118     1.0000 0.44600  0.22850  0.68760  Biso   1.000  C
  C119     1.0000 0.05400  0.77150  0.18760  Biso   1.000  C
  C120     1.0000 0.55400  0.72850  0.81240  Biso   1.000  C
  C121     1.0000 0.09030  0.28840  0.21690  Biso   1.000  C
  C122     1.0000 0.40970  0.78840  0.21690  Biso   1.000  C
  C123     1.0000 0.09030  0.21160  0.71690  Biso   1.000  C
  C124     1.0000 0.59030  0.28840  0.28310  Biso   1.000  C
  C125     1.0000 0.90970  0.71160  0.78310  Biso   1.000  C
  C126     1.0000 0.59030  0.21160  0.78310  Biso   1.000  C
  C127     1.0000 0.90970  0.78840  0.28310  Biso   1.000  C
  C128     1.0000 0.40970  0.71160  0.71690  Biso   1.000  C
  H137     1.0000 0.14910  0.26610  0.19550  Biso   1.000  H
  H138     1.0000 0.35090  0.76610  0.19550  Biso   1.000  H
  H139     1.0000 0.14910  0.23390  0.69550  Biso   1.000  H
  H140     1.0000 0.64910  0.26610  0.30450  Biso   1.000  H
  H141     1.0000 0.85090  0.73390  0.80450  Biso   1.000  H
  H142     1.0000 0.64910  0.23390  0.80450  Biso   1.000  H
  H143     1.0000 0.85090  0.76610  0.30450  Biso   1.000  H
  H144     1.0000 0.35090  0.73390  0.69550  Biso   1.000  H
  H145     1.0000 0.11480  0.32730  0.23950  Biso   1.000  H
  H146     1.0000 0.38520  0.82730  0.23950  Biso   1.000  H
  H147     1.0000 0.11480  0.17270  0.73950  Biso   1.000  H
  H148     1.0000 0.61480  0.32730  0.26050  Biso   1.000  H
  H149     1.0000 0.88520  0.67270  0.76050  Biso   1.000  H
  H150     1.0000 0.61480  0.17270  0.76050  Biso   1.000  H
  H151     1.0000 0.88520  0.82730  0.26050  Biso   1.000  H
  H152     1.0000 0.38520  0.67270  0.73950  Biso   1.000  H
  H153     1.0000 0.03960  0.29880  0.17960  Biso   1.000  H
  H154     1.0000 0.46040  0.79880  0.17960  Biso   1.000  H
  H155     1.0000 0.03960  0.20120  0.67960  Biso   1.000  H
  H156     1.0000 0.53960  0.29880  0.32040  Biso   1.000  H
  H157     1.0000 0.96040  0.70120  0.82040  Biso   1.000  H
  H158     1.0000 0.53960  0.20120  0.82040  Biso   1.000  H
  H159     1.0000 0.96040  0.79880  0.32040  Biso   1.000  H
  H160     1.0000 0.46040  0.70120  0.67960  Biso   1.000  H
  C129     1.0000 0.90350  0.33660  0.30220  Biso   1.000  C
  C130     1.0000 0.59650  0.83660  0.30220  Biso   1.000  C
  C131     1.0000 0.90350  0.16340  0.80220  Biso   1.000  C
  C132     1.0000 0.40350  0.33660  0.19780  Biso   1.000  C
  C133     1.0000 0.09650  0.66340  0.69780  Biso   1.000  C
  C134     1.0000 0.40350  0.16340  0.69780  Biso   1.000  C
  C135     1.0000 0.09650  0.83660  0.19780  Biso   1.000  C
  C136     1.0000 0.59650  0.66340  0.80220  Biso   1.000  C
  H161     1.0000 0.84360  0.34270  0.33360  Biso   1.000  H
  H162     1.0000 0.65640  0.84270  0.33360  Biso   1.000  H
  H163     1.0000 0.84360  0.15730  0.83360  Biso   1.000  H
  H164     1.0000 0.34360  0.34270  0.16640  Biso   1.000  H
  H165     1.0000 0.15640  0.65730  0.66640  Biso   1.000  H
  H166     1.0000 0.34360  0.15730  0.66640  Biso   1.000  H
  H167     1.0000 0.15640  0.84270  0.16640  Biso   1.000  H
  H168     1.0000 0.65640  0.65730  0.83360  Biso   1.000  H
  H169     1.0000 0.88210  0.34210  0.25230  Biso   1.000  H
  H170     1.0000 0.61790  0.84210  0.25230  Biso   1.000  H
  H171     1.0000 0.88210  0.15790  0.75230  Biso   1.000  H
  H172     1.0000 0.38210  0.34210  0.24770  Biso   1.000  H
  H173     1.0000 0.11790  0.65790  0.74770  Biso   1.000  H
  H174     1.0000 0.38210  0.15790  0.74770  Biso   1.000  H
  H175     1.0000 0.11790  0.84210  0.24770  Biso   1.000  H
  H176     1.0000 0.61790  0.65790  0.75230  Biso   1.000  H
  H177     1.0000 0.95720  0.36770  0.31390  Biso   1.000  H
  H178     1.0000 0.54280  0.86770  0.31390  Biso   1.000  H
  H179     1.0000 0.95720  0.13230  0.81390  Biso   1.000  H
  H180     1.0000 0.45720  0.36770  0.18610  Biso   1.000  H
  H181     1.0000 0.04280  0.63230  0.68610  Biso   1.000  H
  H182     1.0000 0.45720  0.13230  0.68610  Biso   1.000  H
  H183     1.0000 0.04280  0.86770  0.18610  Biso   1.000  H
  H184     1.0000 0.54280  0.63230  0.81390  Biso   1.000  H
  N17      1.0000 0.90770  0.23094  0.35922  Biso   1.000  N
  N18      1.0000 0.59230  0.73094  0.35922  Biso   1.000  N
  N19      1.0000 0.90770  0.26906  0.85922  Biso   1.000  N
  N20      1.0000 0.40770  0.23094  0.14078  Biso   1.000  N
  N21      1.0000 0.09230  0.76906  0.64078  Biso   1.000  N
  N22      1.0000 0.40770  0.26906  0.64078  Biso   1.000  N
  N23      1.0000 0.09230  0.73094  0.14078  Biso   1.000  N
  N24      1.0000 0.59230  0.76906  0.85922  Biso   1.000  N
  O17      1.0000 0.82230  0.24651  0.39836  Biso   1.000  O
  O18      1.0000 0.67770  0.74651  0.39836  Biso   1.000  O
  O19      1.0000 0.82230  0.25349  0.89836  Biso   1.000  O
  O20      1.0000 0.32230  0.24651  0.10164  Biso   1.000  O
  O21      1.0000 0.17770  0.75349  0.60164  Biso   1.000  O
  O22      1.0000 0.32230  0.25349  0.60164  Biso   1.000  O
  O23      1.0000 0.17770  0.74651  0.10164  Biso   1.000  O
  O24      1.0000 0.67770  0.75349  0.89836  Biso   1.000  O
  O25      1.0000 0.61980  0.22495  0.45900  Biso   1.000  O
  O26      1.0000 0.88020  0.72495  0.45900  Biso   1.000  O
  O27      1.0000 0.61980  0.27505  0.95900  Biso   1.000  O
  O28      1.0000 0.11980  0.22495  0.04100  Biso   1.000  O
  O29      1.0000 0.38020  0.77505  0.54100  Biso   1.000  O
  O30      1.0000 0.11980  0.27505  0.54100  Biso   1.000  O
  O31      1.0000 0.38020  0.72495  0.04100  Biso   1.000  O
  O32      1.0000 0.88020  0.77505  0.95900  Biso   1.000  O
  O33      1.0000 0.65530  0.28799  0.54630  Biso   1.000  O
  O34      1.0000 0.84470  0.78799  0.54630  Biso   1.000  O
  O35      1.0000 0.65530  0.21201  0.04630  Biso   1.000  O
  O36      1.0000 0.15530  0.28799  0.95370  Biso   1.000  O
  O37      1.0000 0.34470  0.71201  0.45370  Biso   1.000  O
  O38      1.0000 0.15530  0.21201  0.45370  Biso   1.000  O
  O39      1.0000 0.34470  0.78799  0.95370  Biso   1.000  O
  O40      1.0000 0.84470  0.71201  0.04630  Biso   1.000  O
  N25      1.0000 0.59250  0.27119  0.49770  Biso   1.000  N
  N26      1.0000 0.90750  0.77119  0.49770  Biso   1.000  N
  N27      1.0000 0.59250  0.22881  0.99770  Biso   1.000  N
  N28      1.0000 0.09250  0.27119  0.00230  Biso   1.000  N
  N29      1.0000 0.40750  0.72881  0.50230  Biso   1.000  N
  N30      1.0000 0.09250  0.22881  0.50230  Biso   1.000  N
  N31      1.0000 0.40750  0.77119  0.00230  Biso   1.000  N
  N32      1.0000 0.90750  0.72881  0.99770  Biso   1.000  N
  O41      1.0000 0.50820  0.29991  0.48830  Biso   1.000  O
  O42      1.0000 0.99180  0.79991  0.48830  Biso   1.000  O
  O43      1.0000 0.50820  0.20009  0.98830  Biso   1.000  O
  O44      1.0000 0.00820  0.29991  0.01170  Biso   1.000  O
  O45      1.0000 0.49180  0.70009  0.51170  Biso   1.000  O
  O46      1.0000 0.00820  0.20009  0.51170  Biso   1.000  O
  O47      1.0000 0.49180  0.79991  0.01170  Biso   1.000  O
  O48      1.0000 0.99180  0.70009  0.98830  Biso   1.000  O
  O49      1.0000 0.69110  0.16904  0.61761  Biso   1.000  O
  O50      1.0000 0.80890  0.66904  0.61761  Biso   1.000  O
  O51      1.0000 0.69110  0.33096  0.11761  Biso   1.000  O
  O52      1.0000 0.19110  0.16904  0.88239  Biso   1.000  O
  O53      1.0000 0.30890  0.83096  0.38239  Biso   1.000  O
  O54      1.0000 0.19110  0.33096  0.38239  Biso   1.000  O
  O55      1.0000 0.30890  0.66904  0.88239  Biso   1.000  O
  O56      1.0000 0.80890  0.83096  0.11761  Biso   1.000  O
  O57      1.0000 0.84220  0.12121  0.60439  Biso   1.000  O
  O58      1.0000 0.65780  0.62121  0.60439  Biso   1.000  O
  O59      1.0000 0.84220  0.37879  0.10439  Biso   1.000  O
  O60      1.0000 0.34220  0.12121  0.89561  Biso   1.000  O
  O61      1.0000 0.15780  0.87879  0.39561  Biso   1.000  O
  O62      1.0000 0.34220  0.37879  0.39561  Biso   1.000  O
  O63      1.0000 0.15780  0.62121  0.89561  Biso   1.000  O
  O64      1.0000 0.65780  0.87879  0.10439  Biso   1.000  O
  N33      1.0000 0.75440  0.12492  0.63780  Biso   1.000  N
  N34      1.0000 0.74560  0.62492  0.63780  Biso   1.000  N
  N35      1.0000 0.75440  0.37508  0.13780  Biso   1.000  N
  N36      1.0000 0.25440  0.12492  0.86220  Biso   1.000  N
  N37      1.0000 0.24560  0.87508  0.36220  Biso   1.000  N
  N38      1.0000 0.25440  0.37508  0.36220  Biso   1.000  N
  N39      1.0000 0.24560  0.62492  0.86220  Biso   1.000  N
  N40      1.0000 0.74560  0.87508  0.13780  Biso   1.000  N
  O65      1.0000 0.73140  0.08776  0.68670  Biso   1.000  O
  O66      1.0000 0.76860  0.58776  0.68670  Biso   1.000  O
  O67      1.0000 0.73140  0.41224  0.18670  Biso   1.000  O
  O68      1.0000 0.23140  0.08776  0.81330  Biso   1.000  O
  O69      1.0000 0.26860  0.91224  0.31330  Biso   1.000  O
  O70      1.0000 0.23140  0.41224  0.31330  Biso   1.000  O
  O71      1.0000 0.26860  0.58776  0.81330  Biso   1.000  O
  O72      1.0000 0.76860  0.91224  0.18670  Biso   1.000  O
  O73      1.0000 0.87740  0.31321  0.52520  Biso   1.000  O
  O74      1.0000 0.62260  0.81321  0.52520  Biso   1.000  O
  O75      1.0000 0.87740  0.18679  0.02520  Biso   1.000  O
  O76      1.0000 0.37740  0.31321  0.97480  Biso   1.000  O
  O77      1.0000 0.12260  0.68679  0.47480  Biso   1.000  O
  O78      1.0000 0.37740  0.18679  0.47480  Biso   1.000  O
  O79      1.0000 0.12260  0.81321  0.97480  Biso   1.000  O
  O80      1.0000 0.62260  0.68679  0.02520  Biso   1.000  O
  O81      1.0000 0.86370  0.25973  0.62450  Biso   1.000  O
  O82      1.0000 0.63630  0.75973  0.62450  Biso   1.000  O
  O83      1.0000 0.86370  0.24027  0.12450  Biso   1.000  O
  O84      1.0000 0.36370  0.25973  0.87550  Biso   1.000  O
  O85      1.0000 0.13630  0.74027  0.37550  Biso   1.000  O
  O86      1.0000 0.36370  0.24027  0.37550  Biso   1.000  O
  O87      1.0000 0.13630  0.75973  0.87550  Biso   1.000  O
  O88      1.0000 0.63630  0.74027  0.12450  Biso   1.000  O
  N41      1.0000 0.89280  0.31050  0.59320  Biso   1.000  N
  N42      1.0000 0.60720  0.81050  0.59320  Biso   1.000  N
  N43      1.0000 0.89280  0.18950  0.09320  Biso   1.000  N
  N44      1.0000 0.39280  0.31050  0.90680  Biso   1.000  N
  N45      1.0000 0.10720  0.68950  0.40680  Biso   1.000  N
  N46      1.0000 0.39280  0.18950  0.40680  Biso   1.000  N
  N47      1.0000 0.10720  0.81050  0.90680  Biso   1.000  N
  N48      1.0000 0.60720  0.68950  0.09320  Biso   1.000  N
  O89      1.0000 0.93330  0.35490  0.62610  Biso   1.000  O
  O90      1.0000 0.56670  0.85490  0.62610  Biso   1.000  O
  O91      1.0000 0.93330  0.14510  0.12610  Biso   1.000  O
  O92      1.0000 0.43330  0.35490  0.87390  Biso   1.000  O
  O93      1.0000 0.06670  0.64510  0.37390  Biso   1.000  O
  O94      1.0000 0.43330  0.14510  0.37390  Biso   1.000  O
  O95      1.0000 0.06670  0.85490  0.87390  Biso   1.000  O
  O96      1.0000 0.56670  0.64510  0.12610  Biso   1.000  O
