data_image0
_cell_length_a       10.7421
_cell_length_b       7.2339
_cell_length_c       5.7143
_cell_angle_alpha    90
_cell_angle_beta     90
_cell_angle_gamma    90

_symmetry_space_group_name_H-M    "P 1"
_symmetry_int_tables_number       1

loop_
  _symmetry_equiv_pos_as_xyz
  'x, y, z'

loop_
  _atom_site_label
  _atom_site_occupancy
  _atom_site_fract_x
  _atom_site_fract_y
  _atom_site_fract_z
  _atom_site_thermal_displace_type
  _atom_site_B_iso_or_equiv
  _atom_site_type_symbol
  C1       1.0000 0.76980  0.26120  0.74620  Biso   1.000  C
  C2       1.0000 0.23020  0.73880  0.24620  Biso   1.000  C
  C3       1.0000 0.23020  0.26120  0.74620  Biso   1.000  C
  C4       1.0000 0.76980  0.73880  0.24620  Biso   1.000  C
  C5       1.0000 0.62930  0.25370  0.74110  Biso   1.000  C
  C6       1.0000 0.37070  0.74630  0.24110  Biso   1.000  C
  C7       1.0000 0.37070  0.25370  0.74110  Biso   1.000  C
  C8       1.0000 0.62930  0.74630  0.24110  Biso   1.000  C
  C9       1.0000 0.56560  0.32050  0.54740  Biso   1.000  C
  C10      1.0000 0.43440  0.67950  0.04740  Biso   1.000  C
  C11      1.0000 0.43440  0.32050  0.54740  Biso   1.000  C
  C12      1.0000 0.56560  0.67950  0.04740  Biso   1.000  C
  H1       1.0000 0.60360  0.37370  0.41700  Biso   1.000  H
  H2       1.0000 0.39640  0.62630  0.91700  Biso   1.000  H
  H3       1.0000 0.39640  0.37370  0.41700  Biso   1.000  H
  H4       1.0000 0.60360  0.62630  0.91700  Biso   1.000  H
  C13      1.0000 0.56540  0.18340  0.93400  Biso   1.000  C
  C14      1.0000 0.43460  0.81660  0.43400  Biso   1.000  C
  C15      1.0000 0.43460  0.18340  0.93400  Biso   1.000  C
  C16      1.0000 0.56540  0.81660  0.43400  Biso   1.000  C
  H5       1.0000 0.60880  0.13170  0.08080  Biso   1.000  H
  H6       1.0000 0.39120  0.86830  0.58080  Biso   1.000  H
  H7       1.0000 0.39120  0.13170  0.08080  Biso   1.000  H
  H8       1.0000 0.60880  0.86830  0.58080  Biso   1.000  H
  Cu1      1.0000 0.00000  0.32811  0.55600  Biso   1.000  Cu
  Cu2      1.0000 0.00000  0.67189  0.05600  Biso   1.000  Cu
  O1       1.0000 0.82650  0.20160  0.92200  Biso   1.000  O
  O2       1.0000 0.17350  0.79840  0.42200  Biso   1.000  O
  O3       1.0000 0.17350  0.20160  0.92200  Biso   1.000  O
  O4       1.0000 0.82650  0.79840  0.42200  Biso   1.000  O
  O5       1.0000 0.82170  0.32930  0.56180  Biso   1.000  O
  O6       1.0000 0.17830  0.67070  0.06180  Biso   1.000  O
  O7       1.0000 0.17830  0.32930  0.56180  Biso   1.000  O
  O8       1.0000 0.82170  0.67070  0.06180  Biso   1.000  O
  O9       1.0000 0.00000  0.59480  0.64310  Biso   1.000  O
  O10      1.0000 0.00000  0.40520  0.14310  Biso   1.000  O
  H9       1.0000 0.92960  0.64890  0.53430  Biso   1.000  H
  H10      1.0000 0.07040  0.35110  0.03430  Biso   1.000  H
  H11      1.0000 0.07040  0.64890  0.53430  Biso   1.000  H
  H12      1.0000 0.92960  0.35110  0.03430  Biso   1.000  H
  O11      1.0000 0.00000  0.06640  0.47880  Biso   1.000  O
  O12      1.0000 0.00000  0.93360  0.97880  Biso   1.000  O
  H13      1.0000 0.07750  0.00400  0.45380  Biso   1.000  H
  H14      1.0000 0.92250  0.99600  0.95380  Biso   1.000  H
  H15      1.0000 0.92250  0.00400  0.45380  Biso   1.000  H
  H16      1.0000 0.07750  0.99600  0.95380  Biso   1.000  H
