data_image0
_cell_length_a       13.579
_cell_length_b       15.543
_cell_length_c       7.57
_cell_angle_alpha    90
_cell_angle_beta     92.03
_cell_angle_gamma    90

_symmetry_space_group_name_H-M    "P 1"
_symmetry_int_tables_number       1

loop_
  _symmetry_equiv_pos_as_xyz
  'x, y, z'

loop_
  _atom_site_label
  _atom_site_occupancy
  _atom_site_fract_x
  _atom_site_fract_y
  _atom_site_fract_z
  _atom_site_thermal_displace_type
  _atom_site_B_iso_or_equiv
  _atom_site_type_symbol
  Cu1      1.0000 0.75000  0.25000  0.00000  Biso   1.000  Cu
  Cu2      1.0000 0.25000  0.75000  0.00000  Biso   1.000  Cu
  Cu3      1.0000 0.75000  0.75000  0.50000  Biso   1.000  Cu
  Cu4      1.0000 0.25000  0.25000  0.50000  Biso   1.000  Cu
  N1       1.0000 0.76967  0.38257  0.00190  Biso   1.000  N
  N2       1.0000 0.26967  0.88257  0.00190  Biso   1.000  N
  N3       1.0000 0.76967  0.61743  0.50190  Biso   1.000  N
  N4       1.0000 0.26967  0.11743  0.50190  Biso   1.000  N
  N5       1.0000 0.23033  0.61743  0.99810  Biso   1.000  N
  N6       1.0000 0.73033  0.11743  0.99810  Biso   1.000  N
  N7       1.0000 0.23033  0.38257  0.49810  Biso   1.000  N
  N8       1.0000 0.73033  0.88257  0.49810  Biso   1.000  N
  C1       1.0000 0.85540  0.42737  0.00200  Biso   1.000  C
  C2       1.0000 0.35540  0.92737  0.00200  Biso   1.000  C
  C3       1.0000 0.85540  0.57263  0.50200  Biso   1.000  C
  C4       1.0000 0.35540  0.07263  0.50200  Biso   1.000  C
  C5       1.0000 0.14460  0.57263  0.99800  Biso   1.000  C
  C6       1.0000 0.64460  0.07263  0.99800  Biso   1.000  C
  C7       1.0000 0.14460  0.42737  0.49800  Biso   1.000  C
  C8       1.0000 0.64460  0.92737  0.49800  Biso   1.000  C
  N9       1.0000 0.86083  0.51412  0.01280  Biso   1.000  N
  N10      1.0000 0.36083  0.01412  0.01280  Biso   1.000  N
  N11      1.0000 0.86083  0.48588  0.51280  Biso   1.000  N
  N12      1.0000 0.36083  0.98588  0.51280  Biso   1.000  N
  N13      1.0000 0.13917  0.48588  0.98720  Biso   1.000  N
  N14      1.0000 0.63917  0.98588  0.98720  Biso   1.000  N
  N15      1.0000 0.13917  0.51412  0.48720  Biso   1.000  N
  N16      1.0000 0.63917  0.01412  0.48720  Biso   1.000  N
  C9       1.0000 0.77640  0.55650  0.02130  Biso   1.000  C
  C10      1.0000 0.27640  0.05650  0.02130  Biso   1.000  C
  C11      1.0000 0.77640  0.44350  0.52130  Biso   1.000  C
  C12      1.0000 0.27640  0.94350  0.52130  Biso   1.000  C
  C13      1.0000 0.22360  0.44350  0.97870  Biso   1.000  C
  C14      1.0000 0.72360  0.94350  0.97870  Biso   1.000  C
  C15      1.0000 0.22360  0.55650  0.47870  Biso   1.000  C
  C16      1.0000 0.72360  0.05650  0.47870  Biso   1.000  C
  H1       1.0000 0.77830  0.61750  0.02910  Biso   1.000  H
  H2       1.0000 0.27830  0.11750  0.02910  Biso   1.000  H
  H3       1.0000 0.77830  0.38250  0.52910  Biso   1.000  H
  H4       1.0000 0.27830  0.88250  0.52910  Biso   1.000  H
  H5       1.0000 0.22170  0.38250  0.97090  Biso   1.000  H
  H6       1.0000 0.72170  0.88250  0.97090  Biso   1.000  H
  H7       1.0000 0.22170  0.61750  0.47090  Biso   1.000  H
  H8       1.0000 0.72170  0.11750  0.47090  Biso   1.000  H
  C17      1.0000 0.68610  0.51610  0.01940  Biso   1.000  C
  C18      1.0000 0.18610  0.01610  0.01940  Biso   1.000  C
  C19      1.0000 0.68610  0.48390  0.51940  Biso   1.000  C
  C20      1.0000 0.18610  0.98390  0.51940  Biso   1.000  C
  C21      1.0000 0.31390  0.48390  0.98060  Biso   1.000  C
  C22      1.0000 0.81390  0.98390  0.98060  Biso   1.000  C
  C23      1.0000 0.31390  0.51610  0.48060  Biso   1.000  C
  C24      1.0000 0.81390  0.01610  0.48060  Biso   1.000  C
  H9       1.0000 0.62660  0.54790  0.02530  Biso   1.000  H
  H10      1.0000 0.12660  0.04790  0.02530  Biso   1.000  H
  H11      1.0000 0.62660  0.45210  0.52530  Biso   1.000  H
  H12      1.0000 0.12660  0.95210  0.52530  Biso   1.000  H
  H13      1.0000 0.37340  0.45210  0.97470  Biso   1.000  H
  H14      1.0000 0.87340  0.95210  0.97470  Biso   1.000  H
  H15      1.0000 0.37340  0.54790  0.47470  Biso   1.000  H
  H16      1.0000 0.87340  0.04790  0.47470  Biso   1.000  H
  C25      1.0000 0.68560  0.42892  0.00880  Biso   1.000  C
  C26      1.0000 0.18560  0.92892  0.00880  Biso   1.000  C
  C27      1.0000 0.68560  0.57108  0.50880  Biso   1.000  C
  C28      1.0000 0.18560  0.07108  0.50880  Biso   1.000  C
  C29      1.0000 0.31440  0.57108  0.99120  Biso   1.000  C
  C30      1.0000 0.81440  0.07108  0.99120  Biso   1.000  C
  C31      1.0000 0.31440  0.42892  0.49120  Biso   1.000  C
  C32      1.0000 0.81440  0.92892  0.49120  Biso   1.000  C
  H17      1.0000 0.62420  0.39950  0.00610  Biso   1.000  H
  H18      1.0000 0.12420  0.89950  0.00610  Biso   1.000  H
  H19      1.0000 0.62420  0.60050  0.50610  Biso   1.000  H
  H20      1.0000 0.12420  0.10050  0.50610  Biso   1.000  H
  H21      1.0000 0.37580  0.60050  0.99390  Biso   1.000  H
  H22      1.0000 0.87580  0.10050  0.99390  Biso   1.000  H
  H23      1.0000 0.37580  0.39950  0.49390  Biso   1.000  H
  H24      1.0000 0.87580  0.89950  0.49390  Biso   1.000  H
  N17      1.0000 0.93991  0.38577  0.99370  Biso   1.000  N
  N18      1.0000 0.43991  0.88577  0.99370  Biso   1.000  N
  N19      1.0000 0.93991  0.61423  0.49370  Biso   1.000  N
  N20      1.0000 0.43991  0.11423  0.49370  Biso   1.000  N
  N21      1.0000 0.06009  0.61423  0.00630  Biso   1.000  N
  N22      1.0000 0.56009  0.11423  0.00630  Biso   1.000  N
  N23      1.0000 0.06009  0.38577  0.50630  Biso   1.000  N
  N24      1.0000 0.56009  0.88577  0.50630  Biso   1.000  N
  H25      1.0000 0.94040  0.32920  0.98810  Biso   1.000  H
  H26      1.0000 0.44040  0.82920  0.98810  Biso   1.000  H
  H27      1.0000 0.94040  0.67080  0.48810  Biso   1.000  H
  H28      1.0000 0.44040  0.17080  0.48810  Biso   1.000  H
  H29      1.0000 0.05960  0.67080  0.01190  Biso   1.000  H
  H30      1.0000 0.55960  0.17080  0.01190  Biso   1.000  H
  H31      1.0000 0.05960  0.32920  0.51190  Biso   1.000  H
  H32      1.0000 0.55960  0.82920  0.51190  Biso   1.000  H
  H33      1.0000 0.99570  0.41460  0.99370  Biso   1.000  H
  H34      1.0000 0.49570  0.91460  0.99370  Biso   1.000  H
  H35      1.0000 0.99570  0.58540  0.49370  Biso   1.000  H
  H36      1.0000 0.49570  0.08540  0.49370  Biso   1.000  H
  H37      1.0000 0.00430  0.58540  0.00630  Biso   1.000  H
  H38      1.0000 0.50430  0.08540  0.00630  Biso   1.000  H
  H39      1.0000 0.00430  0.41460  0.50630  Biso   1.000  H
  H40      1.0000 0.50430  0.91460  0.50630  Biso   1.000  H
  N25      1.0000 0.84676  0.23733  0.19870  Biso   1.000  N
  N26      1.0000 0.34676  0.73733  0.19870  Biso   1.000  N
  N27      1.0000 0.84676  0.76267  0.69870  Biso   1.000  N
  N28      1.0000 0.34676  0.26267  0.69870  Biso   1.000  N
  N29      1.0000 0.15324  0.76267  0.80130  Biso   1.000  N
  N30      1.0000 0.65324  0.26267  0.80130  Biso   1.000  N
  N31      1.0000 0.15324  0.23733  0.30130  Biso   1.000  N
  N32      1.0000 0.65324  0.73733  0.30130  Biso   1.000  N
  C33      1.0000 0.88497  0.22628  0.33510  Biso   1.000  C
  C34      1.0000 0.38497  0.72628  0.33510  Biso   1.000  C
  C35      1.0000 0.88497  0.77372  0.83510  Biso   1.000  C
  C36      1.0000 0.38497  0.27372  0.83510  Biso   1.000  C
  C37      1.0000 0.11503  0.77372  0.66490  Biso   1.000  C
  C38      1.0000 0.61503  0.27372  0.66490  Biso   1.000  C
  C39      1.0000 0.11503  0.22628  0.16490  Biso   1.000  C
  C40      1.0000 0.61503  0.72628  0.16490  Biso   1.000  C
  N33      1.0000 0.93631  0.21035  0.47950  Biso   1.000  N
  N34      1.0000 0.43631  0.71035  0.47950  Biso   1.000  N
  N35      1.0000 0.93631  0.78965  0.97950  Biso   1.000  N
  N36      1.0000 0.43631  0.28965  0.97950  Biso   1.000  N
  N37      1.0000 0.06369  0.78965  0.52050  Biso   1.000  N
  N38      1.0000 0.56369  0.28965  0.52050  Biso   1.000  N
  N39      1.0000 0.06369  0.21035  0.02050  Biso   1.000  N
  N40      1.0000 0.56369  0.71035  0.02050  Biso   1.000  N
  C41      1.0000 0.89719  0.22256  0.63280  Biso   1.000  C
  C42      1.0000 0.39719  0.72256  0.63280  Biso   1.000  C
  C43      1.0000 0.89719  0.77744  0.13280  Biso   1.000  C
  C44      1.0000 0.39719  0.27744  0.13280  Biso   1.000  C
  C45      1.0000 0.10281  0.77744  0.36720  Biso   1.000  C
  C46      1.0000 0.60281  0.27744  0.36720  Biso   1.000  C
  C47      1.0000 0.10281  0.22256  0.86720  Biso   1.000  C
  C48      1.0000 0.60281  0.72256  0.86720  Biso   1.000  C
  N41      1.0000 0.86937  0.23110  0.77390  Biso   1.000  N
  N42      1.0000 0.36937  0.73110  0.77390  Biso   1.000  N
  N43      1.0000 0.86937  0.76890  0.27390  Biso   1.000  N
  N44      1.0000 0.36937  0.26890  0.27390  Biso   1.000  N
  N45      1.0000 0.13063  0.76890  0.22610  Biso   1.000  N
  N46      1.0000 0.63063  0.26890  0.22610  Biso   1.000  N
  N47      1.0000 0.13063  0.23110  0.72610  Biso   1.000  N
  N48      1.0000 0.63063  0.73110  0.72610  Biso   1.000  N
