data_image0
_cell_length_a       11.804
_cell_length_b       14.022
_cell_length_c       15.576
_cell_angle_alpha    90
_cell_angle_beta     93.643
_cell_angle_gamma    90

_symmetry_space_group_name_H-M    "P 1"
_symmetry_int_tables_number       1

loop_
  _symmetry_equiv_pos_as_xyz
  'x, y, z'

loop_
  _atom_site_label
  _atom_site_occupancy
  _atom_site_fract_x
  _atom_site_fract_y
  _atom_site_fract_z
  _atom_site_thermal_displace_type
  _atom_site_B_iso_or_equiv
  _atom_site_type_symbol
  Cu1      1.0000 0.31458  0.31196  0.30456  Biso   1.000  Cu
  Cu2      1.0000 0.68542  0.81196  0.19544  Biso   1.000  Cu
  Cu3      1.0000 0.68542  0.68804  0.69544  Biso   1.000  Cu
  Cu4      1.0000 0.31458  0.18804  0.80456  Biso   1.000  Cu
  O1       1.0000 0.17585  0.33076  0.39559  Biso   1.000  O
  O2       1.0000 0.82415  0.83076  0.10441  Biso   1.000  O
  O3       1.0000 0.82415  0.66924  0.60441  Biso   1.000  O
  O4       1.0000 0.17585  0.16924  0.89559  Biso   1.000  O
  O5       1.0000 0.29630  0.41387  0.48404  Biso   1.000  O
  O6       1.0000 0.70370  0.91387  0.01596  Biso   1.000  O
  O7       1.0000 0.70370  0.58613  0.51596  Biso   1.000  O
  O8       1.0000 0.29630  0.08613  0.98404  Biso   1.000  O
  O9       1.0000 0.36470  0.17777  0.63242  Biso   1.000  O
  O10      1.0000 0.63530  0.67777  0.86758  Biso   1.000  O
  O11      1.0000 0.63530  0.82223  0.36758  Biso   1.000  O
  O12      1.0000 0.36470  0.32223  0.13242  Biso   1.000  O
  O13      1.0000 0.20585  0.18230  0.70348  Biso   1.000  O
  O14      1.0000 0.79415  0.68230  0.79652  Biso   1.000  O
  O15      1.0000 0.79415  0.81770  0.29652  Biso   1.000  O
  O16      1.0000 0.20585  0.31770  0.20348  Biso   1.000  O
  O17      1.0000 0.98710  0.13577  0.68945  Biso   1.000  O
  O18      1.0000 0.01290  0.63577  0.81055  Biso   1.000  O
  O19      1.0000 0.01290  0.86423  0.31055  Biso   1.000  O
  O20      1.0000 0.98710  0.36423  0.18945  Biso   1.000  O
  H1       1.0000 0.05320  0.15370  0.69640  Biso   1.000  H
  H2       1.0000 0.94680  0.65370  0.80360  Biso   1.000  H
  H3       1.0000 0.94680  0.84630  0.30360  Biso   1.000  H
  H4       1.0000 0.05320  0.34630  0.19640  Biso   1.000  H
  O21      1.0000 0.82090  0.20101  0.65034  Biso   1.000  O
  O22      1.0000 0.17910  0.70101  0.84966  Biso   1.000  O
  O23      1.0000 0.17910  0.79899  0.34966  Biso   1.000  O
  O24      1.0000 0.82090  0.29899  0.15034  Biso   1.000  O
  O25      1.0000 0.95786  0.29418  0.37577  Biso   1.000  O
  O26      1.0000 0.04214  0.79418  0.12423  Biso   1.000  O
  O27      1.0000 0.04214  0.70582  0.62423  Biso   1.000  O
  O28      1.0000 0.95786  0.20582  0.87577  Biso   1.000  O
  H5       1.0000 0.02610  0.30430  0.38410  Biso   1.000  H
  H6       1.0000 0.97390  0.80430  0.11590  Biso   1.000  H
  H7       1.0000 0.97390  0.69570  0.61590  Biso   1.000  H
  H8       1.0000 0.02610  0.19570  0.88410  Biso   1.000  H
  O29      1.0000 0.84260  0.17130  0.38594  Biso   1.000  O
  O30      1.0000 0.15740  0.67130  0.11406  Biso   1.000  O
  O31      1.0000 0.15740  0.82870  0.61406  Biso   1.000  O
  O32      1.0000 0.84260  0.32870  0.88594  Biso   1.000  O
  N1       1.0000 0.33010  0.16620  0.31321  Biso   1.000  N
  N2       1.0000 0.66990  0.66620  0.18679  Biso   1.000  N
  N3       1.0000 0.66990  0.83380  0.68679  Biso   1.000  N
  N4       1.0000 0.33010  0.33380  0.81321  Biso   1.000  N
  N5       1.0000 0.45730  0.30210  0.37347  Biso   1.000  N
  N6       1.0000 0.54270  0.80210  0.12653  Biso   1.000  N
  N7       1.0000 0.54270  0.69790  0.62653  Biso   1.000  N
  N8       1.0000 0.45730  0.19790  0.87347  Biso   1.000  N
  N9       1.0000 0.36520  0.45190  0.30322  Biso   1.000  N
  N10      1.0000 0.63480  0.95190  0.19678  Biso   1.000  N
  N11      1.0000 0.63480  0.54810  0.69678  Biso   1.000  N
  N12      1.0000 0.36520  0.04810  0.80322  Biso   1.000  N
  C1       1.0000 0.31200  0.52540  0.26420  Biso   1.000  C
  C2       1.0000 0.68800  0.02540  0.23580  Biso   1.000  C
  C3       1.0000 0.68800  0.47460  0.73580  Biso   1.000  C
  C4       1.0000 0.31200  0.97460  0.76420  Biso   1.000  C
  H9       1.0000 0.24650  0.51320  0.22960  Biso   1.000  H
  H10      1.0000 0.75350  0.01320  0.27040  Biso   1.000  H
  H11      1.0000 0.75350  0.48680  0.77040  Biso   1.000  H
  H12      1.0000 0.24650  0.98680  0.72960  Biso   1.000  H
  C5       1.0000 0.34920  0.61910  0.27260  Biso   1.000  C
  C6       1.0000 0.65080  0.11910  0.22740  Biso   1.000  C
  C7       1.0000 0.65080  0.38090  0.72740  Biso   1.000  C
  C8       1.0000 0.34920  0.88090  0.77260  Biso   1.000  C
  H13      1.0000 0.30960  0.66860  0.24460  Biso   1.000  H
  H14      1.0000 0.69040  0.16860  0.25540  Biso   1.000  H
  H15      1.0000 0.69040  0.33140  0.75540  Biso   1.000  H
  H16      1.0000 0.30960  0.83140  0.74460  Biso   1.000  H
  C9       1.0000 0.44760  0.63630  0.32420  Biso   1.000  C
  C10      1.0000 0.55240  0.13630  0.17580  Biso   1.000  C
  C11      1.0000 0.55240  0.36370  0.67580  Biso   1.000  C
  C12      1.0000 0.44760  0.86370  0.82420  Biso   1.000  C
  H17      1.0000 0.47540  0.69800  0.33110  Biso   1.000  H
  H18      1.0000 0.52460  0.19800  0.16890  Biso   1.000  H
  H19      1.0000 0.52460  0.30200  0.66890  Biso   1.000  H
  H20      1.0000 0.47540  0.80200  0.83110  Biso   1.000  H
  C13      1.0000 0.50350  0.56120  0.36480  Biso   1.000  C
  C14      1.0000 0.49650  0.06120  0.13520  Biso   1.000  C
  C15      1.0000 0.49650  0.43880  0.63520  Biso   1.000  C
  C16      1.0000 0.50350  0.93880  0.86480  Biso   1.000  C
  H21      1.0000 0.56930  0.57200  0.39950  Biso   1.000  H
  H22      1.0000 0.43070  0.07200  0.10050  Biso   1.000  H
  H23      1.0000 0.43070  0.42800  0.60050  Biso   1.000  H
  H24      1.0000 0.56930  0.92800  0.89950  Biso   1.000  H
  C17      1.0000 0.46140  0.46940  0.35400  Biso   1.000  C
  C18      1.0000 0.53860  0.96940  0.14600  Biso   1.000  C
  C19      1.0000 0.53860  0.53060  0.64600  Biso   1.000  C
  C20      1.0000 0.46140  0.03060  0.85400  Biso   1.000  C
  C21      1.0000 0.51400  0.38300  0.39390  Biso   1.000  C
  C22      1.0000 0.48600  0.88300  0.10610  Biso   1.000  C
  C23      1.0000 0.48600  0.61700  0.60610  Biso   1.000  C
  C24      1.0000 0.51400  0.11700  0.89390  Biso   1.000  C
  C25      1.0000 0.61310  0.37860  0.44780  Biso   1.000  C
  C26      1.0000 0.38690  0.87860  0.05220  Biso   1.000  C
  C27      1.0000 0.38690  0.62140  0.55220  Biso   1.000  C
  C28      1.0000 0.61310  0.12140  0.94780  Biso   1.000  C
  H25      1.0000 0.65400  0.43350  0.46240  Biso   1.000  H
  H26      1.0000 0.34600  0.93350  0.03760  Biso   1.000  H
  H27      1.0000 0.34600  0.56650  0.53760  Biso   1.000  H
  H28      1.0000 0.65400  0.06650  0.96240  Biso   1.000  H
  C29      1.0000 0.64870  0.29080  0.47870  Biso   1.000  C
  C30      1.0000 0.35130  0.79080  0.02130  Biso   1.000  C
  C31      1.0000 0.35130  0.70920  0.52130  Biso   1.000  C
  C32      1.0000 0.64870  0.20920  0.97870  Biso   1.000  C
  H29      1.0000 0.71330  0.28700  0.51610  Biso   1.000  H
  H30      1.0000 0.28670  0.78700  0.98390  Biso   1.000  H
  H31      1.0000 0.28670  0.71300  0.48390  Biso   1.000  H
  H32      1.0000 0.71330  0.21300  0.01610  Biso   1.000  H
  C33      1.0000 0.59060  0.20850  0.45550  Biso   1.000  C
  C34      1.0000 0.40940  0.70850  0.04450  Biso   1.000  C
  C35      1.0000 0.40940  0.79150  0.54450  Biso   1.000  C
  C36      1.0000 0.59060  0.29150  0.95550  Biso   1.000  C
  H33      1.0000 0.61630  0.14940  0.47570  Biso   1.000  H
  H34      1.0000 0.38370  0.64940  0.02430  Biso   1.000  H
  H35      1.0000 0.38370  0.85060  0.52430  Biso   1.000  H
  H36      1.0000 0.61630  0.35060  0.97570  Biso   1.000  H
  C37      1.0000 0.49260  0.21570  0.40120  Biso   1.000  C
  C38      1.0000 0.50740  0.71570  0.09880  Biso   1.000  C
  C39      1.0000 0.50740  0.78430  0.59880  Biso   1.000  C
  C40      1.0000 0.49260  0.28430  0.90120  Biso   1.000  C
  C41      1.0000 0.42220  0.13690  0.36370  Biso   1.000  C
  C42      1.0000 0.57780  0.63690  0.13630  Biso   1.000  C
  C43      1.0000 0.57780  0.86310  0.63630  Biso   1.000  C
  C44      1.0000 0.42220  0.36310  0.86370  Biso   1.000  C
  C45      1.0000 0.44730  0.03970  0.37230  Biso   1.000  C
  C46      1.0000 0.55270  0.53970  0.12770  Biso   1.000  C
  C47      1.0000 0.55270  0.96030  0.62770  Biso   1.000  C
  C48      1.0000 0.44730  0.46030  0.87230  Biso   1.000  C
  H37      1.0000 0.50910  0.01980  0.40780  Biso   1.000  H
  H38      1.0000 0.49090  0.51980  0.09220  Biso   1.000  H
  H39      1.0000 0.49090  0.98020  0.59220  Biso   1.000  H
  H40      1.0000 0.50910  0.48020  0.90780  Biso   1.000  H
  C49      1.0000 0.37990  0.97350  0.32790  Biso   1.000  C
  C50      1.0000 0.62010  0.47350  0.17210  Biso   1.000  C
  C51      1.0000 0.62010  0.02650  0.67210  Biso   1.000  C
  C52      1.0000 0.37990  0.52650  0.82790  Biso   1.000  C
  H41      1.0000 0.39710  0.90890  0.33240  Biso   1.000  H
  H42      1.0000 0.60290  0.40890  0.16760  Biso   1.000  H
  H43      1.0000 0.60290  0.09110  0.66760  Biso   1.000  H
  H44      1.0000 0.39710  0.59110  0.83240  Biso   1.000  H
  C53      1.0000 0.28660  0.00370  0.27660  Biso   1.000  C
  C54      1.0000 0.71340  0.50370  0.22340  Biso   1.000  C
  C55      1.0000 0.71340  0.99630  0.72340  Biso   1.000  C
  C56      1.0000 0.28660  0.49630  0.77660  Biso   1.000  C
  H45      1.0000 0.23990  0.96000  0.24660  Biso   1.000  H
  H46      1.0000 0.76010  0.46000  0.25340  Biso   1.000  H
  H47      1.0000 0.76010  0.04000  0.75340  Biso   1.000  H
  H48      1.0000 0.23990  0.54000  0.74660  Biso   1.000  H
  C57      1.0000 0.26490  0.10120  0.27120  Biso   1.000  C
  C58      1.0000 0.73510  0.60120  0.22880  Biso   1.000  C
  C59      1.0000 0.73510  0.89880  0.72880  Biso   1.000  C
  C60      1.0000 0.26490  0.39880  0.77120  Biso   1.000  C
  H49      1.0000 0.20230  0.12190  0.23700  Biso   1.000  H
  H50      1.0000 0.79770  0.62190  0.26300  Biso   1.000  H
  H51      1.0000 0.79770  0.87810  0.76300  Biso   1.000  H
  H52      1.0000 0.20230  0.37810  0.73700  Biso   1.000  H
  C61      1.0000 0.20550  0.37280  0.46780  Biso   1.000  C
  C62      1.0000 0.79450  0.87280  0.03220  Biso   1.000  C
  C63      1.0000 0.79450  0.62720  0.53220  Biso   1.000  C
  C64      1.0000 0.20550  0.12720  0.96780  Biso   1.000  C
  C65      1.0000 0.26080  0.17140  0.63400  Biso   1.000  C
  C66      1.0000 0.73920  0.67140  0.86600  Biso   1.000  C
  C67      1.0000 0.73920  0.82860  0.36600  Biso   1.000  C
  C68      1.0000 0.26080  0.32860  0.13400  Biso   1.000  C
  C69      1.0000 0.92350  0.20620  0.65480  Biso   1.000  C
  C70      1.0000 0.07650  0.70620  0.84520  Biso   1.000  C
  C71      1.0000 0.07650  0.79380  0.34520  Biso   1.000  C
  C72      1.0000 0.92350  0.29380  0.15480  Biso   1.000  C
  C73      1.0000 0.93440  0.20660  0.40230  Biso   1.000  C
  C74      1.0000 0.06560  0.70660  0.09770  Biso   1.000  C
  C75      1.0000 0.06560  0.79340  0.59770  Biso   1.000  C
  C76      1.0000 0.93440  0.29340  0.90230  Biso   1.000  C
  C77      1.0000 0.11870  0.37180  0.53603  Biso   1.000  C
  C78      1.0000 0.88130  0.87180  0.96397  Biso   1.000  C
  C79      1.0000 0.88130  0.62820  0.46397  Biso   1.000  C
  C80      1.0000 0.11870  0.12820  0.03603  Biso   1.000  C
  C81      1.0000 0.09380  0.45870  0.57600  Biso   1.000  C
  C82      1.0000 0.90620  0.95870  0.92400  Biso   1.000  C
  C83      1.0000 0.90620  0.54130  0.42400  Biso   1.000  C
  C84      1.0000 0.09380  0.04130  0.07600  Biso   1.000  C
  H53      1.0000 0.13130  0.51400  0.56100  Biso   1.000  H
  H54      1.0000 0.86870  0.01400  0.93900  Biso   1.000  H
  H55      1.0000 0.86870  0.48600  0.43900  Biso   1.000  H
  H56      1.0000 0.13130  0.98600  0.06100  Biso   1.000  H
  C85      1.0000 0.01430  0.46270  0.63740  Biso   1.000  C
  C86      1.0000 0.98570  0.96270  0.86260  Biso   1.000  C
  C87      1.0000 0.98570  0.53730  0.36260  Biso   1.000  C
  C88      1.0000 0.01430  0.03730  0.13740  Biso   1.000  C
  H57      1.0000 0.99770  0.52060  0.66290  Biso   1.000  H
  H58      1.0000 0.00230  0.02060  0.83710  Biso   1.000  H
  H59      1.0000 0.00230  0.47940  0.33710  Biso   1.000  H
  H60      1.0000 0.99770  0.97940  0.16290  Biso   1.000  H
  C89      1.0000 0.95950  0.38070  0.66080  Biso   1.000  C
  C90      1.0000 0.04050  0.88070  0.83920  Biso   1.000  C
  C91      1.0000 0.04050  0.61930  0.33920  Biso   1.000  C
  C92      1.0000 0.95950  0.11930  0.16080  Biso   1.000  C
  H61      1.0000 0.90560  0.38360  0.70170  Biso   1.000  H
  H62      1.0000 0.09440  0.88360  0.79830  Biso   1.000  H
  H63      1.0000 0.09440  0.61640  0.29830  Biso   1.000  H
  H64      1.0000 0.90560  0.11640  0.20170  Biso   1.000  H
  C93      1.0000 0.98450  0.29330  0.62316  Biso   1.000  C
  C94      1.0000 0.01550  0.79330  0.87684  Biso   1.000  C
  C95      1.0000 0.01550  0.70670  0.37684  Biso   1.000  C
  C96      1.0000 0.98450  0.20670  0.12316  Biso   1.000  C
  C97      1.0000 0.06470  0.28730  0.56029  Biso   1.000  C
  C98      1.0000 0.93530  0.78730  0.93971  Biso   1.000  C
  C99      1.0000 0.93530  0.71270  0.43971  Biso   1.000  C
  C100     1.0000 0.06470  0.21270  0.06029  Biso   1.000  C
  C101     1.0000 0.09530  0.19300  0.52119  Biso   1.000  C
  C102     1.0000 0.90470  0.69300  0.97881  Biso   1.000  C
  C103     1.0000 0.90470  0.80700  0.47881  Biso   1.000  C
  C104     1.0000 0.09530  0.30700  0.02119  Biso   1.000  C
  C105     1.0000 0.18840  0.14070  0.55553  Biso   1.000  C
  C106     1.0000 0.81160  0.64070  0.94447  Biso   1.000  C
  C107     1.0000 0.81160  0.85930  0.44447  Biso   1.000  C
  C108     1.0000 0.18840  0.35930  0.05553  Biso   1.000  C
  C109     1.0000 0.21520  0.05190  0.52040  Biso   1.000  C
  C110     1.0000 0.78480  0.55190  0.97960  Biso   1.000  C
  C111     1.0000 0.78480  0.94810  0.47960  Biso   1.000  C
  C112     1.0000 0.21520  0.44810  0.02040  Biso   1.000  C
  H65      1.0000 0.27840  0.01850  0.54280  Biso   1.000  H
  H66      1.0000 0.72160  0.51850  0.95720  Biso   1.000  H
  H67      1.0000 0.72160  0.98150  0.45720  Biso   1.000  H
  H68      1.0000 0.27840  0.48150  0.04280  Biso   1.000  H
  C113     1.0000 0.14850  0.01380  0.45310  Biso   1.000  C
  C114     1.0000 0.85150  0.51380  0.04690  Biso   1.000  C
  C115     1.0000 0.85150  0.98620  0.54690  Biso   1.000  C
  C116     1.0000 0.14850  0.48620  0.95310  Biso   1.000  C
  H69      1.0000 0.16540  0.95420  0.43110  Biso   1.000  H
  H70      1.0000 0.83460  0.45420  0.06890  Biso   1.000  H
  H71      1.0000 0.83460  0.04580  0.56890  Biso   1.000  H
  H72      1.0000 0.16540  0.54580  0.93110  Biso   1.000  H
  C117     1.0000 0.05660  0.06470  0.41860  Biso   1.000  C
  C118     1.0000 0.94340  0.56470  0.08140  Biso   1.000  C
  C119     1.0000 0.94340  0.93530  0.58140  Biso   1.000  C
  C120     1.0000 0.05660  0.43530  0.91860  Biso   1.000  C
  H73      1.0000 0.01140  0.03860  0.37350  Biso   1.000  H
  H74      1.0000 0.98860  0.53860  0.12650  Biso   1.000  H
  H75      1.0000 0.98860  0.96140  0.62650  Biso   1.000  H
  H76      1.0000 0.01140  0.46140  0.87350  Biso   1.000  H
  C121     1.0000 0.03040  0.15420  0.45000  Biso   1.000  C
  C122     1.0000 0.96960  0.65420  0.05000  Biso   1.000  C
  C123     1.0000 0.96960  0.84580  0.55000  Biso   1.000  C
  C124     1.0000 0.03040  0.34580  0.95000  Biso   1.000  C
