data_image0
_cell_length_a       14.37
_cell_length_b       14.37
_cell_length_c       26.464
_cell_angle_alpha    90
_cell_angle_beta     90
_cell_angle_gamma    90

_symmetry_space_group_name_H-M    "P 1"
_symmetry_int_tables_number       1

loop_
  _symmetry_equiv_pos_as_xyz
  'x, y, z'

loop_
  _atom_site_label
  _atom_site_occupancy
  _atom_site_fract_x
  _atom_site_fract_y
  _atom_site_fract_z
  _atom_site_thermal_displace_type
  _atom_site_B_iso_or_equiv
  _atom_site_type_symbol
  C1       1.0000 0.50000  0.87790  0.43270  Biso   1.000  C
  C2       1.0000 0.50000  0.12210  0.43270  Biso   1.000  C
  C3       1.0000 0.12210  0.50000  0.93270  Biso   1.000  C
  C4       1.0000 0.87790  0.50000  0.93270  Biso   1.000  C
  C5       1.0000 0.50000  0.87790  0.56730  Biso   1.000  C
  C6       1.0000 0.50000  0.12210  0.56730  Biso   1.000  C
  C7       1.0000 0.87790  0.50000  0.06730  Biso   1.000  C
  C8       1.0000 0.12210  0.50000  0.06730  Biso   1.000  C
  C9       1.0000 0.50000  0.81340  0.39480  Biso   1.000  C
  C10      1.0000 0.50000  0.18660  0.39480  Biso   1.000  C
  C11      1.0000 0.18660  0.50000  0.89480  Biso   1.000  C
  C12      1.0000 0.81340  0.50000  0.89480  Biso   1.000  C
  C13      1.0000 0.50000  0.81340  0.60520  Biso   1.000  C
  C14      1.0000 0.50000  0.18660  0.60520  Biso   1.000  C
  C15      1.0000 0.81340  0.50000  0.10520  Biso   1.000  C
  C16      1.0000 0.18660  0.50000  0.10520  Biso   1.000  C
  C17      1.0000 0.42650  0.78060  0.37410  Biso   1.000  C
  C18      1.0000 0.57350  0.21940  0.37410  Biso   1.000  C
  C19      1.0000 0.21940  0.42650  0.87410  Biso   1.000  C
  C20      1.0000 0.78060  0.57350  0.87410  Biso   1.000  C
  C21      1.0000 0.57350  0.78060  0.62590  Biso   1.000  C
  C22      1.0000 0.42650  0.21940  0.62590  Biso   1.000  C
  C23      1.0000 0.78060  0.42650  0.12590  Biso   1.000  C
  C24      1.0000 0.21940  0.57350  0.12590  Biso   1.000  C
  C25      1.0000 0.57350  0.21940  0.62590  Biso   1.000  C
  C26      1.0000 0.42650  0.78060  0.62590  Biso   1.000  C
  C27      1.0000 0.78060  0.57350  0.12590  Biso   1.000  C
  C28      1.0000 0.21940  0.42650  0.12590  Biso   1.000  C
  C29      1.0000 0.42650  0.21940  0.37410  Biso   1.000  C
  C30      1.0000 0.57350  0.78060  0.37410  Biso   1.000  C
  C31      1.0000 0.21940  0.57350  0.87410  Biso   1.000  C
  C32      1.0000 0.78060  0.42650  0.87410  Biso   1.000  C
  H1       1.0000 0.37010  0.80560  0.38470  Biso   1.000  H
  H2       1.0000 0.62990  0.19440  0.38470  Biso   1.000  H
  H3       1.0000 0.19440  0.37010  0.88470  Biso   1.000  H
  H4       1.0000 0.80560  0.62990  0.88470  Biso   1.000  H
  H5       1.0000 0.62990  0.80560  0.61530  Biso   1.000  H
  H6       1.0000 0.37010  0.19440  0.61530  Biso   1.000  H
  H7       1.0000 0.80560  0.37010  0.11530  Biso   1.000  H
  H8       1.0000 0.19440  0.62990  0.11530  Biso   1.000  H
  H9       1.0000 0.62990  0.19440  0.61530  Biso   1.000  H
  H10      1.0000 0.37010  0.80560  0.61530  Biso   1.000  H
  H11      1.0000 0.80560  0.62990  0.11530  Biso   1.000  H
  H12      1.0000 0.19440  0.37010  0.11530  Biso   1.000  H
  H13      1.0000 0.37010  0.19440  0.38470  Biso   1.000  H
  H14      1.0000 0.62990  0.80560  0.38470  Biso   1.000  H
  H15      1.0000 0.19440  0.62990  0.88470  Biso   1.000  H
  H16      1.0000 0.80560  0.37010  0.88470  Biso   1.000  H
  C33      1.0000 0.42230  0.71160  0.33760  Biso   1.000  C
  C34      1.0000 0.57770  0.28840  0.33760  Biso   1.000  C
  C35      1.0000 0.28840  0.42230  0.83760  Biso   1.000  C
  C36      1.0000 0.71160  0.57770  0.83760  Biso   1.000  C
  C37      1.0000 0.57770  0.71160  0.66240  Biso   1.000  C
  C38      1.0000 0.42230  0.28840  0.66240  Biso   1.000  C
  C39      1.0000 0.71160  0.42230  0.16240  Biso   1.000  C
  C40      1.0000 0.28840  0.57770  0.16240  Biso   1.000  C
  C41      1.0000 0.57770  0.28840  0.66240  Biso   1.000  C
  C42      1.0000 0.42230  0.71160  0.66240  Biso   1.000  C
  C43      1.0000 0.71160  0.57770  0.16240  Biso   1.000  C
  C44      1.0000 0.28840  0.42230  0.16240  Biso   1.000  C
  C45      1.0000 0.42230  0.28840  0.33760  Biso   1.000  C
  C46      1.0000 0.57770  0.71160  0.33760  Biso   1.000  C
  C47      1.0000 0.28840  0.57770  0.83760  Biso   1.000  C
  C48      1.0000 0.71160  0.42230  0.83760  Biso   1.000  C
  H17      1.0000 0.36490  0.69000  0.32630  Biso   1.000  H
  H18      1.0000 0.63510  0.31000  0.32630  Biso   1.000  H
  H19      1.0000 0.31000  0.36490  0.82630  Biso   1.000  H
  H20      1.0000 0.69000  0.63510  0.82630  Biso   1.000  H
  H21      1.0000 0.63510  0.69000  0.67370  Biso   1.000  H
  H22      1.0000 0.36490  0.31000  0.67370  Biso   1.000  H
  H23      1.0000 0.69000  0.36490  0.17370  Biso   1.000  H
  H24      1.0000 0.31000  0.63510  0.17370  Biso   1.000  H
  H25      1.0000 0.63510  0.31000  0.67370  Biso   1.000  H
  H26      1.0000 0.36490  0.69000  0.67370  Biso   1.000  H
  H27      1.0000 0.69000  0.63510  0.17370  Biso   1.000  H
  H28      1.0000 0.31000  0.36490  0.17370  Biso   1.000  H
  H29      1.0000 0.36490  0.31000  0.32630  Biso   1.000  H
  H30      1.0000 0.63510  0.69000  0.32630  Biso   1.000  H
  H31      1.0000 0.31000  0.63510  0.82630  Biso   1.000  H
  H32      1.0000 0.69000  0.36490  0.82630  Biso   1.000  H
  C49      1.0000 0.50000  0.67650  0.31870  Biso   1.000  C
  C50      1.0000 0.50000  0.32350  0.31870  Biso   1.000  C
  C51      1.0000 0.32350  0.50000  0.81870  Biso   1.000  C
  C52      1.0000 0.67650  0.50000  0.81870  Biso   1.000  C
  C53      1.0000 0.50000  0.67650  0.68130  Biso   1.000  C
  C54      1.0000 0.50000  0.32350  0.68130  Biso   1.000  C
  C55      1.0000 0.67650  0.50000  0.18130  Biso   1.000  C
  C56      1.0000 0.32350  0.50000  0.18130  Biso   1.000  C
  C57      1.0000 0.50000  0.59000  0.28190  Biso   1.000  C
  C58      1.0000 0.50000  0.41000  0.28190  Biso   1.000  C
  C59      1.0000 0.41000  0.50000  0.78190  Biso   1.000  C
  C60      1.0000 0.59000  0.50000  0.78190  Biso   1.000  C
  C61      1.0000 0.50000  0.59000  0.71810  Biso   1.000  C
  C62      1.0000 0.50000  0.41000  0.71810  Biso   1.000  C
  C63      1.0000 0.59000  0.50000  0.21810  Biso   1.000  C
  C64      1.0000 0.41000  0.50000  0.21810  Biso   1.000  C
  C65      1.0000 0.41240  0.58760  0.25000  Biso   1.000  C
  C66      1.0000 0.58760  0.41240  0.25000  Biso   1.000  C
  C67      1.0000 0.41240  0.41240  0.75000  Biso   1.000  C
  C68      1.0000 0.58760  0.58760  0.75000  Biso   1.000  C
  C69      1.0000 0.58760  0.41240  0.75000  Biso   1.000  C
  C70      1.0000 0.41240  0.58760  0.75000  Biso   1.000  C
  C71      1.0000 0.58760  0.58760  0.25000  Biso   1.000  C
  C72      1.0000 0.41240  0.41240  0.25000  Biso   1.000  C
  H33      1.0000 0.41060  0.64180  0.22820  Biso   1.000  H
  H34      1.0000 0.58940  0.35820  0.22820  Biso   1.000  H
  H35      1.0000 0.35820  0.41060  0.72820  Biso   1.000  H
  H36      1.0000 0.64180  0.58940  0.72820  Biso   1.000  H
  H37      1.0000 0.58940  0.64180  0.77180  Biso   1.000  H
  H38      1.0000 0.41060  0.35820  0.77180  Biso   1.000  H
  H39      1.0000 0.64180  0.41060  0.27180  Biso   1.000  H
  H40      1.0000 0.35820  0.58940  0.27180  Biso   1.000  H
  H41      1.0000 0.58940  0.35820  0.77180  Biso   1.000  H
  H42      1.0000 0.41060  0.64180  0.77180  Biso   1.000  H
  H43      1.0000 0.64180  0.58940  0.27180  Biso   1.000  H
  H44      1.0000 0.35820  0.41060  0.27180  Biso   1.000  H
  H45      1.0000 0.41060  0.35820  0.22820  Biso   1.000  H
  H46      1.0000 0.58940  0.64180  0.22820  Biso   1.000  H
  H47      1.0000 0.35820  0.58940  0.72820  Biso   1.000  H
  H48      1.0000 0.64180  0.41060  0.72820  Biso   1.000  H
  C73      1.0000 0.50000  0.50000  0.31430  Biso   1.000  C
  C74      1.0000 0.50000  0.50000  0.81430  Biso   1.000  C
  C75      1.0000 0.50000  0.50000  0.68570  Biso   1.000  C
  C76      1.0000 0.50000  0.50000  0.18570  Biso   1.000  C
  H49      1.0000 0.55450  0.50000  0.33590  Biso   1.000  H
  H50      1.0000 0.44550  0.50000  0.33590  Biso   1.000  H
  H51      1.0000 0.50000  0.55450  0.83590  Biso   1.000  H
  H52      1.0000 0.50000  0.44550  0.83590  Biso   1.000  H
  H53      1.0000 0.44550  0.50000  0.66410  Biso   1.000  H
  H54      1.0000 0.55450  0.50000  0.66410  Biso   1.000  H
  H55      1.0000 0.50000  0.55450  0.16410  Biso   1.000  H
  H56      1.0000 0.50000  0.44550  0.16410  Biso   1.000  H
  O1       1.0000 0.57620  0.90740  0.44910  Biso   1.000  O
  O2       1.0000 0.42380  0.09260  0.44910  Biso   1.000  O
  O3       1.0000 0.09260  0.57620  0.94910  Biso   1.000  O
  O4       1.0000 0.90740  0.42380  0.94910  Biso   1.000  O
  O5       1.0000 0.42380  0.90740  0.55090  Biso   1.000  O
  O6       1.0000 0.57620  0.09260  0.55090  Biso   1.000  O
  O7       1.0000 0.90740  0.57620  0.05090  Biso   1.000  O
  O8       1.0000 0.09260  0.42380  0.05090  Biso   1.000  O
  O9       1.0000 0.42380  0.09260  0.55090  Biso   1.000  O
  O10      1.0000 0.57620  0.90740  0.55090  Biso   1.000  O
  O11      1.0000 0.90740  0.42380  0.05090  Biso   1.000  O
  O12      1.0000 0.09260  0.57620  0.05090  Biso   1.000  O
  O13      1.0000 0.57620  0.09260  0.44910  Biso   1.000  O
  O14      1.0000 0.42380  0.90740  0.44910  Biso   1.000  O
  O15      1.0000 0.09260  0.42380  0.94910  Biso   1.000  O
  O16      1.0000 0.90740  0.57620  0.94910  Biso   1.000  O
  O17      1.0000 0.74850  0.00000  0.50000  Biso   1.000  O
  O18      1.0000 0.25150  0.00000  0.50000  Biso   1.000  O
  O19      1.0000 0.00000  0.74850  0.00000  Biso   1.000  O
  O20      1.0000 0.00000  0.25150  0.00000  Biso   1.000  O
  Cu1      1.0000 0.59214  0.00000  0.50000  Biso   1.000  Cu
  Cu2      1.0000 0.40786  0.00000  0.50000  Biso   1.000  Cu
  Cu3      1.0000 0.00000  0.59214  0.00000  Biso   1.000  Cu
  Cu4      1.0000 0.00000  0.40786  0.00000  Biso   1.000  Cu
