data_image0
_cell_length_a       7.347
_cell_length_b       14.788
_cell_length_c       7.209
_cell_angle_alpha    90
_cell_angle_beta     94.676
_cell_angle_gamma    90

_symmetry_space_group_name_H-M    "P 1"
_symmetry_int_tables_number       1

loop_
  _symmetry_equiv_pos_as_xyz
  'x, y, z'

loop_
  _atom_site_label
  _atom_site_occupancy
  _atom_site_fract_x
  _atom_site_fract_y
  _atom_site_fract_z
  _atom_site_thermal_displace_type
  _atom_site_B_iso_or_equiv
  _atom_site_type_symbol
  Cu1      1.0000 0.50000  0.00000  0.00000  Biso   1.000  Cu
  Cu2      1.0000 0.50000  0.50000  0.50000  Biso   1.000  Cu
  O1       1.0000 0.63597  0.11062  0.96740  Biso   1.000  O
  O2       1.0000 0.36403  0.61062  0.53260  Biso   1.000  O
  O3       1.0000 0.36403  0.88938  0.03260  Biso   1.000  O
  O4       1.0000 0.63597  0.38938  0.46740  Biso   1.000  O
  O5       1.0000 0.31640  0.48334  0.16620  Biso   1.000  O
  O6       1.0000 0.68360  0.98334  0.33380  Biso   1.000  O
  O7       1.0000 0.68360  0.51666  0.83380  Biso   1.000  O
  O8       1.0000 0.31640  0.01666  0.66620  Biso   1.000  O
  O9       1.0000 0.06590  0.40609  0.16330  Biso   1.000  O
  O10      1.0000 0.93410  0.90609  0.33670  Biso   1.000  O
  O11      1.0000 0.93410  0.59391  0.83670  Biso   1.000  O
  O12      1.0000 0.06590  0.09391  0.66330  Biso   1.000  O
  N1       1.0000 0.31670  0.08149  0.09020  Biso   1.000  N
  N2       1.0000 0.68330  0.58149  0.40980  Biso   1.000  N
  N3       1.0000 0.68330  0.91851  0.90980  Biso   1.000  N
  N4       1.0000 0.31670  0.41851  0.59020  Biso   1.000  N
  N5       1.0000 0.23220  0.41068  0.14680  Biso   1.000  N
  N6       1.0000 0.76780  0.91068  0.35320  Biso   1.000  N
  N7       1.0000 0.76780  0.58932  0.85320  Biso   1.000  N
  N8       1.0000 0.23220  0.08932  0.64680  Biso   1.000  N
  C1       1.0000 0.15770  0.06069  0.15100  Biso   1.000  C
  C2       1.0000 0.84230  0.56069  0.34900  Biso   1.000  C
  C3       1.0000 0.84230  0.93931  0.84900  Biso   1.000  C
  C4       1.0000 0.15770  0.43931  0.65100  Biso   1.000  C
  H1       1.0000 0.12360  0.99900  0.16010  Biso   1.000  H
  H2       1.0000 0.87640  0.49900  0.33990  Biso   1.000  H
  H3       1.0000 0.87640  0.00100  0.83990  Biso   1.000  H
  H4       1.0000 0.12360  0.50100  0.66010  Biso   1.000  H
  C5       1.0000 0.03800  0.12835  0.20250  Biso   1.000  C
  C6       1.0000 0.96200  0.62835  0.29750  Biso   1.000  C
  C7       1.0000 0.96200  0.87165  0.79750  Biso   1.000  C
  C8       1.0000 0.03800  0.37165  0.70250  Biso   1.000  C
  H5       1.0000 0.92420  0.11210  0.24680  Biso   1.000  H
  H6       1.0000 0.07580  0.61210  0.25320  Biso   1.000  H
  H7       1.0000 0.07580  0.88790  0.75320  Biso   1.000  H
  H8       1.0000 0.92420  0.38790  0.74680  Biso   1.000  H
  C9       1.0000 0.08420  0.21744  0.18920  Biso   1.000  C
  C10      1.0000 0.91580  0.71744  0.31080  Biso   1.000  C
  C11      1.0000 0.91580  0.78256  0.81080  Biso   1.000  C
  C12      1.0000 0.08420  0.28256  0.68920  Biso   1.000  C
  H9       1.0000 0.00230  0.26300  0.22390  Biso   1.000  H
  H10      1.0000 0.99770  0.76300  0.27610  Biso   1.000  H
  H11      1.0000 0.99770  0.73700  0.77610  Biso   1.000  H
  H12      1.0000 0.00230  0.23700  0.72390  Biso   1.000  H
  C13      1.0000 0.25490  0.24215  0.12350  Biso   1.000  C
  C14      1.0000 0.74510  0.74215  0.37650  Biso   1.000  C
  C15      1.0000 0.74510  0.75785  0.87650  Biso   1.000  C
  C16      1.0000 0.25490  0.25785  0.62350  Biso   1.000  C
  C17      1.0000 0.33130  0.33047  0.10550  Biso   1.000  C
  C18      1.0000 0.66870  0.83047  0.39450  Biso   1.000  C
  C19      1.0000 0.66870  0.66953  0.89450  Biso   1.000  C
  C20      1.0000 0.33130  0.16953  0.60550  Biso   1.000  C
  C21      1.0000 0.50440  0.34189  0.04640  Biso   1.000  C
  C22      1.0000 0.49560  0.84189  0.45360  Biso   1.000  C
  C23      1.0000 0.49560  0.65811  0.95360  Biso   1.000  C
  C24      1.0000 0.50440  0.15811  0.54640  Biso   1.000  C
  H13      1.0000 0.55110  0.40150  0.03850  Biso   1.000  H
  H14      1.0000 0.44890  0.90150  0.46150  Biso   1.000  H
  H15      1.0000 0.44890  0.59850  0.96150  Biso   1.000  H
  H16      1.0000 0.55110  0.09850  0.53850  Biso   1.000  H
  C25      1.0000 0.61250  0.27042  0.99820  Biso   1.000  C
  C26      1.0000 0.38750  0.77042  0.50180  Biso   1.000  C
  C27      1.0000 0.38750  0.72958  0.00180  Biso   1.000  C
  C28      1.0000 0.61250  0.22958  0.49820  Biso   1.000  C
  H17      1.0000 0.73000  0.28140  0.95700  Biso   1.000  H
  H18      1.0000 0.27000  0.78140  0.54300  Biso   1.000  H
  H19      1.0000 0.27000  0.71860  0.04300  Biso   1.000  H
  H20      1.0000 0.73000  0.21860  0.45700  Biso   1.000  H
  C29      1.0000 0.54730  0.18148  0.01070  Biso   1.000  C
  C30      1.0000 0.45270  0.68148  0.48930  Biso   1.000  C
  C31      1.0000 0.45270  0.81852  0.98930  Biso   1.000  C
  C32      1.0000 0.54730  0.31852  0.51070  Biso   1.000  C
  C33      1.0000 0.36750  0.17005  0.07650  Biso   1.000  C
  C34      1.0000 0.63250  0.67005  0.42350  Biso   1.000  C
  C35      1.0000 0.63250  0.82995  0.92350  Biso   1.000  C
  C36      1.0000 0.36750  0.32995  0.57650  Biso   1.000  C
