data_image0
_cell_length_a       12.632
_cell_length_b       12.853
_cell_length_c       22.032
_cell_angle_alpha    90
_cell_angle_beta     98.894
_cell_angle_gamma    90

_symmetry_space_group_name_H-M    "P 1"
_symmetry_int_tables_number       1

loop_
  _symmetry_equiv_pos_as_xyz
  'x, y, z'

loop_
  _atom_site_label
  _atom_site_occupancy
  _atom_site_fract_x
  _atom_site_fract_y
  _atom_site_fract_z
  _atom_site_thermal_displace_type
  _atom_site_B_iso_or_equiv
  _atom_site_type_symbol
  W1       1.0000 0.27041  0.94689  0.98591  Biso   1.000  W
  W2       1.0000 0.22959  0.44689  0.51409  Biso   1.000  W
  W3       1.0000 0.72959  0.05311  0.01409  Biso   1.000  W
  W4       1.0000 0.77041  0.55311  0.48591  Biso   1.000  W
  O1       1.0000 0.12230  0.01190  0.78670  Biso   1.000  O
  O2       1.0000 0.37770  0.51190  0.71330  Biso   1.000  O
  O3       1.0000 0.87770  0.98810  0.21330  Biso   1.000  O
  O4       1.0000 0.62230  0.48810  0.28670  Biso   1.000  O
  W5       1.0000 0.89780  0.25340  0.97490  Biso   1.000  W
  W6       1.0000 0.60220  0.75340  0.52510  Biso   1.000  W
  W7       1.0000 0.10220  0.74660  0.02510  Biso   1.000  W
  W8       1.0000 0.39780  0.24660  0.47490  Biso   1.000  W
  O5       1.0000 0.11740  0.29220  0.15850  Biso   1.000  O
  O6       1.0000 0.38260  0.79220  0.34150  Biso   1.000  O
  O7       1.0000 0.88260  0.70780  0.84150  Biso   1.000  O
  O8       1.0000 0.61740  0.20780  0.65850  Biso   1.000  O
  W9       1.0000 0.16843  0.20186  0.96478  Biso   1.000  W
  W10      1.0000 0.33157  0.70186  0.53522  Biso   1.000  W
  W11      1.0000 0.83157  0.79814  0.03522  Biso   1.000  W
  W12      1.0000 0.66843  0.29814  0.46478  Biso   1.000  W
  Si1      1.0000 0.00000  0.00000  0.00000  Biso   1.000  Si
  Si2      1.0000 0.50000  0.50000  0.50000  Biso   1.000  Si
  W13      1.0000 0.07951  0.19631  0.10885  Biso   1.000  W
  W14      1.0000 0.42049  0.69631  0.39115  Biso   1.000  W
  W15      1.0000 0.92049  0.80369  0.89115  Biso   1.000  W
  W16      1.0000 0.57951  0.30369  0.60885  Biso   1.000  W
  O9       1.0000 0.72220  0.08670  0.80590  Biso   1.000  O
  O10      1.0000 0.77780  0.58670  0.69410  Biso   1.000  O
  O11      1.0000 0.27780  0.91330  0.19410  Biso   1.000  O
  O12      1.0000 0.22220  0.41330  0.30590  Biso   1.000  O
  W17      1.0000 0.08263  0.00850  0.85386  Biso   1.000  W
  W18      1.0000 0.41737  0.50850  0.64614  Biso   1.000  W
  W19      1.0000 0.91737  0.99150  0.14614  Biso   1.000  W
  W20      1.0000 0.58263  0.49150  0.35386  Biso   1.000  W
  O13      1.0000 0.20600  0.94950  0.90280  Biso   1.000  O
  O14      1.0000 0.29400  0.44950  0.59720  Biso   1.000  O
  O15      1.0000 0.79400  0.05050  0.09720  Biso   1.000  O
  O16      1.0000 0.70600  0.55050  0.40280  Biso   1.000  O
  W21      1.0000 0.81213  0.05593  0.86875  Biso   1.000  W
  W22      1.0000 0.68787  0.55593  0.63125  Biso   1.000  W
  W23      1.0000 0.18787  0.94407  0.13125  Biso   1.000  W
  W24      1.0000 0.31213  0.44407  0.36875  Biso   1.000  W
  O17      1.0000 0.02890  0.02440  0.07500  Biso   1.000  O
  O18      1.0000 0.47110  0.52440  0.42500  Biso   1.000  O
  O19      1.0000 0.97110  0.97560  0.92500  Biso   1.000  O
  O20      1.0000 0.52890  0.47560  0.57500  Biso   1.000  O
  O21      1.0000 0.03210  0.26690  0.95020  Biso   1.000  O
  O22      1.0000 0.46790  0.76690  0.54980  Biso   1.000  O
  O23      1.0000 0.96790  0.73310  0.04980  Biso   1.000  O
  O24      1.0000 0.53210  0.23310  0.45020  Biso   1.000  O
  O25      1.0000 0.98150  0.12890  0.14930  Biso   1.000  O
  O26      1.0000 0.51850  0.62890  0.35070  Biso   1.000  O
  O27      1.0000 0.01850  0.87110  0.85070  Biso   1.000  O
  O28      1.0000 0.48150  0.37110  0.64930  Biso   1.000  O
  O29      1.0000 0.27000  0.09680  0.98470  Biso   1.000  O
  O30      1.0000 0.23000  0.59680  0.51530  Biso   1.000  O
  O31      1.0000 0.73000  0.90320  0.01530  Biso   1.000  O
  O32      1.0000 0.77000  0.40320  0.48470  Biso   1.000  O
  O33      1.0000 0.84750  0.18800  0.89950  Biso   1.000  O
  O34      1.0000 0.65250  0.68800  0.60050  Biso   1.000  O
  O35      1.0000 0.15250  0.81200  0.10050  Biso   1.000  O
  O36      1.0000 0.34750  0.31200  0.39950  Biso   1.000  O
  O37      1.0000 0.39870  0.92480  0.97840  Biso   1.000  O
  O38      1.0000 0.10130  0.42480  0.52160  Biso   1.000  O
  O39      1.0000 0.60130  0.07520  0.02160  Biso   1.000  O
  O40      1.0000 0.89870  0.57520  0.47840  Biso   1.000  O
  O41      1.0000 0.25030  0.29760  0.94590  Biso   1.000  O
  O42      1.0000 0.24970  0.79760  0.55410  Biso   1.000  O
  O43      1.0000 0.74970  0.70240  0.05410  Biso   1.000  O
  O44      1.0000 0.75030  0.20240  0.44590  Biso   1.000  O
  O45      1.0000 0.94170  0.06020  0.83460  Biso   1.000  O
  O46      1.0000 0.55830  0.56020  0.66540  Biso   1.000  O
  O47      1.0000 0.05830  0.93980  0.16540  Biso   1.000  O
  O48      1.0000 0.44170  0.43980  0.33460  Biso   1.000  O
  O49      1.0000 0.09000  0.02850  0.96630  Biso   1.000  O
  O50      1.0000 0.41000  0.52850  0.53370  Biso   1.000  O
  O51      1.0000 0.91000  0.97150  0.03370  Biso   1.000  O
  O52      1.0000 0.59000  0.47150  0.46630  Biso   1.000  O
  O53      1.0000 0.84870  0.37470  0.96390  Biso   1.000  O
  O54      1.0000 0.65130  0.87470  0.53610  Biso   1.000  O
  O55      1.0000 0.15130  0.62530  0.03610  Biso   1.000  O
  O56      1.0000 0.34870  0.12530  0.46390  Biso   1.000  O
  O57      1.0000 0.96960  0.26130  0.05700  Biso   1.000  O
  O58      1.0000 0.53040  0.76130  0.44300  Biso   1.000  O
  O59      1.0000 0.03040  0.73870  0.94300  Biso   1.000  O
  O60      1.0000 0.46960  0.23870  0.55700  Biso   1.000  O
  O61      1.0000 0.78600  0.18820  0.00800  Biso   1.000  O
  O62      1.0000 0.71400  0.68820  0.49200  Biso   1.000  O
  O63      1.0000 0.21400  0.81180  0.99200  Biso   1.000  O
  O64      1.0000 0.28600  0.31180  0.50800  Biso   1.000  O
  O65      1.0000 0.16860  0.22400  0.04980  Biso   1.000  O
  O66      1.0000 0.33140  0.72400  0.45020  Biso   1.000  O
  O67      1.0000 0.83140  0.77600  0.95020  Biso   1.000  O
  O68      1.0000 0.66860  0.27600  0.54980  Biso   1.000  O
  O69      1.0000 0.12640  0.13890  0.88510  Biso   1.000  O
  O70      1.0000 0.37360  0.63890  0.61490  Biso   1.000  O
  O71      1.0000 0.87360  0.86110  0.11490  Biso   1.000  O
  O72      1.0000 0.62640  0.36110  0.38510  Biso   1.000  O
  O73      1.0000 0.72300  0.04050  0.92730  Biso   1.000  O
  O74      1.0000 0.77700  0.54050  0.57270  Biso   1.000  O
  O75      1.0000 0.27700  0.95950  0.07270  Biso   1.000  O
  O76      1.0000 0.22300  0.45950  0.42730  Biso   1.000  O
  O77      1.0000 0.10860  0.93120  0.02410  Biso   1.000  O
  O78      1.0000 0.39140  0.43120  0.47590  Biso   1.000  O
  O79      1.0000 0.89140  0.06880  0.97590  Biso   1.000  O
  O80      1.0000 0.60860  0.56880  0.52410  Biso   1.000  O
  O81      1.0000 0.03160  0.12230  0.00530  Biso   1.000  O
  O82      1.0000 0.46840  0.62230  0.49470  Biso   1.000  O
  O83      1.0000 0.96840  0.87770  0.99470  Biso   1.000  O
  O84      1.0000 0.53160  0.37770  0.50530  Biso   1.000  O
  O85      1.0000 0.81960  0.90890  0.86460  Biso   1.000  O
  O86      1.0000 0.68040  0.40890  0.63540  Biso   1.000  O
  O87      1.0000 0.18040  0.09110  0.13540  Biso   1.000  O
  O88      1.0000 0.31960  0.59110  0.36460  Biso   1.000  O
  Cu1      1.0000 0.62526  0.50787  0.84465  Biso   1.000  Cu
  Cu2      1.0000 0.87474  0.00787  0.65535  Biso   1.000  Cu
  Cu3      1.0000 0.37474  0.49213  0.15535  Biso   1.000  Cu
  Cu4      1.0000 0.12526  0.99213  0.34465  Biso   1.000  Cu
  O89      1.0000 0.66450  0.63680  0.80700  Biso   1.000  O
  O90      1.0000 0.83550  0.13680  0.69300  Biso   1.000  O
  O91      1.0000 0.33550  0.36320  0.19300  Biso   1.000  O
  O92      1.0000 0.16450  0.86320  0.30700  Biso   1.000  O
  C1       1.0000 0.23100  0.75700  0.73410  Biso   1.000  C
  C2       1.0000 0.26900  0.25700  0.76590  Biso   1.000  C
  C3       1.0000 0.76900  0.24300  0.26590  Biso   1.000  C
  C4       1.0000 0.73100  0.74300  0.23410  Biso   1.000  C
  H1       1.0000 0.27200  0.78670  0.77050  Biso   1.000  H
  H2       1.0000 0.22800  0.28670  0.72950  Biso   1.000  H
  H3       1.0000 0.72800  0.21330  0.22950  Biso   1.000  H
  H4       1.0000 0.77200  0.71330  0.27050  Biso   1.000  H
  H5       1.0000 0.18110  0.80810  0.71490  Biso   1.000  H
  H6       1.0000 0.31890  0.30810  0.78510  Biso   1.000  H
  H7       1.0000 0.81890  0.19190  0.28510  Biso   1.000  H
  H8       1.0000 0.68110  0.69190  0.21490  Biso   1.000  H
  H9       1.0000 0.27870  0.73740  0.70610  Biso   1.000  H
  H10      1.0000 0.22130  0.23740  0.79390  Biso   1.000  H
  H11      1.0000 0.72130  0.26260  0.29390  Biso   1.000  H
  H12      1.0000 0.77870  0.76260  0.20610  Biso   1.000  H
  N1       1.0000 0.35210  0.65750  0.87520  Biso   1.000  N
  N2       1.0000 0.14790  0.15750  0.62480  Biso   1.000  N
  N3       1.0000 0.64790  0.34250  0.12480  Biso   1.000  N
  N4       1.0000 0.85210  0.84250  0.37520  Biso   1.000  N
  O93      1.0000 0.73070  0.54590  0.93240  Biso   1.000  O
  O94      1.0000 0.76930  0.04590  0.56760  Biso   1.000  O
  O95      1.0000 0.26930  0.45410  0.06760  Biso   1.000  O
  O96      1.0000 0.23070  0.95410  0.43240  Biso   1.000  O
  C5       1.0000 0.99510  0.45400  0.66740  Biso   1.000  C
  C6       1.0000 0.50490  0.95400  0.83260  Biso   1.000  C
  C7       1.0000 0.00490  0.54600  0.33260  Biso   1.000  C
  C8       1.0000 0.49510  0.04600  0.16740  Biso   1.000  C
  H13      1.0000 0.96750  0.39260  0.68440  Biso   1.000  H
  H14      1.0000 0.53250  0.89260  0.81560  Biso   1.000  H
  H15      1.0000 0.03250  0.60740  0.31560  Biso   1.000  H
  H16      1.0000 0.46750  0.10740  0.18440  Biso   1.000  H
  H17      1.0000 0.04060  0.43410  0.63820  Biso   1.000  H
  H18      1.0000 0.45940  0.93410  0.86180  Biso   1.000  H
  H19      1.0000 0.95940  0.56590  0.36180  Biso   1.000  H
  H20      1.0000 0.54060  0.06590  0.13820  Biso   1.000  H
  H21      1.0000 0.93660  0.49500  0.64720  Biso   1.000  H
  H22      1.0000 0.56340  0.99500  0.85280  Biso   1.000  H
  H23      1.0000 0.06340  0.50500  0.35280  Biso   1.000  H
  H24      1.0000 0.43660  0.00500  0.14720  Biso   1.000  H
  N5       1.0000 0.42000  0.70300  0.91850  Biso   1.000  N
  N6       1.0000 0.08000  0.20300  0.58150  Biso   1.000  N
  N7       1.0000 0.58000  0.29700  0.08150  Biso   1.000  N
  N8       1.0000 0.92000  0.79700  0.41850  Biso   1.000  N
  C9       1.0000 0.11900  0.50810  0.89220  Biso   1.000  C
  C10      1.0000 0.38100  0.00810  0.60780  Biso   1.000  C
  C11      1.0000 0.88100  0.49190  0.10780  Biso   1.000  C
  C12      1.0000 0.61900  0.99190  0.39220  Biso   1.000  C
  H25      1.0000 0.08060  0.44380  0.89300  Biso   1.000  H
  H26      1.0000 0.41940  0.94380  0.60700  Biso   1.000  H
  H27      1.0000 0.91940  0.55620  0.10700  Biso   1.000  H
  H28      1.0000 0.58060  0.05620  0.39300  Biso   1.000  H
  H29      1.0000 0.08340  0.56160  0.91170  Biso   1.000  H
  H30      1.0000 0.41660  0.06160  0.58830  Biso   1.000  H
  H31      1.0000 0.91660  0.43840  0.08830  Biso   1.000  H
  H32      1.0000 0.58340  0.93840  0.41170  Biso   1.000  H
  H33      1.0000 0.19070  0.49950  0.91380  Biso   1.000  H
  H34      1.0000 0.30930  0.99950  0.58620  Biso   1.000  H
  H35      1.0000 0.80930  0.50050  0.08620  Biso   1.000  H
  H36      1.0000 0.69070  0.00050  0.41380  Biso   1.000  H
  N9       1.0000 0.02750  0.73280  0.62520  Biso   1.000  N
  N10      1.0000 0.47250  0.23280  0.87480  Biso   1.000  N
  N11      1.0000 0.97250  0.26720  0.37480  Biso   1.000  N
  N12      1.0000 0.52750  0.76720  0.12520  Biso   1.000  N
  C13      1.0000 0.10300  0.64400  0.64100  Biso   1.000  C
  C14      1.0000 0.39700  0.14400  0.85900  Biso   1.000  C
  C15      1.0000 0.89700  0.35600  0.35900  Biso   1.000  C
  C16      1.0000 0.60300  0.85600  0.14100  Biso   1.000  C
  H37      1.0000 0.08120  0.58680  0.61300  Biso   1.000  H
  H38      1.0000 0.41880  0.08680  0.88700  Biso   1.000  H
  H39      1.0000 0.91880  0.41320  0.38700  Biso   1.000  H
  H40      1.0000 0.58120  0.91320  0.11300  Biso   1.000  H
  H41      1.0000 0.17420  0.66520  0.63530  Biso   1.000  H
  H42      1.0000 0.32580  0.16520  0.86470  Biso   1.000  H
  H43      1.0000 0.82580  0.33480  0.36470  Biso   1.000  H
  H44      1.0000 0.67420  0.83480  0.13530  Biso   1.000  H
  N13      1.0000 0.93650  0.87610  0.63040  Biso   1.000  N
  N14      1.0000 0.56350  0.37610  0.86960  Biso   1.000  N
  N15      1.0000 0.06350  0.12390  0.36960  Biso   1.000  N
  N16      1.0000 0.43650  0.62390  0.13040  Biso   1.000  N
  C17      1.0000 0.40390  0.59180  0.84720  Biso   1.000  C
  C18      1.0000 0.09610  0.09180  0.65280  Biso   1.000  C
  C19      1.0000 0.59610  0.40820  0.15280  Biso   1.000  C
  C20      1.0000 0.90390  0.90820  0.34720  Biso   1.000  C
  H45      1.0000 0.37230  0.54920  0.81540  Biso   1.000  H
  H46      1.0000 0.12770  0.04920  0.68460  Biso   1.000  H
  H47      1.0000 0.62770  0.45080  0.18460  Biso   1.000  H
  H48      1.0000 0.87230  0.95080  0.31540  Biso   1.000  H
  N17      1.0000 0.50460  0.59180  0.86850  Biso   1.000  N
  N18      1.0000 0.99540  0.09180  0.63150  Biso   1.000  N
  N19      1.0000 0.49540  0.40820  0.13150  Biso   1.000  N
  N20      1.0000 0.00460  0.90820  0.36850  Biso   1.000  N
  N21      1.0000 0.99700  0.76300  0.56910  Biso   1.000  N
  N22      1.0000 0.50300  0.26300  0.93090  Biso   1.000  N
  N23      1.0000 0.00300  0.23700  0.43090  Biso   1.000  N
  N24      1.0000 0.49700  0.73700  0.06910  Biso   1.000  N
  C21      1.0000 0.99400  0.80200  0.66020  Biso   1.000  C
  C22      1.0000 0.50600  0.30200  0.83980  Biso   1.000  C
  C23      1.0000 0.00600  0.19800  0.33980  Biso   1.000  C
  C24      1.0000 0.49400  0.69800  0.16020  Biso   1.000  C
  H49      1.0000 0.00910  0.79940  0.70290  Biso   1.000  H
  H50      1.0000 0.49090  0.29940  0.79710  Biso   1.000  H
  H51      1.0000 0.99090  0.20060  0.29710  Biso   1.000  H
  H52      1.0000 0.50910  0.70060  0.20290  Biso   1.000  H
  N25      1.0000 0.89690  0.38910  0.79330  Biso   1.000  N
  N26      1.0000 0.60310  0.88910  0.70670  Biso   1.000  N
  N27      1.0000 0.10310  0.61090  0.20670  Biso   1.000  N
  N28      1.0000 0.39690  0.11090  0.29330  Biso   1.000  N
  C25      1.0000 0.23490  0.68720  0.86390  Biso   1.000  C
  C26      1.0000 0.26510  0.18720  0.63610  Biso   1.000  C
  C27      1.0000 0.76510  0.31280  0.13610  Biso   1.000  C
  C28      1.0000 0.73490  0.81280  0.36390  Biso   1.000  C
  H53      1.0000 0.20430  0.67540  0.90110  Biso   1.000  H
  H54      1.0000 0.29570  0.17540  0.59890  Biso   1.000  H
  H55      1.0000 0.79570  0.32460  0.09890  Biso   1.000  H
  H56      1.0000 0.70430  0.82460  0.40110  Biso   1.000  H
  H57      1.0000 0.22840  0.76070  0.85420  Biso   1.000  H
  H58      1.0000 0.27160  0.26070  0.64580  Biso   1.000  H
  H59      1.0000 0.77160  0.23930  0.14580  Biso   1.000  H
  H60      1.0000 0.72840  0.73930  0.35420  Biso   1.000  H
  N29      1.0000 0.74560  0.43010  0.81290  Biso   1.000  N
  N30      1.0000 0.75440  0.93010  0.68710  Biso   1.000  N
  N31      1.0000 0.25440  0.56990  0.18710  Biso   1.000  N
  N32      1.0000 0.24560  0.06990  0.31290  Biso   1.000  N
  C29      1.0000 0.51600  0.66600  0.91510  Biso   1.000  C
  C30      1.0000 0.98400  0.16600  0.58490  Biso   1.000  C
  C31      1.0000 0.48400  0.33400  0.08490  Biso   1.000  C
  C32      1.0000 0.01600  0.83400  0.41510  Biso   1.000  C
  H61      1.0000 0.57970  0.68630  0.93920  Biso   1.000  H
  H62      1.0000 0.92030  0.18630  0.56080  Biso   1.000  H
  H63      1.0000 0.42030  0.31370  0.06080  Biso   1.000  H
  H64      1.0000 0.07970  0.81370  0.43920  Biso   1.000  H
  N33      1.0000 0.83440  0.30750  0.77200  Biso   1.000  N
  N34      1.0000 0.66560  0.80750  0.72800  Biso   1.000  N
  N35      1.0000 0.16560  0.69250  0.22800  Biso   1.000  N
  N36      1.0000 0.33440  0.19250  0.27200  Biso   1.000  N
  C33      1.0000 0.16990  0.66100  0.75150  Biso   1.000  C
  C34      1.0000 0.33010  0.16100  0.74850  Biso   1.000  C
  C35      1.0000 0.83010  0.33900  0.24850  Biso   1.000  C
  C36      1.0000 0.66990  0.83900  0.25150  Biso   1.000  C
  C37      1.0000 0.84210  0.46110  0.81670  Biso   1.000  C
  C38      1.0000 0.65790  0.96110  0.68330  Biso   1.000  C
  C39      1.0000 0.15790  0.53890  0.18330  Biso   1.000  C
  C40      1.0000 0.34210  0.03890  0.31670  Biso   1.000  C
  H65      1.0000 0.86900  0.52410  0.83320  Biso   1.000  H
  H66      1.0000 0.63100  0.02410  0.66680  Biso   1.000  H
  H67      1.0000 0.13100  0.47590  0.16680  Biso   1.000  H
  H68      1.0000 0.36900  0.97590  0.33320  Biso   1.000  H
  C41      1.0000 0.05820  0.51590  0.71770  Biso   1.000  C
  C42      1.0000 0.44180  0.01590  0.78230  Biso   1.000  C
  C43      1.0000 0.94180  0.48410  0.28230  Biso   1.000  C
  C44      1.0000 0.55820  0.98410  0.21770  Biso   1.000  C
  C45      1.0000 0.12340  0.53810  0.82720  Biso   1.000  C
  C46      1.0000 0.37660  0.03810  0.67280  Biso   1.000  C
  C47      1.0000 0.87660  0.46190  0.17280  Biso   1.000  C
  C48      1.0000 0.62340  0.96190  0.32720  Biso   1.000  C
  C49      1.0000 0.93900  0.84800  0.57350  Biso   1.000  C
  C50      1.0000 0.56100  0.34800  0.92650  Biso   1.000  C
  C51      1.0000 0.06100  0.15200  0.42650  Biso   1.000  C
  C52      1.0000 0.43900  0.65200  0.07350  Biso   1.000  C
  H69      1.0000 0.90300  0.88330  0.53970  Biso   1.000  H
  H70      1.0000 0.59700  0.38330  0.96030  Biso   1.000  H
  H71      1.0000 0.09700  0.11670  0.46030  Biso   1.000  H
  H72      1.0000 0.40300  0.61670  0.03970  Biso   1.000  H
  C53      1.0000 0.06490  0.48190  0.78020  Biso   1.000  C
  C54      1.0000 0.43510  0.98190  0.71980  Biso   1.000  C
  C55      1.0000 0.93510  0.51810  0.21980  Biso   1.000  C
  C56      1.0000 0.56490  0.01810  0.28020  Biso   1.000  C
  C57      1.0000 0.10560  0.60760  0.70420  Biso   1.000  C
  C58      1.0000 0.39440  0.10760  0.79580  Biso   1.000  C
  C59      1.0000 0.89440  0.39240  0.29580  Biso   1.000  C
  C60      1.0000 0.60560  0.89240  0.20420  Biso   1.000  C
  C61      1.0000 0.01330  0.38060  0.79200  Biso   1.000  C
  C62      1.0000 0.48670  0.88060  0.70800  Biso   1.000  C
  C63      1.0000 0.98670  0.61940  0.20800  Biso   1.000  C
  C64      1.0000 0.51330  0.11940  0.29200  Biso   1.000  C
  H73      1.0000 0.02480  0.33150  0.76020  Biso   1.000  H
  H74      1.0000 0.47520  0.83150  0.73980  Biso   1.000  H
  H75      1.0000 0.97520  0.66850  0.23980  Biso   1.000  H
  H76      1.0000 0.52480  0.16850  0.26020  Biso   1.000  H
  H77      1.0000 0.04800  0.35300  0.83100  Biso   1.000  H
  H78      1.0000 0.45200  0.85300  0.66900  Biso   1.000  H
  H79      1.0000 0.95200  0.64700  0.16900  Biso   1.000  H
  H80      1.0000 0.54800  0.14700  0.33100  Biso   1.000  H
  C65      1.0000 0.17340  0.62560  0.81240  Biso   1.000  C
  C66      1.0000 0.32660  0.12560  0.68760  Biso   1.000  C
  C67      1.0000 0.82660  0.37440  0.18760  Biso   1.000  C
  C68      1.0000 0.67340  0.87440  0.31240  Biso   1.000  C
  C69      1.0000 0.74210  0.33820  0.78300  Biso   1.000  C
  C70      1.0000 0.75790  0.83820  0.71700  Biso   1.000  C
  C71      1.0000 0.25790  0.66180  0.21700  Biso   1.000  C
  C72      1.0000 0.24210  0.16180  0.28300  Biso   1.000  C
  H81      1.0000 0.67920  0.30080  0.77140  Biso   1.000  H
  H82      1.0000 0.82080  0.80080  0.72860  Biso   1.000  H
  H83      1.0000 0.32080  0.69920  0.22860  Biso   1.000  H
  H84      1.0000 0.17920  0.19920  0.27140  Biso   1.000  H
