data_image0
_cell_length_a       10.9412
_cell_length_b       11.8999
_cell_length_c       12.5057
_cell_angle_alpha    64.312
_cell_angle_beta     74.123
_cell_angle_gamma    89.302

_symmetry_space_group_name_H-M    "P 1"
_symmetry_int_tables_number       1

loop_
  _symmetry_equiv_pos_as_xyz
  'x, y, z'

loop_
  _atom_site_label
  _atom_site_occupancy
  _atom_site_fract_x
  _atom_site_fract_y
  _atom_site_fract_z
  _atom_site_thermal_displace_type
  _atom_site_B_iso_or_equiv
  _atom_site_type_symbol
  Cu1      1.0000 0.50000  0.50000  0.50000  Biso   1.000  Cu
  Cu2      1.0000 0.50000  0.00000  0.00000  Biso   1.000  Cu
  S1       1.0000 0.23338  0.45180  0.11182  Biso   1.000  S
  S2       1.0000 0.76662  0.54820  0.88818  Biso   1.000  S
  S3       1.0000 0.99846  0.70747  0.98686  Biso   1.000  S
  S4       1.0000 0.00154  0.29253  0.01314  Biso   1.000  S
  S5       1.0000 0.40076  0.82839  0.35435  Biso   1.000  S
  S6       1.0000 0.59924  0.17161  0.64565  Biso   1.000  S
  O1       1.0000 0.44024  0.70953  0.43216  Biso   1.000  O
  O2       1.0000 0.55976  0.29047  0.56784  Biso   1.000  O
  O3       1.0000 0.46322  0.86345  0.22200  Biso   1.000  O
  O4       1.0000 0.53678  0.13655  0.77800  Biso   1.000  O
  O5       1.0000 0.26106  0.81370  0.37785  Biso   1.000  O
  O6       1.0000 0.73894  0.18630  0.62215  Biso   1.000  O
  O7       1.0000 0.43660  0.92780  0.38380  Biso   1.000  O
  O8       1.0000 0.56340  0.07220  0.61620  Biso   1.000  O
  O9       1.0000 0.01670  0.83230  0.65060  Biso   1.000  O
  O10      1.0000 0.98330  0.16770  0.34940  Biso   1.000  O
  O11      1.0000 0.41770  0.85950  0.63930  Biso   1.000  O
  O12      1.0000 0.58230  0.14050  0.36070  Biso   1.000  O
  O13      1.0000 0.04910  0.65840  0.55080  Biso   1.000  O
  O14      1.0000 0.95090  0.34160  0.44920  Biso   1.000  O
  O15      1.0000 0.94920  0.61330  0.38580  Biso   1.000  O
  O16      1.0000 0.05080  0.38670  0.61420  Biso   1.000  O
  N1       1.0000 0.40330  0.46340  0.40060  Biso   1.000  N
  N2       1.0000 0.59670  0.53660  0.59940  Biso   1.000  N
  N3       1.0000 0.40961  0.13760  0.03180  Biso   1.000  N
  N4       1.0000 0.59039  0.86240  0.96820  Biso   1.000  N
  N5       1.0000 0.33330  0.91770  0.00190  Biso   1.000  N
  N6       1.0000 0.66670  0.08230  0.99810  Biso   1.000  N
  N7       1.0000 0.66640  0.56370  0.34630  Biso   1.000  N
  N8       1.0000 0.33360  0.43630  0.65370  Biso   1.000  N
  N9       1.0000 0.12030  0.01620  0.60790  Biso   1.000  N
  N10      1.0000 0.87970  0.98380  0.39210  Biso   1.000  N
  C1       1.0000 0.30760  0.52910  0.36850  Biso   1.000  C
  C2       1.0000 0.69240  0.47090  0.63150  Biso   1.000  C
  H1       1.0000 0.27800  0.58260  0.40370  Biso   1.000  H
  H2       1.0000 0.72200  0.41740  0.59630  Biso   1.000  H
  C3       1.0000 0.25180  0.52080  0.28630  Biso   1.000  C
  C4       1.0000 0.74820  0.47920  0.71370  Biso   1.000  C
  H3       1.0000 0.18410  0.56600  0.26860  Biso   1.000  H
  H4       1.0000 0.81590  0.43400  0.73140  Biso   1.000  H
  C5       1.0000 0.29670  0.44420  0.22950  Biso   1.000  C
  C6       1.0000 0.70330  0.55580  0.77050  Biso   1.000  C
  C7       1.0000 0.39230  0.37160  0.26630  Biso   1.000  C
  C8       1.0000 0.60770  0.62840  0.73370  Biso   1.000  C
  H5       1.0000 0.42280  0.31640  0.23350  Biso   1.000  H
  H6       1.0000 0.57720  0.68360  0.76650  Biso   1.000  H
  C9       1.0000 0.44080  0.38350  0.35240  Biso   1.000  C
  C10      1.0000 0.55920  0.61650  0.64760  Biso   1.000  C
  H7       1.0000 0.50280  0.33330  0.37830  Biso   1.000  H
  H8       1.0000 0.49720  0.66670  0.62170  Biso   1.000  H
  C11      1.0000 0.30160  0.32920  0.08030  Biso   1.000  C
  C12      1.0000 0.69840  0.67080  0.91970  Biso   1.000  C
  C13      1.0000 0.26230  0.20440  0.16620  Biso   1.000  C
  C14      1.0000 0.73770  0.79560  0.83380  Biso   1.000  C
  H9       1.0000 0.19840  0.18330  0.24070  Biso   1.000  H
  H10      1.0000 0.80160  0.81670  0.75930  Biso   1.000  H
  C15      1.0000 0.31940  0.11250  0.13920  Biso   1.000  C
  C16      1.0000 0.68060  0.88750  0.86080  Biso   1.000  C
  H11      1.0000 0.29450  0.02910  0.19810  Biso   1.000  H
  H12      1.0000 0.70550  0.97090  0.80190  Biso   1.000  H
  C17      1.0000 0.44520  0.25850  0.94840  Biso   1.000  C
  C18      1.0000 0.55480  0.74150  0.05160  Biso   1.000  C
  H13      1.0000 0.50690  0.27720  0.87320  Biso   1.000  H
  H14      1.0000 0.49310  0.72280  0.12680  Biso   1.000  H
  C19      1.0000 0.39400  0.35650  0.96920  Biso   1.000  C
  C20      1.0000 0.60600  0.64350  0.03080  Biso   1.000  C
  H15      1.0000 0.42130  0.43930  0.90950  Biso   1.000  H
  H16      1.0000 0.57870  0.56070  0.09050  Biso   1.000  H
  C21      1.0000 0.23400  0.85830  0.10390  Biso   1.000  C
  C22      1.0000 0.76600  0.14170  0.89610  Biso   1.000  C
  H17      1.0000 0.23760  0.85870  0.17720  Biso   1.000  H
  H18      1.0000 0.76240  0.14130  0.82280  Biso   1.000  H
  C23      1.0000 0.12630  0.79620  0.10670  Biso   1.000  C
  C24      1.0000 0.87370  0.20380  0.89330  Biso   1.000  C
  H19      1.0000 0.05830  0.75870  0.17930  Biso   1.000  H
  H20      1.0000 0.94170  0.24130  0.82070  Biso   1.000  H
  C25      1.0000 0.12150  0.79090  0.99940  Biso   1.000  C
  C26      1.0000 0.87850  0.20910  0.00060  Biso   1.000  C
  C27      1.0000 0.22500  0.85100  0.89270  Biso   1.000  C
  C28      1.0000 0.77500  0.14900  0.10730  Biso   1.000  C
  H21      1.0000 0.22520  0.84900  0.81920  Biso   1.000  H
  H22      1.0000 0.77480  0.15100  0.18080  Biso   1.000  H
  C29      1.0000 0.32720  0.91350  0.89730  Biso   1.000  C
  C30      1.0000 0.67280  0.08650  0.10270  Biso   1.000  C
  H23      1.0000 0.39500  0.95470  0.82510  Biso   1.000  H
  H24      1.0000 0.60500  0.04530  0.17490  Biso   1.000  H
  C31      1.0000 0.87640  0.65450  0.13180  Biso   1.000  C
  C32      1.0000 0.12360  0.34550  0.86820  Biso   1.000  C
  C33      1.0000 0.80570  0.73600  0.16820  Biso   1.000  C
  C34      1.0000 0.19430  0.26400  0.83180  Biso   1.000  C
  H25      1.0000 0.82740  0.82240  0.12120  Biso   1.000  H
  H26      1.0000 0.17260  0.17760  0.87880  Biso   1.000  H
  C35      1.0000 0.70300  0.68810  0.27450  Biso   1.000  C
  C36      1.0000 0.29700  0.31190  0.72550  Biso   1.000  C
  H27      1.0000 0.65680  0.74400  0.29800  Biso   1.000  H
  H28      1.0000 0.34320  0.25600  0.70200  Biso   1.000  H
  C37      1.0000 0.73750  0.48610  0.31110  Biso   1.000  C
  C38      1.0000 0.26250  0.51390  0.68890  Biso   1.000  C
  H29      1.0000 0.71570  0.39990  0.36030  Biso   1.000  H
  H30      1.0000 0.28430  0.60010  0.63970  Biso   1.000  H
  C39      1.0000 0.84180  0.52770  0.20530  Biso   1.000  C
  C40      1.0000 0.15820  0.47230  0.79470  Biso   1.000  C
  H31      1.0000 0.88800  0.47040  0.18410  Biso   1.000  H
  H32      1.0000 0.11200  0.52960  0.81590  Biso   1.000  H
  C41      1.0000 0.10810  0.91600  0.59090  Biso   1.000  C
  C42      1.0000 0.89190  0.08400  0.40910  Biso   1.000  C
  H33      1.0000 0.17280  0.90750  0.52980  Biso   1.000  H
  H34      1.0000 0.82720  0.09250  0.47020  Biso   1.000  H
  C43      1.0000 0.22870  0.11320  0.52960  Biso   1.000  C
  C44      1.0000 0.77130  0.88680  0.47040  Biso   1.000  C
  H35      1.0000 0.28360  0.08950  0.47040  Biso   1.000  H
  H36      1.0000 0.71640  0.91050  0.52960  Biso   1.000  H
  H37      1.0000 0.27560  0.12270  0.58030  Biso   1.000  H
  H38      1.0000 0.72440  0.87730  0.41970  Biso   1.000  H
  H39      1.0000 0.19830  0.19130  0.48630  Biso   1.000  H
  H40      1.0000 0.80170  0.80870  0.51370  Biso   1.000  H
  C45      1.0000 0.02180  0.03910  0.69840  Biso   1.000  C
  C46      1.0000 0.97820  0.96090  0.30160  Biso   1.000  C
  H41      1.0000 0.96370  0.09000  0.65860  Biso   1.000  H
  H42      1.0000 0.03630  0.91000  0.34140  Biso   1.000  H
  H43      1.0000 0.06090  0.08190  0.73270  Biso   1.000  H
  H44      1.0000 0.93910  0.91810  0.26730  Biso   1.000  H
  H45      1.0000 0.97570  0.96040  0.76380  Biso   1.000  H
  H46      1.0000 0.02430  0.03960  0.23620  Biso   1.000  H
  H47      1.0000 0.45200  0.91700  0.64900  Biso   1.000  H
  H48      1.0000 0.54800  0.08300  0.35100  Biso   1.000  H
  H49      1.0000 0.42500  0.87700  0.56420  Biso   1.000  H
  H50      1.0000 0.57500  0.12300  0.43580  Biso   1.000  H
  H51      1.0000 0.99700  0.70500  0.57000  Biso   1.000  H
  H52      1.0000 0.00300  0.29500  0.43000  Biso   1.000  H
  H53      1.0000 0.12100  0.69900  0.49800  Biso   1.000  H
  H54      1.0000 0.87900  0.30100  0.50200  Biso   1.000  H
  H55      1.0000 0.96340  0.61840  0.44820  Biso   1.000  H
  H56      1.0000 0.03660  0.38160  0.55180  Biso   1.000  H
  H57      1.0000 0.98160  0.54800  0.37580  Biso   1.000  H
  H58      1.0000 0.01840  0.45200  0.62420  Biso   1.000  H
