data_image0
_cell_length_a       13.7071
_cell_length_b       14.3458
_cell_length_c       20.3751
_cell_angle_alpha    90
_cell_angle_beta     90
_cell_angle_gamma    90

_symmetry_space_group_name_H-M    "P 1"
_symmetry_int_tables_number       1

loop_
  _symmetry_equiv_pos_as_xyz
  'x, y, z'

loop_
  _atom_site_label
  _atom_site_occupancy
  _atom_site_fract_x
  _atom_site_fract_y
  _atom_site_fract_z
  _atom_site_thermal_displace_type
  _atom_site_B_iso_or_equiv
  _atom_site_type_symbol
  C1       1.0000 0.51760  0.12350  0.35890  Biso   1.000  C
  C2       1.0000 0.48240  0.87650  0.85890  Biso   1.000  C
  C3       1.0000 0.48240  0.12350  0.14110  Biso   1.000  C
  C4       1.0000 0.51760  0.87650  0.64110  Biso   1.000  C
  C5       1.0000 0.01760  0.62350  0.35890  Biso   1.000  C
  C6       1.0000 0.98240  0.37650  0.85890  Biso   1.000  C
  C7       1.0000 0.98240  0.62350  0.14110  Biso   1.000  C
  C8       1.0000 0.01760  0.37650  0.64110  Biso   1.000  C
  H1       1.0000 0.50595  0.05806  0.35289  Biso   1.000  H
  H2       1.0000 0.49405  0.94194  0.85289  Biso   1.000  H
  H3       1.0000 0.49405  0.05806  0.14711  Biso   1.000  H
  H4       1.0000 0.50595  0.94194  0.64711  Biso   1.000  H
  H5       1.0000 0.00595  0.55806  0.35289  Biso   1.000  H
  H6       1.0000 0.99405  0.44194  0.85289  Biso   1.000  H
  H7       1.0000 0.99405  0.55806  0.14711  Biso   1.000  H
  H8       1.0000 0.00595  0.44194  0.64711  Biso   1.000  H
  H9       1.0000 0.54768  0.14856  0.32016  Biso   1.000  H
  H10      1.0000 0.45232  0.85144  0.82016  Biso   1.000  H
  H11      1.0000 0.45232  0.14856  0.17984  Biso   1.000  H
  H12      1.0000 0.54768  0.85144  0.67984  Biso   1.000  H
  H13      1.0000 0.04768  0.64856  0.32016  Biso   1.000  H
  H14      1.0000 0.95232  0.35144  0.82016  Biso   1.000  H
  H15      1.0000 0.95232  0.64856  0.17984  Biso   1.000  H
  H16      1.0000 0.04768  0.35144  0.67984  Biso   1.000  H
  H17      1.0000 0.56011  0.13254  0.39581  Biso   1.000  H
  H18      1.0000 0.43989  0.86746  0.89581  Biso   1.000  H
  H19      1.0000 0.43989  0.13254  0.10419  Biso   1.000  H
  H20      1.0000 0.56011  0.86746  0.60419  Biso   1.000  H
  H21      1.0000 0.06011  0.63254  0.39581  Biso   1.000  H
  H22      1.0000 0.93989  0.36746  0.89581  Biso   1.000  H
  H23      1.0000 0.93989  0.63254  0.10419  Biso   1.000  H
  H24      1.0000 0.06011  0.36746  0.60419  Biso   1.000  H
  C9       1.0000 0.34910  0.15570  0.31470  Biso   1.000  C
  C10      1.0000 0.65090  0.84430  0.81470  Biso   1.000  C
  C11      1.0000 0.65090  0.15570  0.18530  Biso   1.000  C
  C12      1.0000 0.34910  0.84430  0.68530  Biso   1.000  C
  C13      1.0000 0.84910  0.65570  0.31470  Biso   1.000  C
  C14      1.0000 0.15090  0.34430  0.81470  Biso   1.000  C
  C15      1.0000 0.15090  0.65570  0.18530  Biso   1.000  C
  C16      1.0000 0.84910  0.34430  0.68530  Biso   1.000  C
  H25      1.0000 0.34072  0.08983  0.30861  Biso   1.000  H
  H26      1.0000 0.65928  0.91017  0.80861  Biso   1.000  H
  H27      1.0000 0.65928  0.08983  0.19139  Biso   1.000  H
  H28      1.0000 0.34072  0.91017  0.69139  Biso   1.000  H
  H29      1.0000 0.84072  0.58983  0.30861  Biso   1.000  H
  H30      1.0000 0.15928  0.41017  0.80861  Biso   1.000  H
  H31      1.0000 0.15928  0.58983  0.19139  Biso   1.000  H
  H32      1.0000 0.84072  0.41017  0.69139  Biso   1.000  H
  H33      1.0000 0.28728  0.18357  0.32507  Biso   1.000  H
  H34      1.0000 0.71272  0.81643  0.82507  Biso   1.000  H
  H35      1.0000 0.71272  0.18357  0.17493  Biso   1.000  H
  H36      1.0000 0.28728  0.81643  0.67493  Biso   1.000  H
  H37      1.0000 0.78728  0.68357  0.32507  Biso   1.000  H
  H38      1.0000 0.21272  0.31643  0.82507  Biso   1.000  H
  H39      1.0000 0.21272  0.68357  0.17493  Biso   1.000  H
  H40      1.0000 0.78728  0.31643  0.67493  Biso   1.000  H
  H41      1.0000 0.37423  0.18284  0.27509  Biso   1.000  H
  H42      1.0000 0.62577  0.81716  0.77509  Biso   1.000  H
  H43      1.0000 0.62577  0.18284  0.22491  Biso   1.000  H
  H44      1.0000 0.37423  0.81716  0.72491  Biso   1.000  H
  H45      1.0000 0.87423  0.68284  0.27509  Biso   1.000  H
  H46      1.0000 0.12577  0.31716  0.77509  Biso   1.000  H
  H47      1.0000 0.12577  0.68284  0.22491  Biso   1.000  H
  H48      1.0000 0.87423  0.31716  0.72491  Biso   1.000  H
  C17      1.0000 0.42110  0.17320  0.37130  Biso   1.000  C
  C18      1.0000 0.57890  0.82680  0.87130  Biso   1.000  C
  C19      1.0000 0.57890  0.17320  0.12870  Biso   1.000  C
  C20      1.0000 0.42110  0.82680  0.62870  Biso   1.000  C
  C21      1.0000 0.92110  0.67320  0.37130  Biso   1.000  C
  C22      1.0000 0.07890  0.32680  0.87130  Biso   1.000  C
  C23      1.0000 0.07890  0.67320  0.12870  Biso   1.000  C
  C24      1.0000 0.92110  0.32680  0.62870  Biso   1.000  C
  H49      1.0000 0.39257  0.14738  0.41148  Biso   1.000  H
  H50      1.0000 0.60743  0.85262  0.91148  Biso   1.000  H
  H51      1.0000 0.60743  0.14738  0.08852  Biso   1.000  H
  H52      1.0000 0.39257  0.85262  0.58852  Biso   1.000  H
  H53      1.0000 0.89257  0.64738  0.41148  Biso   1.000  H
  H54      1.0000 0.10743  0.35262  0.91148  Biso   1.000  H
  H55      1.0000 0.10743  0.64738  0.08852  Biso   1.000  H
  H56      1.0000 0.89257  0.35262  0.58852  Biso   1.000  H
  C25      1.0000 0.43470  0.27750  0.38120  Biso   1.000  C
  C26      1.0000 0.56530  0.72250  0.88120  Biso   1.000  C
  C27      1.0000 0.56530  0.27750  0.11880  Biso   1.000  C
  C28      1.0000 0.43470  0.72250  0.61880  Biso   1.000  C
  C29      1.0000 0.93470  0.77750  0.38120  Biso   1.000  C
  C30      1.0000 0.06530  0.22250  0.88120  Biso   1.000  C
  C31      1.0000 0.06530  0.77750  0.11880  Biso   1.000  C
  C32      1.0000 0.93470  0.22250  0.61880  Biso   1.000  C
  H57      1.0000 0.37104  0.30706  0.38075  Biso   1.000  H
  H58      1.0000 0.62896  0.69294  0.88075  Biso   1.000  H
  H59      1.0000 0.62896  0.30706  0.11925  Biso   1.000  H
  H60      1.0000 0.37104  0.69294  0.61925  Biso   1.000  H
  H61      1.0000 0.87104  0.80706  0.38075  Biso   1.000  H
  H62      1.0000 0.12896  0.19294  0.88075  Biso   1.000  H
  H63      1.0000 0.12896  0.80706  0.11925  Biso   1.000  H
  H64      1.0000 0.87104  0.19294  0.61925  Biso   1.000  H
  H65      1.0000 0.47148  0.30210  0.34442  Biso   1.000  H
  H66      1.0000 0.52852  0.69790  0.84442  Biso   1.000  H
  H67      1.0000 0.52852  0.30210  0.15558  Biso   1.000  H
  H68      1.0000 0.47148  0.69790  0.65558  Biso   1.000  H
  H69      1.0000 0.97148  0.80210  0.34442  Biso   1.000  H
  H70      1.0000 0.02852  0.19790  0.84442  Biso   1.000  H
  H71      1.0000 0.02852  0.80210  0.15558  Biso   1.000  H
  H72      1.0000 0.97148  0.19790  0.65558  Biso   1.000  H
  C33      1.0000 0.48720  0.30510  0.44510  Biso   1.000  C
  C34      1.0000 0.51280  0.69490  0.94510  Biso   1.000  C
  C35      1.0000 0.51280  0.30510  0.05490  Biso   1.000  C
  C36      1.0000 0.48720  0.69490  0.55490  Biso   1.000  C
  C37      1.0000 0.98720  0.80510  0.44510  Biso   1.000  C
  C38      1.0000 0.01280  0.19490  0.94510  Biso   1.000  C
  C39      1.0000 0.01280  0.80510  0.05490  Biso   1.000  C
  C40      1.0000 0.98720  0.19490  0.55490  Biso   1.000  C
  H73      1.0000 0.55220  0.27664  0.44456  Biso   1.000  H
  H74      1.0000 0.44780  0.72336  0.94456  Biso   1.000  H
  H75      1.0000 0.44780  0.27664  0.05544  Biso   1.000  H
  H76      1.0000 0.55220  0.72336  0.55544  Biso   1.000  H
  H77      1.0000 0.05220  0.77664  0.44456  Biso   1.000  H
  H78      1.0000 0.94780  0.22336  0.94456  Biso   1.000  H
  H79      1.0000 0.94780  0.77664  0.05544  Biso   1.000  H
  H80      1.0000 0.05220  0.22336  0.55544  Biso   1.000  H
  C41      1.0000 0.49990  0.41110  0.44890  Biso   1.000  C
  C42      1.0000 0.50010  0.58890  0.94890  Biso   1.000  C
  C43      1.0000 0.50010  0.41110  0.05110  Biso   1.000  C
  C44      1.0000 0.49990  0.58890  0.55110  Biso   1.000  C
  C45      1.0000 0.99990  0.91110  0.44890  Biso   1.000  C
  C46      1.0000 0.00010  0.08890  0.94890  Biso   1.000  C
  C47      1.0000 0.00010  0.91110  0.05110  Biso   1.000  C
  C48      1.0000 0.99990  0.08890  0.55110  Biso   1.000  C
  C49      1.0000 0.39620  0.48120  0.68940  Biso   1.000  C
  C50      1.0000 0.60380  0.51880  0.18940  Biso   1.000  C
  C51      1.0000 0.60380  0.48120  0.81060  Biso   1.000  C
  C52      1.0000 0.39620  0.51880  0.31060  Biso   1.000  C
  C53      1.0000 0.89620  0.98120  0.68940  Biso   1.000  C
  C54      1.0000 0.10380  0.01880  0.18940  Biso   1.000  C
  C55      1.0000 0.10380  0.98120  0.81060  Biso   1.000  C
  C56      1.0000 0.89620  0.01880  0.31060  Biso   1.000  C
  H81      1.0000 0.45750  0.45519  0.69635  Biso   1.000  H
  H82      1.0000 0.54250  0.54481  0.19635  Biso   1.000  H
  H83      1.0000 0.54250  0.45519  0.80365  Biso   1.000  H
  H84      1.0000 0.45750  0.54481  0.30365  Biso   1.000  H
  H85      1.0000 0.95750  0.95519  0.69635  Biso   1.000  H
  H86      1.0000 0.04250  0.04481  0.19635  Biso   1.000  H
  H87      1.0000 0.04250  0.95519  0.80365  Biso   1.000  H
  H88      1.0000 0.95750  0.04481  0.30365  Biso   1.000  H
  C57      1.0000 0.35710  0.53600  0.73810  Biso   1.000  C
  C58      1.0000 0.64290  0.46400  0.23810  Biso   1.000  C
  C59      1.0000 0.64290  0.53600  0.76190  Biso   1.000  C
  C60      1.0000 0.35710  0.46400  0.26190  Biso   1.000  C
  C61      1.0000 0.85710  0.03600  0.73810  Biso   1.000  C
  C62      1.0000 0.14290  0.96400  0.23810  Biso   1.000  C
  C63      1.0000 0.14290  0.03600  0.76190  Biso   1.000  C
  C64      1.0000 0.85710  0.96400  0.26190  Biso   1.000  C
  H89      1.0000 0.39119  0.54644  0.77688  Biso   1.000  H
  H90      1.0000 0.60881  0.45356  0.27688  Biso   1.000  H
  H91      1.0000 0.60881  0.54644  0.72312  Biso   1.000  H
  H92      1.0000 0.39119  0.45356  0.22312  Biso   1.000  H
  H93      1.0000 0.89119  0.04644  0.77688  Biso   1.000  H
  H94      1.0000 0.10881  0.95356  0.27688  Biso   1.000  H
  H95      1.0000 0.10881  0.04644  0.72312  Biso   1.000  H
  H96      1.0000 0.89119  0.95356  0.22312  Biso   1.000  H
  C65      1.0000 0.26480  0.57600  0.72810  Biso   1.000  C
  C66      1.0000 0.73520  0.42400  0.22810  Biso   1.000  C
  C67      1.0000 0.73520  0.57600  0.77190  Biso   1.000  C
  C68      1.0000 0.26480  0.42400  0.27190  Biso   1.000  C
  C69      1.0000 0.76480  0.07600  0.72810  Biso   1.000  C
  C70      1.0000 0.23520  0.92400  0.22810  Biso   1.000  C
  C71      1.0000 0.23520  0.07600  0.77190  Biso   1.000  C
  C72      1.0000 0.76480  0.92400  0.27190  Biso   1.000  C
  C73      1.0000 0.21810  0.55500  0.66950  Biso   1.000  C
  C74      1.0000 0.78190  0.44500  0.16950  Biso   1.000  C
  C75      1.0000 0.78190  0.55500  0.83050  Biso   1.000  C
  C76      1.0000 0.21810  0.44500  0.33050  Biso   1.000  C
  C77      1.0000 0.71810  0.05500  0.66950  Biso   1.000  C
  C78      1.0000 0.28190  0.94500  0.16950  Biso   1.000  C
  C79      1.0000 0.28190  0.05500  0.83050  Biso   1.000  C
  C80      1.0000 0.71810  0.94500  0.33050  Biso   1.000  C
  H97      1.0000 0.15580  0.57825  0.66180  Biso   1.000  H
  H98      1.0000 0.84420  0.42175  0.16180  Biso   1.000  H
  H99      1.0000 0.84420  0.57825  0.83820  Biso   1.000  H
  H100     1.0000 0.15580  0.42175  0.33820  Biso   1.000  H
  H101     1.0000 0.65580  0.07825  0.66180  Biso   1.000  H
  H102     1.0000 0.34420  0.92175  0.16180  Biso   1.000  H
  H103     1.0000 0.34420  0.07825  0.83820  Biso   1.000  H
  H104     1.0000 0.65580  0.92175  0.33820  Biso   1.000  H
  C81      1.0000 0.26210  0.50070  0.62270  Biso   1.000  C
  C82      1.0000 0.73790  0.49930  0.12270  Biso   1.000  C
  C83      1.0000 0.73790  0.50070  0.87730  Biso   1.000  C
  C84      1.0000 0.26210  0.49930  0.37730  Biso   1.000  C
  C85      1.0000 0.76210  0.00070  0.62270  Biso   1.000  C
  C86      1.0000 0.23790  0.99930  0.12270  Biso   1.000  C
  C87      1.0000 0.23790  0.00070  0.87730  Biso   1.000  C
  C88      1.0000 0.76210  0.99930  0.37730  Biso   1.000  C
  H105     1.0000 0.22988  0.48965  0.58331  Biso   1.000  H
  H106     1.0000 0.77012  0.51035  0.08331  Biso   1.000  H
  H107     1.0000 0.77012  0.48965  0.91669  Biso   1.000  H
  H108     1.0000 0.22988  0.51035  0.41669  Biso   1.000  H
  H109     1.0000 0.72988  0.98965  0.58331  Biso   1.000  H
  H110     1.0000 0.27012  0.01035  0.08331  Biso   1.000  H
  H111     1.0000 0.27012  0.98965  0.91669  Biso   1.000  H
  H112     1.0000 0.72988  0.01035  0.41669  Biso   1.000  H
  C89      1.0000 0.10300  0.75260  0.81050  Biso   1.000  C
  C90      1.0000 0.89700  0.24740  0.31050  Biso   1.000  C
  C91      1.0000 0.89700  0.75260  0.68950  Biso   1.000  C
  C92      1.0000 0.10300  0.24740  0.18950  Biso   1.000  C
  C93      1.0000 0.60300  0.25260  0.81050  Biso   1.000  C
  C94      1.0000 0.39700  0.74740  0.31050  Biso   1.000  C
  C95      1.0000 0.39700  0.25260  0.68950  Biso   1.000  C
  C96      1.0000 0.60300  0.74740  0.18950  Biso   1.000  C
  H113     1.0000 0.04711  0.78631  0.80023  Biso   1.000  H
  H114     1.0000 0.95289  0.21369  0.30023  Biso   1.000  H
  H115     1.0000 0.95289  0.78631  0.69977  Biso   1.000  H
  H116     1.0000 0.04711  0.21369  0.19977  Biso   1.000  H
  H117     1.0000 0.54711  0.28631  0.80023  Biso   1.000  H
  H118     1.0000 0.45289  0.71369  0.30023  Biso   1.000  H
  H119     1.0000 0.45289  0.28631  0.69977  Biso   1.000  H
  H120     1.0000 0.54711  0.71369  0.19977  Biso   1.000  H
  C97      1.0000 0.13880  0.69090  0.76470  Biso   1.000  C
  C98      1.0000 0.86120  0.30910  0.26470  Biso   1.000  C
  C99      1.0000 0.86120  0.69090  0.73530  Biso   1.000  C
  C100     1.0000 0.13880  0.30910  0.23530  Biso   1.000  C
  C101     1.0000 0.63880  0.19090  0.76470  Biso   1.000  C
  C102     1.0000 0.36120  0.80910  0.26470  Biso   1.000  C
  C103     1.0000 0.36120  0.19090  0.73530  Biso   1.000  C
  C104     1.0000 0.63880  0.80910  0.23530  Biso   1.000  C
  H121     1.0000 0.10768  0.68454  0.72442  Biso   1.000  H
  H122     1.0000 0.89232  0.31546  0.22442  Biso   1.000  H
  H123     1.0000 0.89232  0.68454  0.77558  Biso   1.000  H
  H124     1.0000 0.10768  0.31546  0.27558  Biso   1.000  H
  H125     1.0000 0.60768  0.18454  0.72442  Biso   1.000  H
  H126     1.0000 0.39232  0.81546  0.22442  Biso   1.000  H
  H127     1.0000 0.39232  0.18454  0.77558  Biso   1.000  H
  H128     1.0000 0.60768  0.81546  0.27558  Biso   1.000  H
  C105     1.0000 0.22120  0.63820  0.77840  Biso   1.000  C
  C106     1.0000 0.77880  0.36180  0.27840  Biso   1.000  C
  C107     1.0000 0.77880  0.63820  0.72160  Biso   1.000  C
  C108     1.0000 0.22120  0.36180  0.22160  Biso   1.000  C
  C109     1.0000 0.72120  0.13820  0.77840  Biso   1.000  C
  C110     1.0000 0.27880  0.86180  0.27840  Biso   1.000  C
  C111     1.0000 0.27880  0.13820  0.72160  Biso   1.000  C
  C112     1.0000 0.72120  0.86180  0.22160  Biso   1.000  C
  C113     1.0000 0.26270  0.65140  0.83860  Biso   1.000  C
  C114     1.0000 0.73730  0.34860  0.33860  Biso   1.000  C
  C115     1.0000 0.73730  0.65140  0.66140  Biso   1.000  C
  C116     1.0000 0.26270  0.34860  0.16140  Biso   1.000  C
  C117     1.0000 0.76270  0.15140  0.83860  Biso   1.000  C
  C118     1.0000 0.23730  0.84860  0.33860  Biso   1.000  C
  C119     1.0000 0.23730  0.15140  0.66140  Biso   1.000  C
  C120     1.0000 0.76270  0.84860  0.16140  Biso   1.000  C
  H129     1.0000 0.31778  0.61761  0.85067  Biso   1.000  H
  H130     1.0000 0.68222  0.38239  0.35067  Biso   1.000  H
  H131     1.0000 0.68222  0.61761  0.64933  Biso   1.000  H
  H132     1.0000 0.31778  0.38239  0.14933  Biso   1.000  H
  H133     1.0000 0.81778  0.11761  0.85067  Biso   1.000  H
  H134     1.0000 0.18222  0.88239  0.35067  Biso   1.000  H
  H135     1.0000 0.18222  0.11761  0.64933  Biso   1.000  H
  H136     1.0000 0.81778  0.88239  0.14933  Biso   1.000  H
  C121     1.0000 0.22240  0.71530  0.88130  Biso   1.000  C
  C122     1.0000 0.77760  0.28470  0.38130  Biso   1.000  C
  C123     1.0000 0.77760  0.71530  0.61870  Biso   1.000  C
  C124     1.0000 0.22240  0.28470  0.11870  Biso   1.000  C
  C125     1.0000 0.72240  0.21530  0.88130  Biso   1.000  C
  C126     1.0000 0.27760  0.78470  0.38130  Biso   1.000  C
  C127     1.0000 0.27760  0.21530  0.61870  Biso   1.000  C
  C128     1.0000 0.72240  0.78470  0.11870  Biso   1.000  C
  H137     1.0000 0.25221  0.72304  0.92191  Biso   1.000  H
  H138     1.0000 0.74779  0.27696  0.42191  Biso   1.000  H
  H139     1.0000 0.74779  0.72304  0.57809  Biso   1.000  H
  H140     1.0000 0.25221  0.27696  0.07809  Biso   1.000  H
  H141     1.0000 0.75221  0.22304  0.92191  Biso   1.000  H
  H142     1.0000 0.24779  0.77696  0.42191  Biso   1.000  H
  H143     1.0000 0.24779  0.22304  0.57809  Biso   1.000  H
  H144     1.0000 0.75221  0.77696  0.07809  Biso   1.000  H
  Cu1      1.0000 0.40514  0.36721  0.56858  Biso   1.000  Cu
  Cu2      1.0000 0.59486  0.63279  0.06858  Biso   1.000  Cu
  Cu3      1.0000 0.59486  0.36721  0.93142  Biso   1.000  Cu
  Cu4      1.0000 0.40514  0.63279  0.43142  Biso   1.000  Cu
  Cu5      1.0000 0.90514  0.86721  0.56858  Biso   1.000  Cu
  Cu6      1.0000 0.09486  0.13279  0.06858  Biso   1.000  Cu
  Cu7      1.0000 0.09486  0.86721  0.93142  Biso   1.000  Cu
  Cu8      1.0000 0.90514  0.13279  0.43142  Biso   1.000  Cu
  N1       1.0000 0.45420  0.45140  0.49920  Biso   1.000  N
  N2       1.0000 0.54580  0.54860  0.99920  Biso   1.000  N
  N3       1.0000 0.54580  0.45140  0.00080  Biso   1.000  N
  N4       1.0000 0.45420  0.54860  0.50080  Biso   1.000  N
  N5       1.0000 0.95420  0.95140  0.49920  Biso   1.000  N
  N6       1.0000 0.04580  0.04860  0.99920  Biso   1.000  N
  N7       1.0000 0.04580  0.95140  0.00080  Biso   1.000  N
  N8       1.0000 0.95420  0.04860  0.50080  Biso   1.000  N
  N9       1.0000 0.43460  0.26930  0.50230  Biso   1.000  N
  N10      1.0000 0.56540  0.73070  0.00230  Biso   1.000  N
  N11      1.0000 0.56540  0.26930  0.99770  Biso   1.000  N
  N12      1.0000 0.43460  0.73070  0.49770  Biso   1.000  N
  N13      1.0000 0.93460  0.76930  0.50230  Biso   1.000  N
  N14      1.0000 0.06540  0.23070  0.00230  Biso   1.000  N
  N15      1.0000 0.06540  0.76930  0.99770  Biso   1.000  N
  N16      1.0000 0.93460  0.23070  0.49770  Biso   1.000  N
  H145     1.0000 0.47024  0.22480  0.52110  Biso   1.000  H
  H146     1.0000 0.52976  0.77520  0.02110  Biso   1.000  H
  H147     1.0000 0.52976  0.22480  0.97890  Biso   1.000  H
  H148     1.0000 0.47024  0.77520  0.47890  Biso   1.000  H
  H149     1.0000 0.97024  0.72480  0.52110  Biso   1.000  H
  H150     1.0000 0.02976  0.27520  0.02110  Biso   1.000  H
  H151     1.0000 0.02976  0.72480  0.97890  Biso   1.000  H
  H152     1.0000 0.97024  0.27520  0.47890  Biso   1.000  H
  H153     1.0000 0.37894  0.24358  0.48896  Biso   1.000  H
  H154     1.0000 0.62106  0.75642  0.98896  Biso   1.000  H
  H155     1.0000 0.62106  0.24358  0.01104  Biso   1.000  H
  H156     1.0000 0.37894  0.75642  0.51104  Biso   1.000  H
  H157     1.0000 0.87894  0.74358  0.48896  Biso   1.000  H
  H158     1.0000 0.12106  0.25642  0.98896  Biso   1.000  H
  H159     1.0000 0.12106  0.74358  0.01104  Biso   1.000  H
  H160     1.0000 0.87894  0.25642  0.51104  Biso   1.000  H
  N17      1.0000 0.35070  0.46290  0.63240  Biso   1.000  N
  N18      1.0000 0.64930  0.53710  0.13240  Biso   1.000  N
  N19      1.0000 0.64930  0.46290  0.86760  Biso   1.000  N
  N20      1.0000 0.35070  0.53710  0.36760  Biso   1.000  N
  N21      1.0000 0.85070  0.96290  0.63240  Biso   1.000  N
  N22      1.0000 0.14930  0.03710  0.13240  Biso   1.000  N
  N23      1.0000 0.14930  0.96290  0.86760  Biso   1.000  N
  N24      1.0000 0.85070  0.03710  0.36760  Biso   1.000  N
  N25      1.0000 0.14470  0.76620  0.86870  Biso   1.000  N
  N26      1.0000 0.85530  0.23380  0.36870  Biso   1.000  N
  N27      1.0000 0.85530  0.76620  0.63130  Biso   1.000  N
  N28      1.0000 0.14470  0.23380  0.13130  Biso   1.000  N
  N29      1.0000 0.64470  0.26620  0.86870  Biso   1.000  N
  N30      1.0000 0.35530  0.73380  0.36870  Biso   1.000  N
  N31      1.0000 0.35530  0.26620  0.63130  Biso   1.000  N
  N32      1.0000 0.64470  0.73380  0.13130  Biso   1.000  N
  O1       1.0000 0.54920  0.45090  0.40540  Biso   1.000  O
  O2       1.0000 0.45080  0.54910  0.90540  Biso   1.000  O
  O3       1.0000 0.45080  0.45090  0.09460  Biso   1.000  O
  O4       1.0000 0.54920  0.54910  0.59460  Biso   1.000  O
  O5       1.0000 0.04920  0.95090  0.40540  Biso   1.000  O
  O6       1.0000 0.95080  0.04910  0.90540  Biso   1.000  O
  O7       1.0000 0.95080  0.95090  0.09460  Biso   1.000  O
  O8       1.0000 0.04920  0.04910  0.59460  Biso   1.000  O
  O9       1.0000 0.56230  0.36750  0.62250  Biso   1.000  O
  O10      1.0000 0.43770  0.63250  0.12250  Biso   1.000  O
  O11      1.0000 0.43770  0.36750  0.87750  Biso   1.000  O
  O12      1.0000 0.56230  0.63250  0.37750  Biso   1.000  O
  O13      1.0000 0.06230  0.86750  0.62250  Biso   1.000  O
  O14      1.0000 0.93770  0.13250  0.12250  Biso   1.000  O
  O15      1.0000 0.93770  0.86750  0.87750  Biso   1.000  O
  O16      1.0000 0.06230  0.13250  0.37750  Biso   1.000  O
  H161     1.0000 0.59600  0.32600  0.60500  Biso   1.000  H
  H162     1.0000 0.40400  0.67400  0.10500  Biso   1.000  H
  H163     1.0000 0.40400  0.32600  0.89500  Biso   1.000  H
  H164     1.0000 0.59600  0.67400  0.39500  Biso   1.000  H
  H165     1.0000 0.09600  0.82600  0.60500  Biso   1.000  H
  H166     1.0000 0.90400  0.17400  0.10500  Biso   1.000  H
  H167     1.0000 0.90400  0.82600  0.89500  Biso   1.000  H
  H168     1.0000 0.09600  0.17400  0.39500  Biso   1.000  H
  H169     1.0000 0.56200  0.42500  0.61300  Biso   1.000  H
  H170     1.0000 0.43800  0.57500  0.11300  Biso   1.000  H
  H171     1.0000 0.43800  0.42500  0.88700  Biso   1.000  H
  H172     1.0000 0.56200  0.57500  0.38700  Biso   1.000  H
  H173     1.0000 0.06200  0.92500  0.61300  Biso   1.000  H
  H174     1.0000 0.93800  0.07500  0.11300  Biso   1.000  H
  H175     1.0000 0.93800  0.92500  0.88700  Biso   1.000  H
  H176     1.0000 0.06200  0.07500  0.38700  Biso   1.000  H
  N33      1.0000 0.17720  0.31320  0.46610  Biso   1.000  N
  N34      1.0000 0.82280  0.68680  0.96610  Biso   1.000  N
  N35      1.0000 0.82280  0.31320  0.03390  Biso   1.000  N
  N36      1.0000 0.17720  0.68680  0.53390  Biso   1.000  N
  N37      1.0000 0.67720  0.81320  0.46610  Biso   1.000  N
  N38      1.0000 0.32280  0.18680  0.96610  Biso   1.000  N
  N39      1.0000 0.32280  0.81320  0.03390  Biso   1.000  N
  N40      1.0000 0.67720  0.18680  0.53390  Biso   1.000  N
  O17      1.0000 0.22090  0.36570  0.50420  Biso   1.000  O
  O18      1.0000 0.77910  0.63430  0.00420  Biso   1.000  O
  O19      1.0000 0.77910  0.36570  0.99580  Biso   1.000  O
  O20      1.0000 0.22090  0.63430  0.49580  Biso   1.000  O
  O21      1.0000 0.72090  0.86570  0.50420  Biso   1.000  O
  O22      1.0000 0.27910  0.13430  0.00420  Biso   1.000  O
  O23      1.0000 0.27910  0.86570  0.99580  Biso   1.000  O
  O24      1.0000 0.72090  0.13430  0.49580  Biso   1.000  O
  O25      1.0000 0.09830  0.33880  0.43920  Biso   1.000  O
  O26      1.0000 0.90170  0.66120  0.93920  Biso   1.000  O
  O27      1.0000 0.90170  0.33880  0.06080  Biso   1.000  O
  O28      1.0000 0.09830  0.66120  0.56080  Biso   1.000  O
  O29      1.0000 0.59830  0.83880  0.43920  Biso   1.000  O
  O30      1.0000 0.40170  0.16120  0.93920  Biso   1.000  O
  O31      1.0000 0.40170  0.83880  0.06080  Biso   1.000  O
  O32      1.0000 0.59830  0.16120  0.56080  Biso   1.000  O
  O33      1.0000 0.21120  0.23440  0.45450  Biso   1.000  O
  O34      1.0000 0.78880  0.76560  0.95450  Biso   1.000  O
  O35      1.0000 0.78880  0.23440  0.04550  Biso   1.000  O
  O36      1.0000 0.21120  0.76560  0.54550  Biso   1.000  O
  O37      1.0000 0.71120  0.73440  0.45450  Biso   1.000  O
  O38      1.0000 0.28880  0.26560  0.95450  Biso   1.000  O
  O39      1.0000 0.28880  0.73440  0.04550  Biso   1.000  O
  O40      1.0000 0.71120  0.26560  0.54550  Biso   1.000  O
  O41      1.0000 0.01880  0.50000  0.50000  Biso   1.000  O
  O42      1.0000 0.98120  0.50000  0.00000  Biso   1.000  O
  O43      1.0000 0.51880  0.00000  0.50000  Biso   1.000  O
  O44      1.0000 0.48120  0.00000  0.00000  Biso   1.000  O
  H177     1.0000 0.04700  0.54600  0.52000  Biso   1.000  H
  H178     1.0000 0.95300  0.45400  0.02000  Biso   1.000  H
  H179     1.0000 0.95300  0.54600  0.98000  Biso   1.000  H
  H180     1.0000 0.04700  0.45400  0.48000  Biso   1.000  H
  H181     1.0000 0.54700  0.04600  0.52000  Biso   1.000  H
  H182     1.0000 0.45300  0.95400  0.02000  Biso   1.000  H
  H183     1.0000 0.45300  0.04600  0.98000  Biso   1.000  H
  H184     1.0000 0.54700  0.95400  0.48000  Biso   1.000  H
  O45      1.0000 0.26030  0.00000  0.50000  Biso   1.000  O
  O46      1.0000 0.73970  0.00000  0.00000  Biso   1.000  O
  O47      1.0000 0.76030  0.50000  0.50000  Biso   1.000  O
  O48      1.0000 0.23970  0.50000  0.00000  Biso   1.000  O
  O49      1.0000 0.34400  0.06730  0.53150  Biso   1.000  O
  O50      1.0000 0.65600  0.93270  0.03150  Biso   1.000  O
  O51      1.0000 0.65600  0.06730  0.96850  Biso   1.000  O
  O52      1.0000 0.34400  0.93270  0.46850  Biso   1.000  O
  O53      1.0000 0.84400  0.56730  0.53150  Biso   1.000  O
  O54      1.0000 0.15600  0.43270  0.03150  Biso   1.000  O
  O55      1.0000 0.15600  0.56730  0.96850  Biso   1.000  O
  O56      1.0000 0.84400  0.43270  0.46850  Biso   1.000  O
