data_image0
_cell_length_a       12.75
_cell_length_b       19.729
_cell_length_c       20.627
_cell_angle_alpha    90
_cell_angle_beta     90
_cell_angle_gamma    90

_symmetry_space_group_name_H-M    "P 1"
_symmetry_int_tables_number       1

loop_
  _symmetry_equiv_pos_as_xyz
  'x, y, z'

loop_
  _atom_site_label
  _atom_site_occupancy
  _atom_site_fract_x
  _atom_site_fract_y
  _atom_site_fract_z
  _atom_site_thermal_displace_type
  _atom_site_B_iso_or_equiv
  _atom_site_type_symbol
  C1       1.0000 0.51840  0.08110  0.96080  Biso   1.000  C
  C2       1.0000 0.98160  0.91890  0.46080  Biso   1.000  C
  C3       1.0000 0.01840  0.41890  0.03920  Biso   1.000  C
  C4       1.0000 0.48160  0.58110  0.53920  Biso   1.000  C
  H1       1.0000 0.51947  0.05207  0.92531  Biso   1.000  H
  H2       1.0000 0.98053  0.94793  0.42531  Biso   1.000  H
  H3       1.0000 0.01947  0.44793  0.07469  Biso   1.000  H
  H4       1.0000 0.48053  0.55207  0.57469  Biso   1.000  H
  C5       1.0000 0.54740  0.14900  0.95400  Biso   1.000  C
  C6       1.0000 0.95260  0.85100  0.45400  Biso   1.000  C
  C7       1.0000 0.04740  0.35100  0.04600  Biso   1.000  C
  C8       1.0000 0.45260  0.64900  0.54600  Biso   1.000  C
  H5       1.0000 0.56904  0.16503  0.91375  Biso   1.000  H
  H6       1.0000 0.93096  0.83497  0.41375  Biso   1.000  H
  H7       1.0000 0.06904  0.33497  0.08625  Biso   1.000  H
  H8       1.0000 0.43096  0.66503  0.58625  Biso   1.000  H
  C9       1.0000 0.54440  0.19160  0.00500  Biso   1.000  C
  C10      1.0000 0.95560  0.80840  0.50500  Biso   1.000  C
  C11      1.0000 0.04440  0.30840  0.99500  Biso   1.000  C
  C12      1.0000 0.45560  0.69160  0.49500  Biso   1.000  C
  H9       1.0000 0.56208  0.23698  0.99955  Biso   1.000  H
  H10      1.0000 0.93792  0.76302  0.49955  Biso   1.000  H
  H11      1.0000 0.06208  0.26302  0.00045  Biso   1.000  H
  H12      1.0000 0.43792  0.73698  0.50045  Biso   1.000  H
  C13      1.0000 0.51540  0.16820  0.06450  Biso   1.000  C
  C14      1.0000 0.98460  0.83180  0.56450  Biso   1.000  C
  C15      1.0000 0.01540  0.33180  0.93550  Biso   1.000  C
  C16      1.0000 0.48460  0.66820  0.43550  Biso   1.000  C
  H13      1.0000 0.51458  0.19736  0.09994  Biso   1.000  H
  H14      1.0000 0.98542  0.80264  0.59994  Biso   1.000  H
  H15      1.0000 0.01458  0.30264  0.90006  Biso   1.000  H
  H16      1.0000 0.48542  0.69736  0.40006  Biso   1.000  H
  C17      1.0000 0.48750  0.10130  0.07210  Biso   1.000  C
  C18      1.0000 0.01250  0.89870  0.57210  Biso   1.000  C
  C19      1.0000 0.98750  0.39870  0.92790  Biso   1.000  C
  C20      1.0000 0.51250  0.60130  0.42790  Biso   1.000  C
  H17      1.0000 0.46770  0.08565  0.11287  Biso   1.000  H
  H18      1.0000 0.03230  0.91435  0.61287  Biso   1.000  H
  H19      1.0000 0.96770  0.41435  0.88713  Biso   1.000  H
  H20      1.0000 0.53230  0.58565  0.38713  Biso   1.000  H
  C21      1.0000 0.48820  0.05760  0.02110  Biso   1.000  C
  C22      1.0000 0.01180  0.94240  0.52110  Biso   1.000  C
  C23      1.0000 0.98820  0.44240  0.97890  Biso   1.000  C
  C24      1.0000 0.51180  0.55760  0.47890  Biso   1.000  C
  C25      1.0000 0.45070  0.98510  0.02890  Biso   1.000  C
  C26      1.0000 0.04930  0.01490  0.52890  Biso   1.000  C
  C27      1.0000 0.95070  0.51490  0.97110  Biso   1.000  C
  C28      1.0000 0.54930  0.48510  0.47110  Biso   1.000  C
  H21      1.0000 0.47335  0.96823  0.07082  Biso   1.000  H
  H22      1.0000 0.02665  0.03177  0.57082  Biso   1.000  H
  H23      1.0000 0.97335  0.53177  0.92918  Biso   1.000  H
  H24      1.0000 0.52665  0.46823  0.42918  Biso   1.000  H
  H25      1.0000 0.48318  0.95726  0.99582  Biso   1.000  H
  H26      1.0000 0.01682  0.04274  0.49582  Biso   1.000  H
  H27      1.0000 0.98318  0.54274  0.00418  Biso   1.000  H
  H28      1.0000 0.51682  0.45726  0.50418  Biso   1.000  H
  C29      1.0000 0.33090  0.97800  0.02390  Biso   1.000  C
  C30      1.0000 0.16910  0.02200  0.52390  Biso   1.000  C
  C31      1.0000 0.83090  0.52200  0.97610  Biso   1.000  C
  C32      1.0000 0.66910  0.47800  0.47610  Biso   1.000  C
  H29      1.0000 0.29750  0.99996  0.06121  Biso   1.000  H
  H30      1.0000 0.20250  0.00004  0.56121  Biso   1.000  H
  H31      1.0000 0.79750  0.50004  0.93879  Biso   1.000  H
  H32      1.0000 0.70250  0.49996  0.43879  Biso   1.000  H
  C33      1.0000 0.29090  0.00910  0.96220  Biso   1.000  C
  C34      1.0000 0.20910  0.99090  0.46220  Biso   1.000  C
  C35      1.0000 0.79090  0.49090  0.03780  Biso   1.000  C
  C36      1.0000 0.70910  0.50910  0.53780  Biso   1.000  C
  C37      1.0000 0.21230  0.98170  0.80440  Biso   1.000  C
  C38      1.0000 0.28770  0.01830  0.30440  Biso   1.000  C
  C39      1.0000 0.71230  0.51830  0.19560  Biso   1.000  C
  C40      1.0000 0.78770  0.48170  0.69560  Biso   1.000  C
  C41      1.0000 0.20030  0.03470  0.75070  Biso   1.000  C
  C42      1.0000 0.29970  0.96530  0.25070  Biso   1.000  C
  C43      1.0000 0.70030  0.46530  0.24930  Biso   1.000  C
  C44      1.0000 0.79970  0.53470  0.74930  Biso   1.000  C
  H33      1.0000 0.13381  0.02677  0.72815  Biso   1.000  H
  H34      1.0000 0.36619  0.97323  0.22815  Biso   1.000  H
  H35      1.0000 0.63381  0.47323  0.27185  Biso   1.000  H
  H36      1.0000 0.86619  0.52677  0.77185  Biso   1.000  H
  C45      1.0000 0.29010  0.02580  0.70240  Biso   1.000  C
  C46      1.0000 0.20990  0.97420  0.20240  Biso   1.000  C
  C47      1.0000 0.79010  0.47420  0.29760  Biso   1.000  C
  C48      1.0000 0.70990  0.52580  0.79760  Biso   1.000  C
  H37      1.0000 0.27582  0.98599  0.67633  Biso   1.000  H
  H38      1.0000 0.22418  0.01401  0.17633  Biso   1.000  H
  H39      1.0000 0.77582  0.51401  0.32367  Biso   1.000  H
  H40      1.0000 0.72418  0.48599  0.82367  Biso   1.000  H
  H41      1.0000 0.29049  0.06463  0.67351  Biso   1.000  H
  H42      1.0000 0.20951  0.93537  0.17351  Biso   1.000  H
  H43      1.0000 0.79049  0.43537  0.32649  Biso   1.000  H
  H44      1.0000 0.70951  0.56463  0.82649  Biso   1.000  H
  C49      1.0000 0.39670  0.01870  0.73110  Biso   1.000  C
  C50      1.0000 0.10330  0.98130  0.23110  Biso   1.000  C
  C51      1.0000 0.89670  0.48130  0.26890  Biso   1.000  C
  C52      1.0000 0.60330  0.51870  0.76890  Biso   1.000  C
  C53      1.0000 0.45570  0.07340  0.75350  Biso   1.000  C
  C54      1.0000 0.04430  0.92660  0.25350  Biso   1.000  C
  C55      1.0000 0.95570  0.42660  0.24650  Biso   1.000  C
  C56      1.0000 0.54430  0.57340  0.74650  Biso   1.000  C
  H45      1.0000 0.42862  0.11697  0.74933  Biso   1.000  H
  H46      1.0000 0.07138  0.88303  0.24933  Biso   1.000  H
  H47      1.0000 0.92862  0.38303  0.25067  Biso   1.000  H
  H48      1.0000 0.57138  0.61697  0.75067  Biso   1.000  H
  C57      1.0000 0.55350  0.06480  0.78180  Biso   1.000  C
  C58      1.0000 0.94650  0.93520  0.28180  Biso   1.000  C
  C59      1.0000 0.05350  0.43520  0.21820  Biso   1.000  C
  C60      1.0000 0.44650  0.56480  0.71820  Biso   1.000  C
  H49      1.0000 0.59083  0.10208  0.79697  Biso   1.000  H
  H50      1.0000 0.90917  0.89792  0.29697  Biso   1.000  H
  H51      1.0000 0.09083  0.39792  0.20303  Biso   1.000  H
  H52      1.0000 0.40917  0.60208  0.70303  Biso   1.000  H
  C61      1.0000 0.59460  0.00090  0.78710  Biso   1.000  C
  C62      1.0000 0.90540  0.99910  0.28710  Biso   1.000  C
  C63      1.0000 0.09460  0.49910  0.21290  Biso   1.000  C
  C64      1.0000 0.40540  0.50090  0.71290  Biso   1.000  C
  H53      1.0000 0.66064  0.99450  0.80529  Biso   1.000  H
  H54      1.0000 0.83936  0.00550  0.30529  Biso   1.000  H
  H55      1.0000 0.16064  0.50550  0.19471  Biso   1.000  H
  H56      1.0000 0.33936  0.49450  0.69471  Biso   1.000  H
  C65      1.0000 0.53740  0.94630  0.76550  Biso   1.000  C
  C66      1.0000 0.96260  0.05370  0.26550  Biso   1.000  C
  C67      1.0000 0.03740  0.55370  0.23450  Biso   1.000  C
  C68      1.0000 0.46260  0.44630  0.73450  Biso   1.000  C
  H57      1.0000 0.56501  0.90292  0.76962  Biso   1.000  H
  H58      1.0000 0.93499  0.09708  0.26962  Biso   1.000  H
  H59      1.0000 0.06501  0.59708  0.23038  Biso   1.000  H
  H60      1.0000 0.43499  0.40292  0.73038  Biso   1.000  H
  C69      1.0000 0.44120  0.95460  0.73810  Biso   1.000  C
  C70      1.0000 0.05880  0.04540  0.23810  Biso   1.000  C
  C71      1.0000 0.94120  0.54540  0.26190  Biso   1.000  C
  C72      1.0000 0.55880  0.45460  0.76190  Biso   1.000  C
  H61      1.0000 0.40446  0.91672  0.72373  Biso   1.000  H
  H62      1.0000 0.09554  0.08328  0.22373  Biso   1.000  H
  H63      1.0000 0.90446  0.58328  0.27627  Biso   1.000  H
  H64      1.0000 0.59554  0.41672  0.77627  Biso   1.000  H
  C73      1.0000 0.43630  0.77610  0.69490  Biso   1.000  C
  C74      1.0000 0.06370  0.22390  0.19490  Biso   1.000  C
  C75      1.0000 0.93630  0.72390  0.30510  Biso   1.000  C
  C76      1.0000 0.56370  0.27610  0.80510  Biso   1.000  C
  H65      1.0000 0.49832  0.76617  0.71660  Biso   1.000  H
  H66      1.0000 0.00168  0.23383  0.21660  Biso   1.000  H
  H67      1.0000 0.99832  0.73383  0.28340  Biso   1.000  H
  H68      1.0000 0.50168  0.26617  0.78340  Biso   1.000  H
  C77      1.0000 0.44020  0.81000  0.63590  Biso   1.000  C
  C78      1.0000 0.05980  0.19000  0.13590  Biso   1.000  C
  C79      1.0000 0.94020  0.69000  0.36410  Biso   1.000  C
  C80      1.0000 0.55980  0.31000  0.86410  Biso   1.000  C
  H69      1.0000 0.50488  0.82180  0.61832  Biso   1.000  H
  H70      1.0000 0.99512  0.17820  0.11832  Biso   1.000  H
  H71      1.0000 0.00488  0.67820  0.38168  Biso   1.000  H
  H72      1.0000 0.49512  0.32180  0.88168  Biso   1.000  H
  C81      1.0000 0.35180  0.82610  0.60380  Biso   1.000  C
  C82      1.0000 0.14820  0.17390  0.10380  Biso   1.000  C
  C83      1.0000 0.85180  0.67390  0.39620  Biso   1.000  C
  C84      1.0000 0.64820  0.32610  0.89620  Biso   1.000  C
  H73      1.0000 0.35482  0.85026  0.56512  Biso   1.000  H
  H74      1.0000 0.14518  0.14974  0.06512  Biso   1.000  H
  H75      1.0000 0.85482  0.64974  0.43488  Biso   1.000  H
  H76      1.0000 0.64518  0.35026  0.93488  Biso   1.000  H
  C85      1.0000 0.25670  0.80620  0.62920  Biso   1.000  C
  C86      1.0000 0.24330  0.19380  0.12920  Biso   1.000  C
  C87      1.0000 0.75670  0.69380  0.37080  Biso   1.000  C
  C88      1.0000 0.74330  0.30620  0.87080  Biso   1.000  C
  H77      1.0000 0.19481  0.81537  0.60701  Biso   1.000  H
  H78      1.0000 0.30519  0.18463  0.10701  Biso   1.000  H
  H79      1.0000 0.69481  0.68463  0.39299  Biso   1.000  H
  H80      1.0000 0.80519  0.31537  0.89299  Biso   1.000  H
  C89      1.0000 0.25390  0.77290  0.68710  Biso   1.000  C
  C90      1.0000 0.24610  0.22710  0.18710  Biso   1.000  C
  C91      1.0000 0.75390  0.72710  0.31290  Biso   1.000  C
  C92      1.0000 0.74610  0.27290  0.81290  Biso   1.000  C
  H81      1.0000 0.18903  0.76043  0.70398  Biso   1.000  H
  H82      1.0000 0.31097  0.23957  0.20398  Biso   1.000  H
  H83      1.0000 0.68903  0.73957  0.29602  Biso   1.000  H
  H84      1.0000 0.81097  0.26043  0.79602  Biso   1.000  H
  C93      1.0000 0.34210  0.75720  0.72140  Biso   1.000  C
  C94      1.0000 0.15790  0.24280  0.22140  Biso   1.000  C
  C95      1.0000 0.84210  0.74280  0.27860  Biso   1.000  C
  C96      1.0000 0.65790  0.25720  0.77860  Biso   1.000  C
  C97      1.0000 0.33630  0.72230  0.78650  Biso   1.000  C
  C98      1.0000 0.16370  0.27770  0.28650  Biso   1.000  C
  C99      1.0000 0.83630  0.77770  0.21350  Biso   1.000  C
  C100     1.0000 0.66370  0.22230  0.71350  Biso   1.000  C
  H85      1.0000 0.40634  0.70920  0.80000  Biso   1.000  H
  H86      1.0000 0.09366  0.29080  0.30000  Biso   1.000  H
  H87      1.0000 0.90634  0.79080  0.20000  Biso   1.000  H
  H88      1.0000 0.59366  0.20920  0.70000  Biso   1.000  H
  H89      1.0000 0.29447  0.68148  0.78260  Biso   1.000  H
  H90      1.0000 0.20553  0.31852  0.28260  Biso   1.000  H
  H91      1.0000 0.79447  0.81852  0.21740  Biso   1.000  H
  H92      1.0000 0.70553  0.18148  0.71740  Biso   1.000  H
  C101     1.0000 0.28750  0.76890  0.83850  Biso   1.000  C
  C102     1.0000 0.21250  0.23110  0.33850  Biso   1.000  C
  C103     1.0000 0.78750  0.73110  0.16150  Biso   1.000  C
  C104     1.0000 0.71250  0.26890  0.66150  Biso   1.000  C
  H93      1.0000 0.21394  0.77672  0.82695  Biso   1.000  H
  H94      1.0000 0.28606  0.22328  0.32695  Biso   1.000  H
  H95      1.0000 0.71394  0.72328  0.17305  Biso   1.000  H
  H96      1.0000 0.78606  0.27672  0.67305  Biso   1.000  H
  C105     1.0000 0.29050  0.73600  0.90420  Biso   1.000  C
  C106     1.0000 0.20950  0.26400  0.40420  Biso   1.000  C
  C107     1.0000 0.79050  0.76400  0.09580  Biso   1.000  C
  C108     1.0000 0.70950  0.23600  0.59580  Biso   1.000  C
  C109     1.0000 0.39570  0.75220  0.05430  Biso   1.000  C
  C110     1.0000 0.10430  0.24780  0.55430  Biso   1.000  C
  C111     1.0000 0.89570  0.74780  0.94570  Biso   1.000  C
  C112     1.0000 0.60430  0.25220  0.44570  Biso   1.000  C
  C113     1.0000 0.41080  0.69710  0.10460  Biso   1.000  C
  C114     1.0000 0.08920  0.30290  0.60460  Biso   1.000  C
  C115     1.0000 0.91080  0.80290  0.89540  Biso   1.000  C
  C116     1.0000 0.58920  0.19710  0.39540  Biso   1.000  C
  H97      1.0000 0.40363  0.71686  0.14799  Biso   1.000  H
  H98      1.0000 0.09637  0.28314  0.64799  Biso   1.000  H
  H99      1.0000 0.90363  0.78314  0.85201  Biso   1.000  H
  H100     1.0000 0.59637  0.21686  0.35201  Biso   1.000  H
  C117     1.0000 0.52130  0.66600  0.09770  Biso   1.000  C
  C118     1.0000 0.97870  0.33400  0.59770  Biso   1.000  C
  C119     1.0000 0.02130  0.83400  0.90230  Biso   1.000  C
  C120     1.0000 0.47870  0.16600  0.40230  Biso   1.000  C
  H101     1.0000 0.57186  0.70240  0.09273  Biso   1.000  H
  H102     1.0000 0.92814  0.29760  0.59273  Biso   1.000  H
  H103     1.0000 0.07186  0.79760  0.90727  Biso   1.000  H
  H104     1.0000 0.42814  0.20240  0.40727  Biso   1.000  H
  H105     1.0000 0.53841  0.64180  0.13723  Biso   1.000  H
  H106     1.0000 0.96159  0.35820  0.63723  Biso   1.000  H
  H107     1.0000 0.03841  0.85820  0.86277  Biso   1.000  H
  H108     1.0000 0.46159  0.14180  0.36277  Biso   1.000  H
  C121     1.0000 0.53150  0.61850  0.04140  Biso   1.000  C
  C122     1.0000 0.96850  0.38150  0.54140  Biso   1.000  C
  C123     1.0000 0.03150  0.88150  0.95860  Biso   1.000  C
  C124     1.0000 0.46850  0.11850  0.45860  Biso   1.000  C
  C125     1.0000 0.53370  0.54790  0.05130  Biso   1.000  C
  C126     1.0000 0.96630  0.45210  0.55130  Biso   1.000  C
  C127     1.0000 0.03370  0.95210  0.94870  Biso   1.000  C
  C128     1.0000 0.46630  0.04790  0.44870  Biso   1.000  C
  H109     1.0000 0.53073  0.53119  0.09347  Biso   1.000  H
  H110     1.0000 0.96927  0.46881  0.59347  Biso   1.000  H
  H111     1.0000 0.03073  0.96881  0.90653  Biso   1.000  H
  H112     1.0000 0.46927  0.03119  0.40653  Biso   1.000  H
  C129     1.0000 0.54030  0.50290  0.00070  Biso   1.000  C
  C130     1.0000 0.95970  0.49710  0.50070  Biso   1.000  C
  C131     1.0000 0.04030  0.99710  0.99930  Biso   1.000  C
  C132     1.0000 0.45970  0.00290  0.49930  Biso   1.000  C
  H113     1.0000 0.54397  0.45657  0.00863  Biso   1.000  H
  H114     1.0000 0.95603  0.54343  0.50863  Biso   1.000  H
  H115     1.0000 0.04397  0.04343  0.99137  Biso   1.000  H
  H116     1.0000 0.45603  0.95657  0.49137  Biso   1.000  H
  C133     1.0000 0.54120  0.52690  0.93820  Biso   1.000  C
  C134     1.0000 0.95880  0.47310  0.43820  Biso   1.000  C
  C135     1.0000 0.04120  0.97310  0.06180  Biso   1.000  C
  C136     1.0000 0.45880  0.02690  0.56180  Biso   1.000  C
  H117     1.0000 0.54349  0.49662  0.90365  Biso   1.000  H
  H118     1.0000 0.95651  0.50338  0.40365  Biso   1.000  H
  H119     1.0000 0.04349  0.00338  0.09635  Biso   1.000  H
  H120     1.0000 0.45651  0.99662  0.59635  Biso   1.000  H
  C137     1.0000 0.53890  0.59460  0.92640  Biso   1.000  C
  C138     1.0000 0.96110  0.40540  0.42640  Biso   1.000  C
  C139     1.0000 0.03890  0.90540  0.07360  Biso   1.000  C
  C140     1.0000 0.46110  0.09460  0.57360  Biso   1.000  C
  H121     1.0000 0.54001  0.61017  0.88384  Biso   1.000  H
  H122     1.0000 0.95999  0.38983  0.38384  Biso   1.000  H
  H123     1.0000 0.04001  0.88983  0.11616  Biso   1.000  H
  H124     1.0000 0.45999  0.11017  0.61616  Biso   1.000  H
  C141     1.0000 0.53500  0.64120  0.97730  Biso   1.000  C
  C142     1.0000 0.96500  0.35880  0.47730  Biso   1.000  C
  C143     1.0000 0.03500  0.85880  0.02270  Biso   1.000  C
  C144     1.0000 0.46500  0.14120  0.52270  Biso   1.000  C
  H125     1.0000 0.53463  0.68740  0.96855  Biso   1.000  H
  H126     1.0000 0.96537  0.31260  0.46855  Biso   1.000  H
  H127     1.0000 0.03463  0.81260  0.03145  Biso   1.000  H
  H128     1.0000 0.46537  0.18740  0.53145  Biso   1.000  H
  C145     1.0000 0.29950  0.22040  0.94820  Biso   1.000  C
  C146     1.0000 0.20050  0.77960  0.44820  Biso   1.000  C
  C147     1.0000 0.79950  0.27960  0.05180  Biso   1.000  C
  C148     1.0000 0.70050  0.72040  0.55180  Biso   1.000  C
  H129     1.0000 0.31702  0.18706  0.97816  Biso   1.000  H
  H130     1.0000 0.18298  0.81294  0.47816  Biso   1.000  H
  H131     1.0000 0.81702  0.31294  0.02184  Biso   1.000  H
  H132     1.0000 0.68298  0.68706  0.52184  Biso   1.000  H
  C149     1.0000 0.30800  0.28720  0.96690  Biso   1.000  C
  C150     1.0000 0.19200  0.71280  0.46690  Biso   1.000  C
  C151     1.0000 0.80800  0.21280  0.03310  Biso   1.000  C
  C152     1.0000 0.69200  0.78720  0.53310  Biso   1.000  C
  H133     1.0000 0.33174  0.29821  0.00818  Biso   1.000  H
  H134     1.0000 0.16826  0.70179  0.50818  Biso   1.000  H
  H135     1.0000 0.83174  0.20179  0.99182  Biso   1.000  H
  H136     1.0000 0.66826  0.79821  0.49182  Biso   1.000  H
  C153     1.0000 0.28090  0.33750  0.92390  Biso   1.000  C
  C154     1.0000 0.21910  0.66250  0.42390  Biso   1.000  C
  C155     1.0000 0.78090  0.16250  0.07610  Biso   1.000  C
  C156     1.0000 0.71910  0.83750  0.57610  Biso   1.000  C
  C157     1.0000 0.25180  0.31740  0.86200  Biso   1.000  C
  C158     1.0000 0.24820  0.68260  0.36200  Biso   1.000  C
  C159     1.0000 0.75180  0.18260  0.13800  Biso   1.000  C
  C160     1.0000 0.74820  0.81740  0.63800  Biso   1.000  C
  H137     1.0000 0.23647  0.34982  0.83067  Biso   1.000  H
  H138     1.0000 0.26353  0.65018  0.33067  Biso   1.000  H
  H139     1.0000 0.73647  0.15018  0.16933  Biso   1.000  H
  H140     1.0000 0.76353  0.84982  0.66933  Biso   1.000  H
  C161     1.0000 0.24560  0.24920  0.84660  Biso   1.000  C
  C162     1.0000 0.25440  0.75080  0.34660  Biso   1.000  C
  C163     1.0000 0.74560  0.25080  0.15340  Biso   1.000  C
  C164     1.0000 0.75440  0.74920  0.65340  Biso   1.000  C
  H141     1.0000 0.22538  0.23663  0.80500  Biso   1.000  H
  H142     1.0000 0.27462  0.76337  0.30500  Biso   1.000  H
  H143     1.0000 0.72538  0.26337  0.19500  Biso   1.000  H
  H144     1.0000 0.77462  0.73663  0.69500  Biso   1.000  H
  C165     1.0000 0.27980  0.41030  0.94270  Biso   1.000  C
  C166     1.0000 0.22020  0.58970  0.44270  Biso   1.000  C
  C167     1.0000 0.77980  0.08970  0.05730  Biso   1.000  C
  C168     1.0000 0.72020  0.91030  0.55730  Biso   1.000  C
  C169     1.0000 0.28030  0.42980  0.00680  Biso   1.000  C
  C170     1.0000 0.21970  0.57020  0.50680  Biso   1.000  C
  C171     1.0000 0.78030  0.07020  0.99320  Biso   1.000  C
  C172     1.0000 0.71970  0.92980  0.49320  Biso   1.000  C
  H145     1.0000 0.28388  0.39715  0.03928  Biso   1.000  H
  H146     1.0000 0.21612  0.60285  0.53928  Biso   1.000  H
  H147     1.0000 0.78388  0.10285  0.96072  Biso   1.000  H
  H148     1.0000 0.71612  0.89715  0.46072  Biso   1.000  H
  C173     1.0000 0.27550  0.49740  0.02300  Biso   1.000  C
  C174     1.0000 0.22450  0.50260  0.52300  Biso   1.000  C
  C175     1.0000 0.77550  0.00260  0.97700  Biso   1.000  C
  C176     1.0000 0.72450  0.99740  0.47700  Biso   1.000  C
  H149     1.0000 0.27447  0.50917  0.06661  Biso   1.000  H
  H150     1.0000 0.22553  0.49083  0.56661  Biso   1.000  H
  H151     1.0000 0.77447  0.99083  0.93339  Biso   1.000  H
  H152     1.0000 0.72553  0.00917  0.43339  Biso   1.000  H
  C177     1.0000 0.27110  0.52810  0.91680  Biso   1.000  C
  C178     1.0000 0.22890  0.47190  0.41680  Biso   1.000  C
  C179     1.0000 0.77110  0.97190  0.08320  Biso   1.000  C
  C180     1.0000 0.72890  0.02810  0.58320  Biso   1.000  C
  H153     1.0000 0.26740  0.56182  0.88540  Biso   1.000  H
  H154     1.0000 0.23260  0.43818  0.38540  Biso   1.000  H
  H155     1.0000 0.76740  0.93818  0.11460  Biso   1.000  H
  H156     1.0000 0.73260  0.06182  0.61460  Biso   1.000  H
  C181     1.0000 0.27530  0.46110  0.89700  Biso   1.000  C
  C182     1.0000 0.22470  0.53890  0.39700  Biso   1.000  C
  C183     1.0000 0.77530  0.03890  0.10300  Biso   1.000  C
  C184     1.0000 0.72470  0.96110  0.60300  Biso   1.000  C
  H157     1.0000 0.27500  0.45055  0.85303  Biso   1.000  H
  H158     1.0000 0.22500  0.54945  0.35303  Biso   1.000  H
  H159     1.0000 0.77500  0.04945  0.14697  Biso   1.000  H
  H160     1.0000 0.72500  0.95055  0.64697  Biso   1.000  H
  N1       1.0000 0.27930  0.96890  0.91260  Biso   1.000  N
  N2       1.0000 0.22070  0.03110  0.41260  Biso   1.000  N
  N3       1.0000 0.77930  0.53110  0.08740  Biso   1.000  N
  N4       1.0000 0.72070  0.46890  0.58740  Biso   1.000  N
  N5       1.0000 0.25130  0.00750  0.85760  Biso   1.000  N
  N6       1.0000 0.24870  0.99250  0.35760  Biso   1.000  N
  N7       1.0000 0.75130  0.49250  0.14240  Biso   1.000  N
  N8       1.0000 0.74870  0.50750  0.64240  Biso   1.000  N
  N9       1.0000 0.30310  0.90550  0.02260  Biso   1.000  N
  N10      1.0000 0.19690  0.09450  0.52260  Biso   1.000  N
  N11      1.0000 0.80310  0.59450  0.97740  Biso   1.000  N
  N12      1.0000 0.69690  0.40550  0.47740  Biso   1.000  N
  H161     1.0000 0.23825  0.89971  0.03762  Biso   1.000  H
  H162     1.0000 0.26175  0.10029  0.53762  Biso   1.000  H
  H163     1.0000 0.73825  0.60029  0.96238  Biso   1.000  H
  H164     1.0000 0.76175  0.39971  0.46238  Biso   1.000  H
  H165     1.0000 0.34690  0.88213  0.04768  Biso   1.000  H
  H166     1.0000 0.15310  0.11787  0.54768  Biso   1.000  H
  H167     1.0000 0.84690  0.61787  0.95232  Biso   1.000  H
  H168     1.0000 0.65310  0.38213  0.45232  Biso   1.000  H
  N13      1.0000 0.19890  0.10440  0.77850  Biso   1.000  N
  N14      1.0000 0.30110  0.89560  0.27850  Biso   1.000  N
  N15      1.0000 0.69890  0.39560  0.22150  Biso   1.000  N
  N16      1.0000 0.80110  0.60440  0.72150  Biso   1.000  N
  H169     1.0000 0.13418  0.12110  0.77642  Biso   1.000  H
  H170     1.0000 0.36582  0.87890  0.27642  Biso   1.000  H
  H171     1.0000 0.63418  0.37890  0.22358  Biso   1.000  H
  H172     1.0000 0.86582  0.62110  0.72358  Biso   1.000  H
  H173     1.0000 0.24085  0.13117  0.75543  Biso   1.000  H
  H174     1.0000 0.25915  0.86883  0.25543  Biso   1.000  H
  H175     1.0000 0.74085  0.36883  0.24457  Biso   1.000  H
  H176     1.0000 0.75915  0.63117  0.74457  Biso   1.000  H
  N17      1.0000 0.32020  0.77480  0.95230  Biso   1.000  N
  N18      1.0000 0.17980  0.22520  0.45230  Biso   1.000  N
  N19      1.0000 0.82020  0.72520  0.04770  Biso   1.000  N
  N20      1.0000 0.67980  0.27480  0.54770  Biso   1.000  N
  N21      1.0000 0.32640  0.73697  0.00960  Biso   1.000  N
  N22      1.0000 0.17360  0.26303  0.50960  Biso   1.000  N
  N23      1.0000 0.82640  0.76303  0.99040  Biso   1.000  N
  N24      1.0000 0.67360  0.23697  0.49040  Biso   1.000  N
  N25      1.0000 0.33990  0.83560  0.84390  Biso   1.000  N
  N26      1.0000 0.16010  0.16440  0.34390  Biso   1.000  N
  N27      1.0000 0.83990  0.66440  0.15610  Biso   1.000  N
  N28      1.0000 0.66010  0.33560  0.65610  Biso   1.000  N
  H177     1.0000 0.31502  0.86376  0.81391  Biso   1.000  H
  H178     1.0000 0.18498  0.13624  0.31391  Biso   1.000  H
  H179     1.0000 0.81502  0.63624  0.18609  Biso   1.000  H
  H180     1.0000 0.68498  0.36376  0.68609  Biso   1.000  H
  H181     1.0000 0.40858  0.83095  0.83775  Biso   1.000  H
  H182     1.0000 0.09142  0.16905  0.33775  Biso   1.000  H
  H183     1.0000 0.90858  0.66905  0.16225  Biso   1.000  H
  H184     1.0000 0.59142  0.33095  0.66225  Biso   1.000  H
  N29      1.0000 0.32980  0.64350  0.09610  Biso   1.000  N
  N30      1.0000 0.17020  0.35650  0.59610  Biso   1.000  N
  N31      1.0000 0.82980  0.85650  0.90390  Biso   1.000  N
  N32      1.0000 0.67020  0.14350  0.40390  Biso   1.000  N
  H185     1.0000 0.27576  0.65132  0.12229  Biso   1.000  H
  H186     1.0000 0.22424  0.34868  0.62229  Biso   1.000  H
  H187     1.0000 0.77576  0.84868  0.87771  Biso   1.000  H
  H188     1.0000 0.72424  0.15132  0.37771  Biso   1.000  H
  H189     1.0000 0.35671  0.60314  0.10588  Biso   1.000  H
  H190     1.0000 0.14329  0.39686  0.60588  Biso   1.000  H
  H191     1.0000 0.85671  0.89686  0.89412  Biso   1.000  H
  H192     1.0000 0.64329  0.10314  0.39412  Biso   1.000  H
  N33      1.0000 0.26780  0.20090  0.88980  Biso   1.000  N
  N34      1.0000 0.23220  0.79910  0.38980  Biso   1.000  N
  N35      1.0000 0.76780  0.29910  0.11020  Biso   1.000  N
  N36      1.0000 0.73220  0.70090  0.61020  Biso   1.000  N
  N37      1.0000 0.27220  0.54640  0.97900  Biso   1.000  N
  N38      1.0000 0.22780  0.45360  0.47900  Biso   1.000  N
  N39      1.0000 0.77220  0.95360  0.02100  Biso   1.000  N
  N40      1.0000 0.72780  0.04640  0.52100  Biso   1.000  N
  O1       1.0000 0.27510  0.07335  0.96070  Biso   1.000  O
  O2       1.0000 0.22490  0.92665  0.46070  Biso   1.000  O
  O3       1.0000 0.77510  0.42665  0.03930  Biso   1.000  O
  O4       1.0000 0.72490  0.57335  0.53930  Biso   1.000  O
  O5       1.0000 0.19120  0.92101  0.79270  Biso   1.000  O
  O6       1.0000 0.30880  0.07899  0.29270  Biso   1.000  O
  O7       1.0000 0.69120  0.57899  0.20730  Biso   1.000  O
  O8       1.0000 0.80880  0.42101  0.70730  Biso   1.000  O
  O9       1.0000 0.26430  0.67429  0.91017  Biso   1.000  O
  O10      1.0000 0.23570  0.32571  0.41017  Biso   1.000  O
  O11      1.0000 0.76430  0.82571  0.08983  Biso   1.000  O
  O12      1.0000 0.73570  0.17429  0.58983  Biso   1.000  O
  O13      1.0000 0.45170  0.80460  0.05710  Biso   1.000  O
  O14      1.0000 0.04830  0.19540  0.55710  Biso   1.000  O
  O15      1.0000 0.95170  0.69540  0.94290  Biso   1.000  O
  O16      1.0000 0.54830  0.30460  0.44290  Biso   1.000  O
  O17      1.0000 0.10250  0.65150  0.03240  Biso   1.000  O
  O18      1.0000 0.39750  0.34850  0.53240  Biso   1.000  O
  O19      1.0000 0.60250  0.84850  0.96760  Biso   1.000  O
  O20      1.0000 0.89750  0.15150  0.46760  Biso   1.000  O
  Cu1      1.0000 0.24722  0.10277  0.87159  Biso   1.000  Cu
  Cu2      1.0000 0.25278  0.89723  0.37159  Biso   1.000  Cu
  Cu3      1.0000 0.74722  0.39723  0.12841  Biso   1.000  Cu
  Cu4      1.0000 0.75278  0.60277  0.62841  Biso   1.000  Cu
  Cu5      1.0000 0.28110  0.64440  0.00177  Biso   1.000  Cu
  Cu6      1.0000 0.21890  0.35560  0.50177  Biso   1.000  Cu
  Cu7      1.0000 0.78110  0.85560  0.99823  Biso   1.000  Cu
  Cu8      1.0000 0.71890  0.14440  0.49823  Biso   1.000  Cu
  Cu9      1.0000 0.31232  0.87236  0.93152  Biso   1.000  Cu
  Cu10     1.0000 0.18768  0.12764  0.43152  Biso   1.000  Cu
  Cu11     1.0000 0.81232  0.62764  0.06848  Biso   1.000  Cu
  Cu12     1.0000 0.68768  0.37236  0.56848  Biso   1.000  Cu
  H193     1.0000 0.09300  0.67800  0.06500  Biso   1.000  H
  H194     1.0000 0.40700  0.32200  0.56500  Biso   1.000  H
  H195     1.0000 0.59300  0.82200  0.93500  Biso   1.000  H
  H196     1.0000 0.90700  0.17800  0.43500  Biso   1.000  H
  H197     1.0000 0.06900  0.65700  0.99800  Biso   1.000  H
  H198     1.0000 0.43100  0.34300  0.49800  Biso   1.000  H
  H199     1.0000 0.56900  0.84300  0.00200  Biso   1.000  H
  H200     1.0000 0.93100  0.15700  0.50200  Biso   1.000  H
  O21      1.0000 0.02380  0.13280  0.88400  Biso   1.000  O
  O22      1.0000 0.47620  0.86720  0.38400  Biso   1.000  O
  O23      1.0000 0.52380  0.36720  0.11600  Biso   1.000  O
  O24      1.0000 0.97620  0.63280  0.61600  Biso   1.000  O
  H201     1.0000 0.02900  0.16600  0.85700  Biso   1.000  H
  H202     1.0000 0.47100  0.83400  0.35700  Biso   1.000  H
  H203     1.0000 0.52900  0.33400  0.14300  Biso   1.000  H
  H204     1.0000 0.97100  0.66600  0.64300  Biso   1.000  H
  H205     1.0000 0.95900  0.12300  0.89200  Biso   1.000  H
  H206     1.0000 0.54100  0.87700  0.39200  Biso   1.000  H
  H207     1.0000 0.45900  0.37700  0.10800  Biso   1.000  H
  H208     1.0000 0.04100  0.62300  0.60800  Biso   1.000  H
  N41      1.0000 0.88170  0.01010  0.77810  Biso   1.000  N
  N42      1.0000 0.61830  0.98990  0.27810  Biso   1.000  N
  N43      1.0000 0.38170  0.48990  0.22190  Biso   1.000  N
  N44      1.0000 0.11830  0.51010  0.72190  Biso   1.000  N
  O25      1.0000 0.87800  0.05520  0.81770  Biso   1.000  O
  O26      1.0000 0.62200  0.94480  0.31770  Biso   1.000  O
  O27      1.0000 0.37800  0.44480  0.18230  Biso   1.000  O
  O28      1.0000 0.12200  0.55520  0.68230  Biso   1.000  O
  O29      1.0000 0.89640  0.02930  0.72530  Biso   1.000  O
  O30      1.0000 0.60360  0.97070  0.22530  Biso   1.000  O
  O31      1.0000 0.39640  0.47070  0.27470  Biso   1.000  O
  O32      1.0000 0.10360  0.52930  0.77470  Biso   1.000  O
  O33      1.0000 0.86400  0.96100  0.79570  Biso   1.000  O
  O34      1.0000 0.63600  0.03900  0.29570  Biso   1.000  O
  O35      1.0000 0.36400  0.53900  0.20430  Biso   1.000  O
  O36      1.0000 0.13600  0.46100  0.70430  Biso   1.000  O
  N45      1.0000 0.15000  0.75300  0.17180  Biso   1.000  N
  N46      1.0000 0.35000  0.24700  0.67180  Biso   1.000  N
  N47      1.0000 0.65000  0.74700  0.82820  Biso   1.000  N
  N48      1.0000 0.85000  0.25300  0.32820  Biso   1.000  N
  O37      1.0000 0.18110  0.79900  0.18580  Biso   1.000  O
  O38      1.0000 0.31890  0.20100  0.68580  Biso   1.000  O
  O39      1.0000 0.68110  0.70100  0.81420  Biso   1.000  O
  O40      1.0000 0.81890  0.29900  0.31420  Biso   1.000  O
  O41      1.0000 0.07310  0.73410  0.14230  Biso   1.000  O
  O42      1.0000 0.42690  0.26590  0.64230  Biso   1.000  O
  O43      1.0000 0.57310  0.76590  0.85770  Biso   1.000  O
  O44      1.0000 0.92690  0.23410  0.35770  Biso   1.000  O
  O45      1.0000 0.19020  0.70180  0.19490  Biso   1.000  O
  O46      1.0000 0.30980  0.29820  0.69490  Biso   1.000  O
  O47      1.0000 0.69020  0.79820  0.80510  Biso   1.000  O
  O48      1.0000 0.80980  0.20180  0.30510  Biso   1.000  O
  O49      1.0000 0.01980  0.22770  0.78350  Biso   1.000  O
  O50      1.0000 0.48020  0.77230  0.28350  Biso   1.000  O
  O51      1.0000 0.51980  0.27230  0.21650  Biso   1.000  O
  O52      1.0000 0.98020  0.72770  0.71650  Biso   1.000  O
  H209     1.0000 0.00700  0.26920  0.78000  Biso   1.000  H
  H210     1.0000 0.49300  0.73080  0.28000  Biso   1.000  H
  H211     1.0000 0.50700  0.23080  0.22000  Biso   1.000  H
  H212     1.0000 0.99300  0.76920  0.72000  Biso   1.000  H
  H213     1.0000 0.01200  0.19700  0.75400  Biso   1.000  H
  H214     1.0000 0.48800  0.80300  0.25400  Biso   1.000  H
  H215     1.0000 0.51200  0.30300  0.24600  Biso   1.000  H
  H216     1.0000 0.98800  0.69700  0.74600  Biso   1.000  H
  O53      1.0000 0.97900  0.14960  0.67940  Biso   1.000  O
  O54      1.0000 0.52100  0.85040  0.17940  Biso   1.000  O
  O55      1.0000 0.47900  0.35040  0.32060  Biso   1.000  O
  O56      1.0000 0.02100  0.64960  0.82060  Biso   1.000  O
  H217     1.0000 0.94800  0.10500  0.69400  Biso   1.000  H
  H218     1.0000 0.55200  0.89500  0.19400  Biso   1.000  H
  H219     1.0000 0.44800  0.39500  0.30600  Biso   1.000  H
  H220     1.0000 0.05200  0.60500  0.80600  Biso   1.000  H
  H221     1.0000 0.02700  0.13900  0.65300  Biso   1.000  H
  H222     1.0000 0.47300  0.86100  0.15300  Biso   1.000  H
  H223     1.0000 0.52700  0.36100  0.34700  Biso   1.000  H
  H224     1.0000 0.97300  0.63900  0.84700  Biso   1.000  H
  O57      1.0000 0.01390  0.86450  0.73350  Biso   1.000  O
  O58      1.0000 0.48610  0.13550  0.23350  Biso   1.000  O
  O59      1.0000 0.51390  0.63550  0.26650  Biso   1.000  O
  O60      1.0000 0.98610  0.36450  0.76650  Biso   1.000  O
  H225     1.0000 0.07400  0.87000  0.74900  Biso   1.000  H
  H226     1.0000 0.42600  0.13000  0.24900  Biso   1.000  H
  H227     1.0000 0.57400  0.63000  0.25100  Biso   1.000  H
  H228     1.0000 0.92600  0.37000  0.75100  Biso   1.000  H
  H229     1.0000 0.96300  0.89000  0.74200  Biso   1.000  H
  H230     1.0000 0.53700  0.11000  0.24200  Biso   1.000  H
  H231     1.0000 0.46300  0.61000  0.25800  Biso   1.000  H
  H232     1.0000 0.03700  0.39000  0.75800  Biso   1.000  H
