data_image0
_cell_length_a       8.6774
_cell_length_b       17.565
_cell_length_c       15.334
_cell_angle_alpha    90
_cell_angle_beta     95.929
_cell_angle_gamma    90

_symmetry_space_group_name_H-M    "P 1"
_symmetry_int_tables_number       1

loop_
  _symmetry_equiv_pos_as_xyz
  'x, y, z'

loop_
  _atom_site_label
  _atom_site_occupancy
  _atom_site_fract_x
  _atom_site_fract_y
  _atom_site_fract_z
  _atom_site_thermal_displace_type
  _atom_site_B_iso_or_equiv
  _atom_site_type_symbol
  Cu1      1.0000 0.34959  0.78985  0.75808  Biso   1.000  Cu
  Cu2      1.0000 0.65041  0.28985  0.74192  Biso   1.000  Cu
  Cu3      1.0000 0.65041  0.21015  0.24192  Biso   1.000  Cu
  Cu4      1.0000 0.34959  0.71015  0.25808  Biso   1.000  Cu
  O1       1.0000 0.42000  0.88144  0.70190  Biso   1.000  O
  O2       1.0000 0.58000  0.38144  0.79810  Biso   1.000  O
  O3       1.0000 0.58000  0.11856  0.29810  Biso   1.000  O
  O4       1.0000 0.42000  0.61856  0.20190  Biso   1.000  O
  O5       1.0000 0.55080  0.80940  0.61650  Biso   1.000  O
  O6       1.0000 0.44920  0.30940  0.88350  Biso   1.000  O
  O7       1.0000 0.44920  0.19060  0.38350  Biso   1.000  O
  O8       1.0000 0.55080  0.69060  0.11650  Biso   1.000  O
  O9       1.0000 0.72510  0.20430  0.66980  Biso   1.000  O
  O10      1.0000 0.27490  0.70430  0.83020  Biso   1.000  O
  O11      1.0000 0.27490  0.79570  0.33020  Biso   1.000  O
  O12      1.0000 0.72510  0.29570  0.16980  Biso   1.000  O
  O13      1.0000 0.58290  0.14390  0.75980  Biso   1.000  O
  O14      1.0000 0.41710  0.64390  0.74020  Biso   1.000  O
  O15      1.0000 0.41710  0.85610  0.24020  Biso   1.000  O
  O16      1.0000 0.58290  0.35610  0.25980  Biso   1.000  O
  O17      1.0000 0.90780  0.05870  0.42420  Biso   1.000  O
  O18      1.0000 0.09220  0.55870  0.07580  Biso   1.000  O
  O19      1.0000 0.09220  0.94130  0.57580  Biso   1.000  O
  O20      1.0000 0.90780  0.44130  0.92420  Biso   1.000  O
  O21      1.0000 0.81530  0.94790  0.39360  Biso   1.000  O
  O22      1.0000 0.18470  0.44790  0.10640  Biso   1.000  O
  O23      1.0000 0.18470  0.05210  0.60640  Biso   1.000  O
  O24      1.0000 0.81530  0.55210  0.89360  Biso   1.000  O
  O25      1.0000 0.19850  0.87170  0.83850  Biso   1.000  O
  O26      1.0000 0.80150  0.37170  0.66150  Biso   1.000  O
  O27      1.0000 0.80150  0.12830  0.16150  Biso   1.000  O
  O28      1.0000 0.19850  0.62830  0.33850  Biso   1.000  O
  O29      1.0000 0.50610  0.56480  0.60530  Biso   1.000  O
  O30      1.0000 0.49390  0.06480  0.89470  Biso   1.000  O
  O31      1.0000 0.49390  0.43520  0.39470  Biso   1.000  O
  O32      1.0000 0.50610  0.93520  0.10530  Biso   1.000  O
  H1       1.0000 0.60240  0.58010  0.63150  Biso   1.000  H
  H2       1.0000 0.39760  0.08010  0.86850  Biso   1.000  H
  H3       1.0000 0.39760  0.41990  0.36850  Biso   1.000  H
  H4       1.0000 0.60240  0.91990  0.13150  Biso   1.000  H
  N1       1.0000 0.82900  0.00390  0.44020  Biso   1.000  N
  N2       1.0000 0.17100  0.50390  0.05980  Biso   1.000  N
  N3       1.0000 0.17100  0.99610  0.55980  Biso   1.000  N
  N4       1.0000 0.82900  0.49610  0.94020  Biso   1.000  N
  N5       1.0000 0.17810  0.77040  0.66170  Biso   1.000  N
  N6       1.0000 0.82190  0.27040  0.83830  Biso   1.000  N
  N7       1.0000 0.82190  0.22960  0.33830  Biso   1.000  N
  N8       1.0000 0.17810  0.72960  0.16170  Biso   1.000  N
  N9       1.0000 0.54720  0.71090  0.34170  Biso   1.000  N
  N10      1.0000 0.45280  0.21090  0.15830  Biso   1.000  N
  N11      1.0000 0.45280  0.28910  0.65830  Biso   1.000  N
  N12      1.0000 0.54720  0.78910  0.84170  Biso   1.000  N
  N13      1.0000 0.08280  0.98630  0.83280  Biso   1.000  N
  N14      1.0000 0.91720  0.48630  0.66720  Biso   1.000  N
  N15      1.0000 0.91720  0.01370  0.16720  Biso   1.000  N
  N16      1.0000 0.08280  0.51370  0.33280  Biso   1.000  N
  C1       1.0000 0.51570  0.87080  0.64510  Biso   1.000  C
  C2       1.0000 0.48430  0.37080  0.85490  Biso   1.000  C
  C3       1.0000 0.48430  0.12920  0.35490  Biso   1.000  C
  C4       1.0000 0.51570  0.62920  0.14510  Biso   1.000  C
  C5       1.0000 0.59180  0.94250  0.61520  Biso   1.000  C
  C6       1.0000 0.40820  0.44250  0.88480  Biso   1.000  C
  C7       1.0000 0.40820  0.05750  0.38480  Biso   1.000  C
  C8       1.0000 0.59180  0.55750  0.11520  Biso   1.000  C
  C9       1.0000 0.58730  0.00960  0.66210  Biso   1.000  C
  C10      1.0000 0.41270  0.50960  0.83790  Biso   1.000  C
  C11      1.0000 0.41270  0.99040  0.33790  Biso   1.000  C
  C12      1.0000 0.58730  0.49040  0.16210  Biso   1.000  C
  H5       1.0000 0.53050  0.01130  0.71030  Biso   1.000  H
  H6       1.0000 0.46950  0.51130  0.78970  Biso   1.000  H
  H7       1.0000 0.46950  0.98870  0.28970  Biso   1.000  H
  H8       1.0000 0.53050  0.48870  0.21030  Biso   1.000  H
  C13      1.0000 0.66500  0.07450  0.63930  Biso   1.000  C
  C14      1.0000 0.33500  0.57450  0.86070  Biso   1.000  C
  C15      1.0000 0.33500  0.92550  0.36070  Biso   1.000  C
  C16      1.0000 0.66500  0.42550  0.13930  Biso   1.000  C
  C17      1.0000 0.74460  0.07290  0.56670  Biso   1.000  C
  C18      1.0000 0.25540  0.57290  0.93330  Biso   1.000  C
  C19      1.0000 0.25540  0.92710  0.43330  Biso   1.000  C
  C20      1.0000 0.74460  0.42710  0.06670  Biso   1.000  C
  H9       1.0000 0.79680  0.11570  0.54970  Biso   1.000  H
  H10      1.0000 0.20320  0.61570  0.95030  Biso   1.000  H
  H11      1.0000 0.20320  0.88430  0.45030  Biso   1.000  H
  H12      1.0000 0.79680  0.38430  0.04970  Biso   1.000  H
  C21      1.0000 0.74530  0.00580  0.51920  Biso   1.000  C
  C22      1.0000 0.25470  0.50580  0.98080  Biso   1.000  C
  C23      1.0000 0.25470  0.99420  0.48080  Biso   1.000  C
  C24      1.0000 0.74530  0.49420  0.01920  Biso   1.000  C
  C25      1.0000 0.67060  0.94090  0.54290  Biso   1.000  C
  C26      1.0000 0.32940  0.44090  0.95710  Biso   1.000  C
  C27      1.0000 0.32940  0.05910  0.45710  Biso   1.000  C
  C28      1.0000 0.67060  0.55910  0.04290  Biso   1.000  C
  H13      1.0000 0.67400  0.89660  0.50990  Biso   1.000  H
  H14      1.0000 0.32600  0.39660  0.99010  Biso   1.000  H
  H15      1.0000 0.32600  0.10340  0.49010  Biso   1.000  H
  H16      1.0000 0.67400  0.60340  0.00990  Biso   1.000  H
  C29      1.0000 0.65650  0.14630  0.69440  Biso   1.000  C
  C30      1.0000 0.34350  0.64630  0.80560  Biso   1.000  C
  C31      1.0000 0.34350  0.85370  0.30560  Biso   1.000  C
  C32      1.0000 0.65650  0.35370  0.19440  Biso   1.000  C
  C33      1.0000 0.03120  0.77730  0.67880  Biso   1.000  C
  C34      1.0000 0.96880  0.27730  0.82120  Biso   1.000  C
  C35      1.0000 0.96880  0.22270  0.32120  Biso   1.000  C
  C36      1.0000 0.03120  0.72270  0.17880  Biso   1.000  C
  H17      1.0000 0.01080  0.79150  0.73490  Biso   1.000  H
  H18      1.0000 0.98920  0.29150  0.76510  Biso   1.000  H
  H19      1.0000 0.98920  0.20850  0.26510  Biso   1.000  H
  H20      1.0000 0.01080  0.70850  0.23490  Biso   1.000  H
  C37      1.0000 0.90820  0.76390  0.61580  Biso   1.000  C
  C38      1.0000 0.09180  0.26390  0.88420  Biso   1.000  C
  C39      1.0000 0.09180  0.23610  0.38420  Biso   1.000  C
  C40      1.0000 0.90820  0.73610  0.11580  Biso   1.000  C
  H21      1.0000 0.80700  0.76890  0.63010  Biso   1.000  H
  H22      1.0000 0.19300  0.26890  0.86990  Biso   1.000  H
  H23      1.0000 0.19300  0.23110  0.36990  Biso   1.000  H
  H24      1.0000 0.80700  0.73110  0.13010  Biso   1.000  H
  C41      1.0000 0.93500  0.74320  0.53240  Biso   1.000  C
  C42      1.0000 0.06500  0.24320  0.96760  Biso   1.000  C
  C43      1.0000 0.06500  0.25680  0.46760  Biso   1.000  C
  C44      1.0000 0.93500  0.75680  0.03240  Biso   1.000  C
  C45      1.0000 0.08940  0.73630  0.51410  Biso   1.000  C
  C46      1.0000 0.91060  0.23630  0.98590  Biso   1.000  C
  C47      1.0000 0.91060  0.26370  0.48590  Biso   1.000  C
  C48      1.0000 0.08940  0.76370  0.01410  Biso   1.000  C
  H25      1.0000 0.11320  0.72260  0.45840  Biso   1.000  H
  H26      1.0000 0.88680  0.22260  0.04160  Biso   1.000  H
  H27      1.0000 0.88680  0.27740  0.54160  Biso   1.000  H
  H28      1.0000 0.11320  0.77740  0.95840  Biso   1.000  H
  C49      1.0000 0.20520  0.75030  0.58100  Biso   1.000  C
  C50      1.0000 0.79480  0.25030  0.91900  Biso   1.000  C
  C51      1.0000 0.79480  0.24970  0.41900  Biso   1.000  C
  C52      1.0000 0.20520  0.74970  0.08100  Biso   1.000  C
  H29      1.0000 0.30760  0.74540  0.56900  Biso   1.000  H
  H30      1.0000 0.69240  0.24540  0.93100  Biso   1.000  H
  H31      1.0000 0.69240  0.25460  0.43100  Biso   1.000  H
  H32      1.0000 0.30760  0.75460  0.06900  Biso   1.000  H
  C53      1.0000 0.80300  0.72960  0.46540  Biso   1.000  C
  C54      1.0000 0.19700  0.22960  0.03460  Biso   1.000  C
  C55      1.0000 0.19700  0.27040  0.53460  Biso   1.000  C
  C56      1.0000 0.80300  0.77040  0.96540  Biso   1.000  C
  C57      1.0000 0.67120  0.69350  0.48570  Biso   1.000  C
  C58      1.0000 0.32880  0.19350  0.01430  Biso   1.000  C
  C59      1.0000 0.32880  0.30650  0.51430  Biso   1.000  C
  C60      1.0000 0.67120  0.80650  0.98570  Biso   1.000  C
  H33      1.0000 0.66600  0.67420  0.54170  Biso   1.000  H
  H34      1.0000 0.33400  0.17420  0.95830  Biso   1.000  H
  H35      1.0000 0.33400  0.32580  0.45830  Biso   1.000  H
  H36      1.0000 0.66600  0.82580  0.04170  Biso   1.000  H
  C61      1.0000 0.54570  0.68570  0.42260  Biso   1.000  C
  C62      1.0000 0.45430  0.18570  0.07740  Biso   1.000  C
  C63      1.0000 0.45430  0.31430  0.57740  Biso   1.000  C
  C64      1.0000 0.54570  0.81430  0.92260  Biso   1.000  C
  H37      1.0000 0.45680  0.66180  0.43790  Biso   1.000  H
  H38      1.0000 0.54320  0.16180  0.06210  Biso   1.000  H
  H39      1.0000 0.54320  0.33820  0.56210  Biso   1.000  H
  H40      1.0000 0.45680  0.83820  0.93790  Biso   1.000  H
  C65      1.0000 0.67550  0.74530  0.32020  Biso   1.000  C
  C66      1.0000 0.32450  0.24530  0.17980  Biso   1.000  C
  C67      1.0000 0.32450  0.25470  0.67980  Biso   1.000  C
  C68      1.0000 0.67550  0.75470  0.82020  Biso   1.000  C
  H41      1.0000 0.67710  0.76340  0.26330  Biso   1.000  H
  H42      1.0000 0.32290  0.26340  0.23670  Biso   1.000  H
  H43      1.0000 0.32290  0.23660  0.73670  Biso   1.000  H
  H44      1.0000 0.67710  0.73660  0.76330  Biso   1.000  H
  C69      1.0000 0.80490  0.75510  0.37870  Biso   1.000  C
  C70      1.0000 0.19510  0.25510  0.12130  Biso   1.000  C
  C71      1.0000 0.19510  0.24490  0.62130  Biso   1.000  C
  C72      1.0000 0.80490  0.74490  0.87870  Biso   1.000  C
  H45      1.0000 0.89290  0.77830  0.36100  Biso   1.000  H
  H46      1.0000 0.10710  0.27830  0.13900  Biso   1.000  H
  H47      1.0000 0.10710  0.22170  0.63900  Biso   1.000  H
  H48      1.0000 0.89290  0.72170  0.86100  Biso   1.000  H
  C73      1.0000 0.18200  0.93800  0.82060  Biso   1.000  C
  C74      1.0000 0.81800  0.43800  0.67940  Biso   1.000  C
  C75      1.0000 0.81800  0.06200  0.17940  Biso   1.000  C
  C76      1.0000 0.18200  0.56200  0.32060  Biso   1.000  C
  H49      1.0000 0.26160  0.95730  0.79100  Biso   1.000  H
  H50      1.0000 0.73840  0.45730  0.70900  Biso   1.000  H
  H51      1.0000 0.73840  0.04270  0.20900  Biso   1.000  H
  H52      1.0000 0.26160  0.54270  0.29100  Biso   1.000  H
  C77      1.0000 0.07250  0.06520  0.80920  Biso   1.000  C
  C78      1.0000 0.92750  0.56520  0.69080  Biso   1.000  C
  C79      1.0000 0.92750  0.93480  0.19080  Biso   1.000  C
  C80      1.0000 0.07250  0.43480  0.30920  Biso   1.000  C
  H53      1.0000 0.17480  0.08520  0.80620  Biso   1.000  H
  H54      1.0000 0.82520  0.58520  0.69380  Biso   1.000  H
  H55      1.0000 0.82520  0.91480  0.19380  Biso   1.000  H
  H56      1.0000 0.17480  0.41480  0.30620  Biso   1.000  H
  H57      1.0000 0.02280  0.09270  0.85260  Biso   1.000  H
  H58      1.0000 0.97720  0.59270  0.64740  Biso   1.000  H
  H59      1.0000 0.97720  0.90730  0.14740  Biso   1.000  H
  H60      1.0000 0.02280  0.40730  0.35260  Biso   1.000  H
  H61      1.0000 0.01320  0.07050  0.75320  Biso   1.000  H
  H62      1.0000 0.98680  0.57050  0.74680  Biso   1.000  H
  H63      1.0000 0.98680  0.92950  0.24680  Biso   1.000  H
  H64      1.0000 0.01320  0.42950  0.25320  Biso   1.000  H
  C81      1.0000 0.93700  0.95580  0.82100  Biso   1.000  C
  C82      1.0000 0.06300  0.45580  0.67900  Biso   1.000  C
  C83      1.0000 0.06300  0.04420  0.17900  Biso   1.000  C
  C84      1.0000 0.93700  0.54420  0.32100  Biso   1.000  C
  H65      1.0000 0.89580  0.96190  0.76100  Biso   1.000  H
  H66      1.0000 0.10420  0.46190  0.73900  Biso   1.000  H
  H67      1.0000 0.10420  0.03810  0.23900  Biso   1.000  H
  H68      1.0000 0.89580  0.53810  0.26100  Biso   1.000  H
  H69      1.0000 0.87170  0.98150  0.85830  Biso   1.000  H
  H70      1.0000 0.12830  0.48150  0.64170  Biso   1.000  H
  H71      1.0000 0.12830  0.01850  0.14170  Biso   1.000  H
  H72      1.0000 0.87170  0.51850  0.35830  Biso   1.000  H
  H73      1.0000 0.94210  0.90270  0.83560  Biso   1.000  H
  H74      1.0000 0.05790  0.40270  0.66440  Biso   1.000  H
  H75      1.0000 0.05790  0.09730  0.16440  Biso   1.000  H
  H76      1.0000 0.94210  0.59730  0.33560  Biso   1.000  H
  C85      1.0000 0.37650  0.54410  0.57000  Biso   1.000  C
  C86      1.0000 0.62350  0.04410  0.93000  Biso   1.000  C
  C87      1.0000 0.62350  0.45590  0.43000  Biso   1.000  C
  C88      1.0000 0.37650  0.95590  0.07000  Biso   1.000  C
  H77      1.0000 0.30130  0.58300  0.57740  Biso   1.000  H
  H78      1.0000 0.69870  0.08300  0.92260  Biso   1.000  H
  H79      1.0000 0.69870  0.41700  0.42260  Biso   1.000  H
  H80      1.0000 0.30130  0.91700  0.07740  Biso   1.000  H
  H81      1.0000 0.34640  0.49770  0.59680  Biso   1.000  H
  H82      1.0000 0.65360  0.99770  0.90320  Biso   1.000  H
  H83      1.0000 0.65360  0.50230  0.40320  Biso   1.000  H
  H84      1.0000 0.34640  0.00230  0.09680  Biso   1.000  H
  H85      1.0000 0.38240  0.53560  0.50860  Biso   1.000  H
  H86      1.0000 0.61760  0.03560  0.99140  Biso   1.000  H
  H87      1.0000 0.61760  0.46440  0.49140  Biso   1.000  H
  H88      1.0000 0.38240  0.96440  0.00860  Biso   1.000  H
  C89      1.0000 0.07200  0.98200  0.93650  Biso   1.000  C
  C90      1.0000 0.92800  0.48200  0.56350  Biso   1.000  C
  C91      1.0000 0.92800  0.01800  0.06350  Biso   1.000  C
  C92      1.0000 0.07200  0.51800  0.43650  Biso   1.000  C
