data_image0
_cell_length_a       15.91
_cell_length_b       19.772
_cell_length_c       20.594
_cell_angle_alpha    78.283
_cell_angle_beta     73.745
_cell_angle_gamma    71.742

_symmetry_space_group_name_H-M    "P 1"
_symmetry_int_tables_number       1

loop_
  _symmetry_equiv_pos_as_xyz
  'x, y, z'

loop_
  _atom_site_label
  _atom_site_occupancy
  _atom_site_fract_x
  _atom_site_fract_y
  _atom_site_fract_z
  _atom_site_thermal_displace_type
  _atom_site_B_iso_or_equiv
  _atom_site_type_symbol
  Pt1      1.0000 0.25037  0.50447  0.74865  Biso   1.000  Pt
  Pt2      1.0000 0.74963  0.49553  0.25135  Biso   1.000  Pt
  Pt3      1.0000 0.25096  0.35545  0.76055  Biso   1.000  Pt
  Pt4      1.0000 0.74904  0.64455  0.23945  Biso   1.000  Pt
  Pt5      1.0000 0.25291  0.20681  0.77457  Biso   1.000  Pt
  Pt6      1.0000 0.74709  0.79319  0.22543  Biso   1.000  Pt
  Pt7      1.0000 0.25597  0.06276  0.76498  Biso   1.000  Pt
  Pt8      1.0000 0.74403  0.93724  0.23502  Biso   1.000  Pt
  Pt9      1.0000 0.24653  0.93123  0.74602  Biso   1.000  Pt
  Pt10     1.0000 0.75347  0.06877  0.25398  Biso   1.000  Pt
  Pt11     1.0000 0.23999  0.79552  0.73409  Biso   1.000  Pt
  Pt12     1.0000 0.76001  0.20448  0.26591  Biso   1.000  Pt
  Pt13     1.0000 0.24743  0.65141  0.73808  Biso   1.000  Pt
  Pt14     1.0000 0.75257  0.34859  0.26192  Biso   1.000  Pt
  Cu1      1.0000 0.20915  0.04429  0.05707  Biso   1.000  Cu
  Cu2      1.0000 0.79085  0.95571  0.94293  Biso   1.000  Cu
  Cu3      1.0000 0.22995  0.65112  0.02631  Biso   1.000  Cu
  Cu4      1.0000 0.77005  0.34888  0.97369  Biso   1.000  Cu
  Cu5      1.0000 0.20898  0.34538  0.04631  Biso   1.000  Cu
  Cu6      1.0000 0.79102  0.65462  0.95369  Biso   1.000  Cu
  Cu7      1.0000 0.26160  0.33911  0.47658  Biso   1.000  Cu
  Cu8      1.0000 0.73840  0.66089  0.52342  Biso   1.000  Cu
  Cu9      1.0000 0.28692  0.66715  0.45377  Biso   1.000  Cu
  Cu10     1.0000 0.71308  0.33285  0.54623  Biso   1.000  Cu
  Cu11     1.0000 0.31094  0.95132  0.44400  Biso   1.000  Cu
  Cu12     1.0000 0.68906  0.04868  0.55600  Biso   1.000  Cu
  O1       1.0000 0.20770  0.49930  0.84980  Biso   1.000  O
  O2       1.0000 0.79230  0.50070  0.15020  Biso   1.000  O
  O3       1.0000 0.11700  0.53590  0.75340  Biso   1.000  O
  O4       1.0000 0.88300  0.46410  0.24660  Biso   1.000  O
  O5       1.0000 0.38440  0.47150  0.74430  Biso   1.000  O
  O6       1.0000 0.61560  0.52850  0.25570  Biso   1.000  O
  O7       1.0000 0.29260  0.50970  0.64710  Biso   1.000  O
  O8       1.0000 0.70740  0.49030  0.35290  Biso   1.000  O
  O9       1.0000 0.08030  0.51510  0.93110  Biso   1.000  O
  O10      1.0000 0.91970  0.48490  0.06890  Biso   1.000  O
  O11      1.0000 0.98620  0.55330  0.82990  Biso   1.000  O
  O12      1.0000 0.01380  0.44670  0.17010  Biso   1.000  O
  O13      1.0000 0.51580  0.44610  0.66750  Biso   1.000  O
  O14      1.0000 0.48420  0.55390  0.33250  Biso   1.000  O
  O15      1.0000 0.41910  0.48980  0.56580  Biso   1.000  O
  O16      1.0000 0.58090  0.51020  0.43420  Biso   1.000  O
  O17      1.0000 0.38450  0.32690  0.71580  Biso   1.000  O
  O18      1.0000 0.61550  0.67310  0.28420  Biso   1.000  O
  O19      1.0000 0.29810  0.33740  0.84400  Biso   1.000  O
  O20      1.0000 0.70190  0.66260  0.15600  Biso   1.000  O
  O21      1.0000 0.20270  0.37200  0.67660  Biso   1.000  O
  O22      1.0000 0.79730  0.62800  0.32340  Biso   1.000  O
  O23      1.0000 0.11880  0.38240  0.80610  Biso   1.000  O
  O24      1.0000 0.88120  0.61760  0.19390  Biso   1.000  O
  O25      1.0000 0.51780  0.28830  0.74270  Biso   1.000  O
  O26      1.0000 0.48220  0.71170  0.25730  Biso   1.000  O
  O27      1.0000 0.42690  0.30820  0.87730  Biso   1.000  O
  O28      1.0000 0.57310  0.69180  0.12270  Biso   1.000  O
  O29      1.0000 0.07260  0.39610  0.64660  Biso   1.000  O
  O30      1.0000 0.92740  0.60390  0.35340  Biso   1.000  O
  O31      1.0000 0.98440  0.41400  0.77950  Biso   1.000  O
  O32      1.0000 0.01560  0.58600  0.22050  Biso   1.000  O
  O33      1.0000 0.19530  0.19640  0.87480  Biso   1.000  O
  O34      1.0000 0.80470  0.80360  0.12520  Biso   1.000  O
  O35      1.0000 0.12380  0.24250  0.76890  Biso   1.000  O
  O36      1.0000 0.87620  0.75750  0.23110  Biso   1.000  O
  O37      1.0000 0.38320  0.16840  0.78040  Biso   1.000  O
  O38      1.0000 0.61680  0.83160  0.21960  Biso   1.000  O
  O39      1.0000 0.30690  0.22020  0.67460  Biso   1.000  O
  O40      1.0000 0.69310  0.77980  0.32540  Biso   1.000  O
  O41      1.0000 0.06170  0.20150  0.94370  Biso   1.000  O
  O42      1.0000 0.93830  0.79850  0.05630  Biso   1.000  O
  O43      1.0000 0.98520  0.25230  0.83320  Biso   1.000  O
  O44      1.0000 0.01480  0.74770  0.16680  Biso   1.000  O
  O45      1.0000 0.51440  0.11950  0.71020  Biso   1.000  O
  O46      1.0000 0.48560  0.88050  0.28980  Biso   1.000  O
  O47      1.0000 0.44090  0.20550  0.60260  Biso   1.000  O
  O48      1.0000 0.55910  0.79450  0.39740  Biso   1.000  O
  O49      1.0000 0.35420  0.02060  0.81650  Biso   1.000  O
  O50      1.0000 0.64580  0.97940  0.18350  Biso   1.000  O
  O51      1.0000 0.17570  0.05590  0.85960  Biso   1.000  O
  O52      1.0000 0.82430  0.94410  0.14040  Biso   1.000  O
  O53      1.0000 0.33790  0.06820  0.67130  Biso   1.000  O
  O54      1.0000 0.66210  0.93180  0.32870  Biso   1.000  O
  O55      1.0000 0.15790  0.10910  0.71340  Biso   1.000  O
  O56      1.0000 0.84210  0.89090  0.28660  Biso   1.000  O
  O57      1.0000 0.37340  0.01060  0.92150  Biso   1.000  O
  O58      1.0000 0.62660  0.98940  0.07850  Biso   1.000  O
  O59      1.0000 0.18220  0.03710  0.96800  Biso   1.000  O
  O60      1.0000 0.81780  0.96290  0.03200  Biso   1.000  O
  O61      1.0000 0.33170  0.11810  0.56500  Biso   1.000  O
  O62      1.0000 0.66830  0.88190  0.43500  Biso   1.000  O
  O63      1.0000 0.14140  0.16660  0.61190  Biso   1.000  O
  O64      1.0000 0.85860  0.83340  0.38810  Biso   1.000  O
  O65      1.0000 0.38220  0.90440  0.71700  Biso   1.000  O
  O66      1.0000 0.61780  0.09560  0.28300  Biso   1.000  O
  O67      1.0000 0.26910  0.89170  0.83830  Biso   1.000  O
  O68      1.0000 0.73090  0.10830  0.16170  Biso   1.000  O
  O69      1.0000 0.21970  0.96800  0.65370  Biso   1.000  O
  O70      1.0000 0.78030  0.03200  0.34630  Biso   1.000  O
  O71      1.0000 0.11230  0.96240  0.77730  Biso   1.000  O
  O72      1.0000 0.88770  0.03760  0.22270  Biso   1.000  O
  O73      1.0000 0.50220  0.85870  0.76280  Biso   1.000  O
  O74      1.0000 0.49780  0.14130  0.23720  Biso   1.000  O
  O75      1.0000 0.38360  0.82890  0.88540  Biso   1.000  O
  O76      1.0000 0.61640  0.17110  0.11460  Biso   1.000  O
  O77      1.0000 0.10330  0.00840  0.60500  Biso   1.000  O
  O78      1.0000 0.89670  0.99160  0.39500  Biso   1.000  O
  O79      1.0000 0.99300  0.02630  0.73710  Biso   1.000  O
  O80      1.0000 0.00700  0.97370  0.26290  Biso   1.000  O
  O81      1.0000 0.17770  0.78430  0.83240  Biso   1.000  O
  O82      1.0000 0.82230  0.21570  0.16760  Biso   1.000  O
  O83      1.0000 0.11310  0.83380  0.72150  Biso   1.000  O
  O84      1.0000 0.88690  0.16620  0.27850  Biso   1.000  O
  O85      1.0000 0.04020  0.79400  0.89750  Biso   1.000  O
  O86      1.0000 0.95980  0.20600  0.10250  Biso   1.000  O
  O87      1.0000 0.97130  0.86460  0.78440  Biso   1.000  O
  O88      1.0000 0.02870  0.13540  0.21560  Biso   1.000  O
  O89      1.0000 0.36710  0.75840  0.74710  Biso   1.000  O
  O90      1.0000 0.63290  0.24160  0.25290  Biso   1.000  O
  O91      1.0000 0.30400  0.80590  0.63520  Biso   1.000  O
  O92      1.0000 0.69600  0.19410  0.36480  Biso   1.000  O
  O93      1.0000 0.50870  0.74350  0.68590  Biso   1.000  O
  O94      1.0000 0.49130  0.25650  0.31410  Biso   1.000  O
  O95      1.0000 0.44190  0.79600  0.57090  Biso   1.000  O
  O96      1.0000 0.55810  0.20400  0.42910  Biso   1.000  O
  O97      1.0000 0.38000  0.62560  0.69250  Biso   1.000  O
  O98      1.0000 0.62000  0.37440  0.30750  Biso   1.000  O
  O99      1.0000 0.29540  0.63200  0.82210  Biso   1.000  O
  O100     1.0000 0.70460  0.36800  0.17790  Biso   1.000  O
  O101     1.0000 0.20110  0.67090  0.65400  Biso   1.000  O
  O102     1.0000 0.79890  0.32910  0.34600  Biso   1.000  O
  O103     1.0000 0.11460  0.67730  0.78200  Biso   1.000  O
  O104     1.0000 0.88540  0.32270  0.21800  Biso   1.000  O
  O105     1.0000 0.51450  0.58270  0.71870  Biso   1.000  O
  O106     1.0000 0.48550  0.41730  0.28130  Biso   1.000  O
  O107     1.0000 0.42650  0.60390  0.85260  Biso   1.000  O
  O108     1.0000 0.57350  0.39610  0.14740  Biso   1.000  O
  O109     1.0000 0.07420  0.69420  0.61960  Biso   1.000  O
  O110     1.0000 0.92580  0.30580  0.38040  Biso   1.000  O
  O111     1.0000 0.98080  0.70960  0.75470  Biso   1.000  O
  O112     1.0000 0.01920  0.29040  0.24530  Biso   1.000  O
  O113     1.0000 0.13630  0.14380  0.04940  Biso   1.000  O
  O114     1.0000 0.86370  0.85620  0.95060  Biso   1.000  O
  H1       1.0000 0.09290  0.14700  0.03380  Biso   1.000  H
  H2       1.0000 0.90710  0.85300  0.96620  Biso   1.000  H
  O115     1.0000 0.09100  0.00740  0.11760  Biso   1.000  O
  O116     1.0000 0.90900  0.99260  0.88240  Biso   1.000  O
  H3       1.0000 0.07630  0.01990  0.15570  Biso   1.000  H
  H4       1.0000 0.92370  0.98010  0.84430  Biso   1.000  H
  O117     1.0000 0.15170  0.74350  0.05390  Biso   1.000  O
  O118     1.0000 0.84830  0.25650  0.94610  Biso   1.000  O
  H5       1.0000 0.16070  0.77560  0.02280  Biso   1.000  H
  H6       1.0000 0.83930  0.22440  0.97720  Biso   1.000  H
  O119     1.0000 0.17790  0.66560  0.94600  Biso   1.000  O
  O120     1.0000 0.82210  0.33440  0.05400  Biso   1.000  O
  H7       1.0000 0.13730  0.70330  0.94610  Biso   1.000  H
  H8       1.0000 0.86270  0.29670  0.05390  Biso   1.000  H
  O121     1.0000 0.35420  0.69630  0.95290  Biso   1.000  O
  O122     1.0000 0.64580  0.30370  0.04710  Biso   1.000  O
  H9       1.0000 0.39840  0.66250  0.94160  Biso   1.000  H
  H10      1.0000 0.60160  0.33750  0.05840  Biso   1.000  H
  O123     1.0000 0.11370  0.59150  0.08950  Biso   1.000  O
  O124     1.0000 0.88630  0.40850  0.91050  Biso   1.000  O
  H11      1.0000 0.06710  0.61020  0.07550  Biso   1.000  H
  H12      1.0000 0.93290  0.38980  0.92450  Biso   1.000  H
  O125     1.0000 0.12990  0.44680  0.04880  Biso   1.000  O
  O126     1.0000 0.87010  0.55320  0.95120  Biso   1.000  O
  H13      1.0000 0.07870  0.44670  0.07170  Biso   1.000  H
  H14      1.0000 0.92130  0.55330  0.92830  Biso   1.000  H
  O127     1.0000 0.17580  0.34390  0.96280  Biso   1.000  O
  O128     1.0000 0.82420  0.65610  0.03720  Biso   1.000  O
  H15      1.0000 0.21740  0.34960  0.93000  Biso   1.000  H
  H16      1.0000 0.78260  0.65040  0.07000  Biso   1.000  H
  O129     1.0000 0.10220  0.29550  0.10820  Biso   1.000  O
  O130     1.0000 0.89780  0.70450  0.89180  Biso   1.000  O
  H17      1.0000 0.06020  0.30610  0.08900  Biso   1.000  H
  H18      1.0000 0.93980  0.69390  0.91100  Biso   1.000  H
  O131     1.0000 0.31470  0.32610  0.55520  Biso   1.000  O
  O132     1.0000 0.68530  0.67390  0.44480  Biso   1.000  O
  H19      1.0000 0.36270  0.29420  0.55040  Biso   1.000  H
  H20      1.0000 0.63730  0.70580  0.44960  Biso   1.000  H
  O133     1.0000 0.31820  0.23460  0.46600  Biso   1.000  O
  O134     1.0000 0.68180  0.76540  0.53400  Biso   1.000  O
  H21      1.0000 0.31040  0.21060  0.50350  Biso   1.000  H
  H22      1.0000 0.68960  0.78940  0.49650  Biso   1.000  H
  O135     1.0000 0.12950  0.30620  0.54800  Biso   1.000  O
  O136     1.0000 0.87050  0.69380  0.45200  Biso   1.000  O
  H23      1.0000 0.08540  0.34160  0.55020  Biso   1.000  H
  H24      1.0000 0.91460  0.65840  0.44980  Biso   1.000  H
  O137     1.0000 0.40230  0.35450  0.40850  Biso   1.000  O
  O138     1.0000 0.59770  0.64550  0.59150  Biso   1.000  O
  H25      1.0000 0.44260  0.31730  0.41320  Biso   1.000  H
  H26      1.0000 0.55740  0.68270  0.58680  Biso   1.000  H
  O139     1.0000 0.32300  0.66870  0.53570  Biso   1.000  O
  O140     1.0000 0.67700  0.33130  0.46430  Biso   1.000  O
  H27      1.0000 0.37830  0.65180  0.53010  Biso   1.000  H
  H28      1.0000 0.62170  0.34820  0.46990  Biso   1.000  H
  O141     1.0000 0.36040  0.56550  0.44890  Biso   1.000  O
  O142     1.0000 0.63960  0.43450  0.55110  Biso   1.000  O
  H29      1.0000 0.37690  0.54900  0.48460  Biso   1.000  H
  H30      1.0000 0.62310  0.45100  0.51540  Biso   1.000  H
  O143     1.0000 0.40400  0.70620  0.39350  Biso   1.000  O
  O144     1.0000 0.59600  0.29380  0.60650  Biso   1.000  O
  H31      1.0000 0.44740  0.68750  0.41120  Biso   1.000  H
  H32      1.0000 0.55260  0.31250  0.58880  Biso   1.000  H
  O145     1.0000 0.33020  0.97240  0.52770  Biso   1.000  O
  O146     1.0000 0.66980  0.02760  0.47230  Biso   1.000  O
  H33      1.0000 0.38370  0.95470  0.52920  Biso   1.000  H
  H34      1.0000 0.61630  0.04530  0.47080  Biso   1.000  H
  O147     1.0000 0.38700  0.85250  0.45670  Biso   1.000  O
  O148     1.0000 0.61300  0.14750  0.54330  Biso   1.000  O
  H35      1.0000 0.42830  0.85180  0.47360  Biso   1.000  H
  H36      1.0000 0.57170  0.14820  0.52640  Biso   1.000  H
  O149     1.0000 0.43330  0.99740  0.37970  Biso   1.000  O
  O150     1.0000 0.56670  0.00260  0.62030  Biso   1.000  O
  H37      1.0000 0.46530  0.97100  0.35100  Biso   1.000  H
  H38      1.0000 0.53470  0.02900  0.64900  Biso   1.000  H
  N1       1.0000 0.26290  0.05950  0.12800  Biso   1.000  N
  N2       1.0000 0.73710  0.94050  0.87200  Biso   1.000  N
  N3       1.0000 0.29410  0.94850  0.06760  Biso   1.000  N
  N4       1.0000 0.70590  0.05150  0.93240  Biso   1.000  N
  N5       1.0000 0.29600  0.63140  0.09880  Biso   1.000  N
  N6       1.0000 0.70400  0.36860  0.90120  Biso   1.000  N
  N7       1.0000 0.30580  0.55220  0.01030  Biso   1.000  N
  N8       1.0000 0.69420  0.44780  0.98970  Biso   1.000  N
  N9       1.0000 0.26710  0.35080  0.11740  Biso   1.000  N
  N10      1.0000 0.73290  0.64920  0.88260  Biso   1.000  N
  N11      1.0000 0.30830  0.25510  0.03450  Biso   1.000  N
  N12      1.0000 0.69170  0.74490  0.96550  Biso   1.000  N
  N13      1.0000 0.19970  0.44240  0.48790  Biso   1.000  N
  N14      1.0000 0.80030  0.55760  0.51210  Biso   1.000  N
  N15      1.0000 0.19650  0.36240  0.40310  Biso   1.000  N
  N16      1.0000 0.80350  0.63760  0.59690  Biso   1.000  N
  N17      1.0000 0.19110  0.76120  0.46730  Biso   1.000  N
  N18      1.0000 0.80890  0.23880  0.53270  Biso   1.000  N
  N19      1.0000 0.22160  0.66720  0.38570  Biso   1.000  N
  N20      1.0000 0.77840  0.33280  0.61430  Biso   1.000  N
  N21      1.0000 0.21820  0.04470  0.43130  Biso   1.000  N
  N22      1.0000 0.78180  0.95530  0.56870  Biso   1.000  N
  N23      1.0000 0.27000  0.93140  0.36940  Biso   1.000  N
  N24      1.0000 0.73000  0.06860  0.63060  Biso   1.000  N
  C1       1.0000 0.12210  0.51540  0.87090  Biso   1.000  C
  C2       1.0000 0.87790  0.48460  0.12910  Biso   1.000  C
  C3       1.0000 0.06690  0.53790  0.81490  Biso   1.000  C
  C4       1.0000 0.93310  0.46210  0.18510  Biso   1.000  C
  C5       1.0000 0.43490  0.46700  0.68180  Biso   1.000  C
  C6       1.0000 0.56510  0.53300  0.31820  Biso   1.000  C
  C7       1.0000 0.37980  0.49020  0.62520  Biso   1.000  C
  C8       1.0000 0.62020  0.50980  0.37480  Biso   1.000  C
  C9       1.0000 0.43610  0.30930  0.75840  Biso   1.000  C
  C10      1.0000 0.56390  0.69070  0.24160  Biso   1.000  C
  C11      1.0000 0.38590  0.31880  0.83370  Biso   1.000  C
  C12      1.0000 0.61410  0.68120  0.16630  Biso   1.000  C
  C13      1.0000 0.11600  0.38700  0.68980  Biso   1.000  C
  C14      1.0000 0.88400  0.61300  0.31020  Biso   1.000  C
  C15      1.0000 0.06630  0.39730  0.76490  Biso   1.000  C
  C16      1.0000 0.93370  0.60270  0.23510  Biso   1.000  C
  C17      1.0000 0.11080  0.20930  0.88740  Biso   1.000  C
  C18      1.0000 0.88920  0.79070  0.11260  Biso   1.000  C
  C19      1.0000 0.06550  0.23730  0.82580  Biso   1.000  C
  C20      1.0000 0.93450  0.76270  0.17420  Biso   1.000  C
  C21      1.0000 0.43730  0.15540  0.72020  Biso   1.000  C
  C22      1.0000 0.56270  0.84460  0.27980  Biso   1.000  C
  C23      1.0000 0.39330  0.19690  0.65970  Biso   1.000  C
  C24      1.0000 0.60670  0.80310  0.34030  Biso   1.000  C
  C25      1.0000 0.32530  0.02340  0.88110  Biso   1.000  C
  C26      1.0000 0.67470  0.97660  0.11890  Biso   1.000  C
  C27      1.0000 0.22070  0.04130  0.90590  Biso   1.000  C
  C28      1.0000 0.77930  0.95870  0.09410  Biso   1.000  C
  C29      1.0000 0.29460  0.10500  0.62620  Biso   1.000  C
  C30      1.0000 0.70540  0.89500  0.37380  Biso   1.000  C
  C31      1.0000 0.18970  0.13030  0.65050  Biso   1.000  C
  C32      1.0000 0.81030  0.86970  0.34950  Biso   1.000  C
  C33      1.0000 0.42120  0.87570  0.76610  Biso   1.000  C
  C34      1.0000 0.57880  0.12430  0.23390  Biso   1.000  C
  C35      1.0000 0.35430  0.86390  0.83720  Biso   1.000  C
  C36      1.0000 0.64570  0.13610  0.16280  Biso   1.000  C
  C37      1.0000 0.13310  0.99140  0.65590  Biso   1.000  C
  C38      1.0000 0.86690  0.00860  0.34410  Biso   1.000  C
  C39      1.0000 0.07230  0.99530  0.73000  Biso   1.000  C
  C40      1.0000 0.92770  0.00470  0.27000  Biso   1.000  C
  C41      1.0000 0.09040  0.80250  0.84260  Biso   1.000  C
  C42      1.0000 0.90960  0.19750  0.15740  Biso   1.000  C
  C43      1.0000 0.05180  0.83780  0.77820  Biso   1.000  C
  C44      1.0000 0.94820  0.16220  0.22180  Biso   1.000  C
  C45      1.0000 0.42950  0.76100  0.68990  Biso   1.000  C
  C46      1.0000 0.57050  0.23900  0.31010  Biso   1.000  C
  C47      1.0000 0.38820  0.79000  0.62550  Biso   1.000  C
  C48      1.0000 0.61180  0.21000  0.37450  Biso   1.000  C
  C49      1.0000 0.43220  0.60500  0.73470  Biso   1.000  C
  C50      1.0000 0.56780  0.39500  0.26530  Biso   1.000  C
  C51      1.0000 0.38290  0.61340  0.80930  Biso   1.000  C
  C52      1.0000 0.61710  0.38660  0.19070  Biso   1.000  C
  C53      1.0000 0.11430  0.68610  0.66390  Biso   1.000  C
  C54      1.0000 0.88570  0.31390  0.33610  Biso   1.000  C
  C55      1.0000 0.06350  0.69240  0.73910  Biso   1.000  C
  C56      1.0000 0.93650  0.30760  0.26090  Biso   1.000  C
  C57      1.0000 0.24060  0.11840  0.15910  Biso   1.000  C
  C58      1.0000 0.75940  0.88160  0.84090  Biso   1.000  C
  H39      1.0000 0.19320  0.15730  0.14870  Biso   1.000  H
  H40      1.0000 0.80680  0.84270  0.85130  Biso   1.000  H
  C59      1.0000 0.28450  0.12290  0.20470  Biso   1.000  C
  C60      1.0000 0.71550  0.87710  0.79530  Biso   1.000  C
  H41      1.0000 0.26540  0.16390  0.22650  Biso   1.000  H
  H42      1.0000 0.73460  0.83610  0.77350  Biso   1.000  H
  C61      1.0000 0.35800  0.06720  0.21960  Biso   1.000  C
  C62      1.0000 0.64200  0.93280  0.78040  Biso   1.000  C
  H43      1.0000 0.39040  0.07030  0.24950  Biso   1.000  H
  H44      1.0000 0.60960  0.92970  0.75050  Biso   1.000  H
  C63      1.0000 0.38020  0.00690  0.18750  Biso   1.000  C
  C64      1.0000 0.61980  0.99310  0.81250  Biso   1.000  C
  H45      1.0000 0.42900  0.96830  0.19590  Biso   1.000  H
  H46      1.0000 0.57100  0.03170  0.80410  Biso   1.000  H
  C65      1.0000 0.33210  0.00290  0.14380  Biso   1.000  C
  C66      1.0000 0.66790  0.99710  0.85620  Biso   1.000  C
  C67      1.0000 0.34660  0.93910  0.11050  Biso   1.000  C
  C68      1.0000 0.65340  0.06090  0.88950  Biso   1.000  C
  C69      1.0000 0.40290  0.87230  0.12740  Biso   1.000  C
  C70      1.0000 0.59710  0.12770  0.87260  Biso   1.000  C
  H47      1.0000 0.43820  0.86640  0.15830  Biso   1.000  H
  H48      1.0000 0.56180  0.13360  0.84170  Biso   1.000  H
  C71      1.0000 0.40620  0.81490  0.09790  Biso   1.000  C
  C72      1.0000 0.59380  0.18510  0.90210  Biso   1.000  C
  H49      1.0000 0.44370  0.76960  0.10860  Biso   1.000  H
  H50      1.0000 0.55630  0.23040  0.89140  Biso   1.000  H
  C73      1.0000 0.35330  0.82530  0.05240  Biso   1.000  C
  C74      1.0000 0.64670  0.17470  0.94760  Biso   1.000  C
  H51      1.0000 0.35480  0.78720  0.03160  Biso   1.000  H
  H52      1.0000 0.64520  0.21280  0.96840  Biso   1.000  H
  C75      1.0000 0.29800  0.89260  0.03790  Biso   1.000  C
  C76      1.0000 0.70200  0.10740  0.96210  Biso   1.000  C
  H53      1.0000 0.26240  0.89970  0.00690  Biso   1.000  H
  H54      1.0000 0.73760  0.10030  0.99310  Biso   1.000  H
  C77      1.0000 0.28940  0.67730  0.14170  Biso   1.000  C
  C78      1.0000 0.71060  0.32270  0.85830  Biso   1.000  C
  H55      1.0000 0.24470  0.72090  0.14180  Biso   1.000  H
  H56      1.0000 0.75530  0.27910  0.85820  Biso   1.000  H
  C79      1.0000 0.34670  0.66150  0.18510  Biso   1.000  C
  C80      1.0000 0.65330  0.33850  0.81490  Biso   1.000  C
  H57      1.0000 0.34330  0.69560  0.21170  Biso   1.000  H
  H58      1.0000 0.65670  0.30440  0.78830  Biso   1.000  H
  C81      1.0000 0.40830  0.59610  0.18910  Biso   1.000  C
  C82      1.0000 0.59170  0.40390  0.81090  Biso   1.000  C
  H59      1.0000 0.44550  0.58410  0.21980  Biso   1.000  H
  H60      1.0000 0.55450  0.41590  0.78020  Biso   1.000  H
  C83      1.0000 0.41470  0.54740  0.14640  Biso   1.000  C
  C84      1.0000 0.58530  0.45260  0.85360  Biso   1.000  C
  H61      1.0000 0.45550  0.50200  0.14870  Biso   1.000  H
  H62      1.0000 0.54450  0.49800  0.85130  Biso   1.000  H
  C85      1.0000 0.36010  0.56730  0.10120  Biso   1.000  C
  C86      1.0000 0.63990  0.43270  0.89880  Biso   1.000  C
  C87      1.0000 0.36380  0.52200  0.05060  Biso   1.000  C
  C88      1.0000 0.63620  0.47800  0.94940  Biso   1.000  C
  C89      1.0000 0.42410  0.45470  0.04340  Biso   1.000  C
  C90      1.0000 0.57590  0.54530  0.95660  Biso   1.000  C
  H63      1.0000 0.46520  0.43460  0.07110  Biso   1.000  H
  H64      1.0000 0.53480  0.56540  0.92890  Biso   1.000  H
  C91      1.0000 0.42120  0.41820  0.99390  Biso   1.000  C
  C92      1.0000 0.57880  0.58180  0.00610  Biso   1.000  C
  H65      1.0000 0.46170  0.37320  0.98720  Biso   1.000  H
  H66      1.0000 0.53830  0.62680  0.01280  Biso   1.000  H
  C93      1.0000 0.35990  0.44740  0.95510  Biso   1.000  C
  C94      1.0000 0.64010  0.55260  0.04490  Biso   1.000  C
  H67      1.0000 0.35750  0.42230  0.92240  Biso   1.000  H
  H68      1.0000 0.64250  0.57770  0.07760  Biso   1.000  H
  C95      1.0000 0.30120  0.51420  0.96400  Biso   1.000  C
  C96      1.0000 0.69880  0.48580  0.03600  Biso   1.000  C
  H69      1.0000 0.25780  0.53360  0.93810  Biso   1.000  H
  H70      1.0000 0.74220  0.46640  0.06190  Biso   1.000  H
  C97      1.0000 0.24290  0.40260  0.15750  Biso   1.000  C
  C98      1.0000 0.75710  0.59740  0.84250  Biso   1.000  C
  H71      1.0000 0.18860  0.43820  0.15650  Biso   1.000  H
  H72      1.0000 0.81140  0.56180  0.84350  Biso   1.000  H
  C99      1.0000 0.29370  0.40600  0.20000  Biso   1.000  C
  C100     1.0000 0.70630  0.59400  0.80000  Biso   1.000  C
  H73      1.0000 0.27540  0.44360  0.22610  Biso   1.000  H
  H74      1.0000 0.72460  0.55640  0.77390  Biso   1.000  H
  C101     1.0000 0.37330  0.35170  0.20310  Biso   1.000  C
  C102     1.0000 0.62670  0.64830  0.79690  Biso   1.000  C
  H75      1.0000 0.40990  0.35270  0.23090  Biso   1.000  H
  H76      1.0000 0.59010  0.64730  0.76910  Biso   1.000  H
  C103     1.0000 0.39760  0.29640  0.16430  Biso   1.000  C
  C104     1.0000 0.60240  0.70360  0.83570  Biso   1.000  C
  H77      1.0000 0.44930  0.25860  0.16750  Biso   1.000  H
  H78      1.0000 0.55070  0.74140  0.83250  Biso   1.000  H
  C105     1.0000 0.34580  0.29680  0.12130  Biso   1.000  C
  C106     1.0000 0.65420  0.70320  0.87870  Biso   1.000  C
  C107     1.0000 0.36500  0.24140  0.07650  Biso   1.000  C
  C108     1.0000 0.63500  0.75860  0.92350  Biso   1.000  C
  C109     1.0000 0.43400  0.17870  0.07830  Biso   1.000  C
  C110     1.0000 0.56600  0.82130  0.92170  Biso   1.000  C
  H79      1.0000 0.47230  0.16940  0.10780  Biso   1.000  H
  H80      1.0000 0.52770  0.83060  0.89220  Biso   1.000  H
  C111     1.0000 0.44490  0.12930  0.03470  Biso   1.000  C
  C112     1.0000 0.55510  0.87070  0.96530  Biso   1.000  C
  H81      1.0000 0.49170  0.08690  0.03370  Biso   1.000  H
  H82      1.0000 0.50830  0.91310  0.96630  Biso   1.000  H
  C113     1.0000 0.38500  0.14480  0.99330  Biso   1.000  C
  C114     1.0000 0.61500  0.85520  0.00670  Biso   1.000  C
  H83      1.0000 0.39070  0.11190  0.96470  Biso   1.000  H
  H84      1.0000 0.60930  0.88810  0.03530  Biso   1.000  H
  C115     1.0000 0.31810  0.20680  0.99360  Biso   1.000  C
  C116     1.0000 0.68190  0.79320  0.00640  Biso   1.000  C
  H85      1.0000 0.27850  0.21630  0.96510  Biso   1.000  H
  H86      1.0000 0.72150  0.78370  0.03490  Biso   1.000  H
  C117     1.0000 0.20830  0.47950  0.53240  Biso   1.000  C
  C118     1.0000 0.79170  0.52050  0.46760  Biso   1.000  C
  H87      1.0000 0.25330  0.45940  0.55680  Biso   1.000  H
  H88      1.0000 0.74670  0.54060  0.44320  Biso   1.000  H
  C119     1.0000 0.15140  0.54690  0.54230  Biso   1.000  C
  C120     1.0000 0.84860  0.45310  0.45770  Biso   1.000  C
  H89      1.0000 0.15690  0.57120  0.57440  Biso   1.000  H
  H90      1.0000 0.84310  0.42880  0.42560  Biso   1.000  H
  C121     1.0000 0.08630  0.57850  0.50540  Biso   1.000  C
  C122     1.0000 0.91370  0.42150  0.49460  Biso   1.000  C
  H91      1.0000 0.04710  0.62390  0.51230  Biso   1.000  H
  H92      1.0000 0.95290  0.37610  0.48770  Biso   1.000  H
  C123     1.0000 0.08070  0.54130  0.45790  Biso   1.000  C
  C124     1.0000 0.91930  0.45870  0.54210  Biso   1.000  C
  H93      1.0000 0.03840  0.56180  0.43120  Biso   1.000  H
  H94      1.0000 0.96160  0.43820  0.56880  Biso   1.000  H
  C125     1.0000 0.13810  0.47350  0.45000  Biso   1.000  C
  C126     1.0000 0.86190  0.52650  0.55000  Biso   1.000  C
  C127     1.0000 0.13780  0.42870  0.40040  Biso   1.000  C
  C128     1.0000 0.86220  0.57130  0.59960  Biso   1.000  C
  C129     1.0000 0.08230  0.45110  0.35570  Biso   1.000  C
  C130     1.0000 0.91770  0.54890  0.64430  Biso   1.000  C
  H95      1.0000 0.04510  0.49800  0.35320  Biso   1.000  H
  H96      1.0000 0.95490  0.50200  0.64680  Biso   1.000  H
  C131     1.0000 0.08090  0.40470  0.31390  Biso   1.000  C
  C132     1.0000 0.91910  0.59530  0.68610  Biso   1.000  C
  H97      1.0000 0.04190  0.41870  0.28450  Biso   1.000  H
  H98      1.0000 0.95810  0.58130  0.71550  Biso   1.000  H
  C133     1.0000 0.14070  0.33600  0.31830  Biso   1.000  C
  C134     1.0000 0.85930  0.66400  0.68170  Biso   1.000  C
  H99      1.0000 0.14220  0.30280  0.29150  Biso   1.000  H
  H100     1.0000 0.85780  0.69720  0.70850  Biso   1.000  H
  C135     1.0000 0.19660  0.31810  0.36180  Biso   1.000  C
  C136     1.0000 0.80340  0.68190  0.63820  Biso   1.000  C
  H101     1.0000 0.23710  0.27250  0.36310  Biso   1.000  H
  H102     1.0000 0.76290  0.72750  0.63690  Biso   1.000  H
  C137     1.0000 0.18600  0.80650  0.50830  Biso   1.000  C
  C138     1.0000 0.81400  0.19350  0.49170  Biso   1.000  C
  H103     1.0000 0.22640  0.79380  0.53660  Biso   1.000  H
  H104     1.0000 0.77360  0.20620  0.46340  Biso   1.000  H
  C139     1.0000 0.12220  0.87210  0.50990  Biso   1.000  C
  C140     1.0000 0.87780  0.12790  0.49010  Biso   1.000  C
  H105     1.0000 0.11890  0.90330  0.53940  Biso   1.000  H
  H106     1.0000 0.88110  0.09670  0.46060  Biso   1.000  H
  C141     1.0000 0.06380  0.89100  0.46760  Biso   1.000  C
  C142     1.0000 0.93620  0.10900  0.53240  Biso   1.000  C
  H107     1.0000 0.02030  0.93520  0.46810  Biso   1.000  H
  H108     1.0000 0.97970  0.06480  0.53190  Biso   1.000  H
  C143     1.0000 0.06950  0.84400  0.42420  Biso   1.000  C
  C144     1.0000 0.93050  0.15600  0.57580  Biso   1.000  C
  H109     1.0000 0.03090  0.85630  0.39460  Biso   1.000  H
  H110     1.0000 0.96910  0.14370  0.60540  Biso   1.000  H
  C145     1.0000 0.13320  0.77940  0.42590  Biso   1.000  C
  C146     1.0000 0.86680  0.22060  0.57410  Biso   1.000  C
  C147     1.0000 0.14740  0.72460  0.38220  Biso   1.000  C
  C148     1.0000 0.85260  0.27540  0.61780  Biso   1.000  C
  C149     1.0000 0.08940  0.72720  0.34310  Biso   1.000  C
  C150     1.0000 0.91060  0.27280  0.65690  Biso   1.000  C
  H111     1.0000 0.03850  0.76620  0.34170  Biso   1.000  H
  H112     1.0000 0.96150  0.23380  0.65830  Biso   1.000  H
  C151     1.0000 0.10720  0.67060  0.30520  Biso   1.000  C
  C152     1.0000 0.89280  0.32940  0.69480  Biso   1.000  C
  H113     1.0000 0.06810  0.67150  0.27880  Biso   1.000  H
  H114     1.0000 0.93190  0.32850  0.72120  Biso   1.000  H
  C153     1.0000 0.18430  0.61330  0.30780  Biso   1.000  C
  C154     1.0000 0.81570  0.38670  0.69220  Biso   1.000  C
  H115     1.0000 0.19800  0.57560  0.28260  Biso   1.000  H
  H116     1.0000 0.80200  0.42440  0.71740  Biso   1.000  H
  C155     1.0000 0.24050  0.61340  0.34880  Biso   1.000  C
  C156     1.0000 0.75950  0.38660  0.65120  Biso   1.000  C
  H117     1.0000 0.29240  0.57540  0.35060  Biso   1.000  H
  H118     1.0000 0.70760  0.42460  0.64940  Biso   1.000  H
  C157     1.0000 0.19690  0.09970  0.46650  Biso   1.000  C
  C158     1.0000 0.80310  0.90030  0.53350  Biso   1.000  C
  H119     1.0000 0.22470  0.09480  0.50210  Biso   1.000  H
  H120     1.0000 0.77530  0.90520  0.49790  Biso   1.000  H
  C159     1.0000 0.13500  0.16350  0.45170  Biso   1.000  C
  C160     1.0000 0.86500  0.83650  0.54830  Biso   1.000  C
  H121     1.0000 0.12110  0.20120  0.47700  Biso   1.000  H
  H122     1.0000 0.87890  0.79880  0.52300  Biso   1.000  H
  C161     1.0000 0.09410  0.17090  0.39930  Biso   1.000  C
  C162     1.0000 0.90590  0.82910  0.60070  Biso   1.000  C
  H123     1.0000 0.05230  0.21380  0.38840  Biso   1.000  H
  H124     1.0000 0.94770  0.78620  0.61160  Biso   1.000  H
  C163     1.0000 0.11610  0.11350  0.36270  Biso   1.000  C
  C164     1.0000 0.88390  0.88650  0.63730  Biso   1.000  C
  H125     1.0000 0.08940  0.11740  0.32690  Biso   1.000  H
  H126     1.0000 0.91060  0.88260  0.67310  Biso   1.000  H
  C165     1.0000 0.17810  0.05050  0.38040  Biso   1.000  C
  C166     1.0000 0.82190  0.94950  0.61960  Biso   1.000  C
  C167     1.0000 0.20900  0.98500  0.34410  Biso   1.000  C
  C168     1.0000 0.79100  0.01500  0.65590  Biso   1.000  C
  C169     1.0000 0.17370  0.97910  0.29260  Biso   1.000  C
  C170     1.0000 0.82630  0.02090  0.70740  Biso   1.000  C
  H127     1.0000 0.12950  0.01730  0.27690  Biso   1.000  H
  H128     1.0000 0.87050  0.98270  0.72310  Biso   1.000  H
  C171     1.0000 0.20420  0.91600  0.26440  Biso   1.000  C
  C172     1.0000 0.79580  0.08400  0.73560  Biso   1.000  C
  H129     1.0000 0.18210  0.91040  0.22910  Biso   1.000  H
  H130     1.0000 0.81790  0.08960  0.77090  Biso   1.000  H
  C173     1.0000 0.26820  0.86220  0.29030  Biso   1.000  C
  C174     1.0000 0.73180  0.13780  0.70970  Biso   1.000  C
  H131     1.0000 0.29080  0.81900  0.27190  Biso   1.000  H
  H132     1.0000 0.70920  0.18100  0.72810  Biso   1.000  H
  C175     1.0000 0.29980  0.86960  0.34190  Biso   1.000  C
  C176     1.0000 0.70020  0.13040  0.65810  Biso   1.000  C
  H133     1.0000 0.34290  0.83140  0.35880  Biso   1.000  H
  H134     1.0000 0.65710  0.16860  0.64120  Biso   1.000  H
  O151     1.0000 0.49990  0.63520  0.50120  Biso   1.000  O
  O152     1.0000 0.50010  0.36480  0.49880  Biso   1.000  O
  O153     1.0000 0.99390  0.04640  0.94160  Biso   1.000  O
  O154     1.0000 0.00610  0.95360  0.05840  Biso   1.000  O
  O155     1.0000 0.36400  0.15990  0.35790  Biso   1.000  O
  O156     1.0000 0.63600  0.84010  0.64210  Biso   1.000  O
  O157     1.0000 0.49220  0.07430  0.46100  Biso   1.000  O
  O158     1.0000 0.50780  0.92570  0.53900  Biso   1.000  O
  O159     1.0000 0.85320  0.13810  0.03630  Biso   1.000  O
  O160     1.0000 0.14680  0.86190  0.96370  Biso   1.000  O
  O161     1.0000 0.89240  0.16200  0.80770  Biso   1.000  O
  O162     1.0000 0.10760  0.83800  0.19230  Biso   1.000  O
  O163     1.0000 0.00960  0.34980  0.99470  Biso   1.000  O
  O164     1.0000 0.99040  0.65020  0.00530  Biso   1.000  O
