data_image0
_cell_length_a       15.7293
_cell_length_b       6.9881
_cell_length_c       17.1409
_cell_angle_alpha    90
_cell_angle_beta     90
_cell_angle_gamma    90

_symmetry_space_group_name_H-M    "P 1"
_symmetry_int_tables_number       1

loop_
  _symmetry_equiv_pos_as_xyz
  'x, y, z'

loop_
  _atom_site_label
  _atom_site_occupancy
  _atom_site_fract_x
  _atom_site_fract_y
  _atom_site_fract_z
  _atom_site_thermal_displace_type
  _atom_site_B_iso_or_equiv
  _atom_site_type_symbol
  Cu1      1.0000 0.65054  0.45996  0.27234  Biso   1.000  Cu
  Cu2      1.0000 0.84946  0.54004  0.77234  Biso   1.000  Cu
  Cu3      1.0000 0.15054  0.04004  0.72766  Biso   1.000  Cu
  Cu4      1.0000 0.34946  0.95996  0.22766  Biso   1.000  Cu
  Cu5      1.0000 0.34946  0.54004  0.72766  Biso   1.000  Cu
  Cu6      1.0000 0.15054  0.45996  0.22766  Biso   1.000  Cu
  Cu7      1.0000 0.84946  0.95996  0.27234  Biso   1.000  Cu
  Cu8      1.0000 0.65054  0.04004  0.77234  Biso   1.000  Cu
  O1       1.0000 0.66950  0.61345  0.17724  Biso   1.000  O
  O2       1.0000 0.83050  0.38655  0.67724  Biso   1.000  O
  O3       1.0000 0.16950  0.88655  0.82276  Biso   1.000  O
  O4       1.0000 0.33050  0.11345  0.32276  Biso   1.000  O
  O5       1.0000 0.33050  0.38655  0.82276  Biso   1.000  O
  O6       1.0000 0.16950  0.61345  0.32276  Biso   1.000  O
  O7       1.0000 0.83050  0.11345  0.17724  Biso   1.000  O
  O8       1.0000 0.66950  0.88655  0.67724  Biso   1.000  O
  O9       1.0000 0.75226  0.79310  0.25018  Biso   1.000  O
  O10      1.0000 0.74774  0.20690  0.75018  Biso   1.000  O
  O11      1.0000 0.25226  0.70690  0.74982  Biso   1.000  O
  O12      1.0000 0.24774  0.29310  0.24982  Biso   1.000  O
  O13      1.0000 0.24774  0.20690  0.74982  Biso   1.000  O
  O14      1.0000 0.25226  0.79310  0.24982  Biso   1.000  O
  O15      1.0000 0.74774  0.29310  0.25018  Biso   1.000  O
  O16      1.0000 0.75226  0.70690  0.75018  Biso   1.000  O
  O17      1.0000 0.60579  0.41880  0.57630  Biso   1.000  O
  O18      1.0000 0.89421  0.58120  0.07630  Biso   1.000  O
  O19      1.0000 0.10579  0.08120  0.42370  Biso   1.000  O
  O20      1.0000 0.39421  0.91880  0.92370  Biso   1.000  O
  O21      1.0000 0.39421  0.58120  0.42370  Biso   1.000  O
  O22      1.0000 0.10579  0.41880  0.92370  Biso   1.000  O
  O23      1.0000 0.89421  0.91880  0.57630  Biso   1.000  O
  O24      1.0000 0.60579  0.08120  0.07630  Biso   1.000  O
  O25      1.0000 0.56369  0.63290  0.31181  Biso   1.000  O
  O26      1.0000 0.93631  0.36710  0.81181  Biso   1.000  O
  O27      1.0000 0.06369  0.86710  0.68819  Biso   1.000  O
  O28      1.0000 0.43631  0.13290  0.18819  Biso   1.000  O
  O29      1.0000 0.43631  0.36710  0.68819  Biso   1.000  O
  O30      1.0000 0.06369  0.63290  0.18819  Biso   1.000  O
  O31      1.0000 0.93631  0.13290  0.31181  Biso   1.000  O
  O32      1.0000 0.56369  0.86710  0.81181  Biso   1.000  O
  O33      1.0000 0.44132  0.78070  0.29653  Biso   1.000  O
  O34      1.0000 0.05868  0.21930  0.79653  Biso   1.000  O
  O35      1.0000 0.94132  0.71930  0.70347  Biso   1.000  O
  O36      1.0000 0.55868  0.28070  0.20347  Biso   1.000  O
  O37      1.0000 0.55868  0.21930  0.70347  Biso   1.000  O
  O38      1.0000 0.94132  0.78070  0.20347  Biso   1.000  O
  O39      1.0000 0.05868  0.28070  0.29653  Biso   1.000  O
  O40      1.0000 0.44132  0.71930  0.79653  Biso   1.000  O
  N1       1.0000 0.63944  0.31550  0.37362  Biso   1.000  N
  N2       1.0000 0.86056  0.68450  0.87362  Biso   1.000  N
  N3       1.0000 0.13944  0.18450  0.62638  Biso   1.000  N
  N4       1.0000 0.36056  0.81550  0.12638  Biso   1.000  N
  N5       1.0000 0.36056  0.68450  0.62638  Biso   1.000  N
  N6       1.0000 0.13944  0.31550  0.12638  Biso   1.000  N
  N7       1.0000 0.86056  0.81550  0.37362  Biso   1.000  N
  N8       1.0000 0.63944  0.18450  0.87362  Biso   1.000  N
  C1       1.0000 0.51095  0.72340  0.27189  Biso   1.000  C
  C2       1.0000 0.98905  0.27660  0.77189  Biso   1.000  C
  C3       1.0000 0.01095  0.77660  0.72811  Biso   1.000  C
  C4       1.0000 0.48905  0.22340  0.22811  Biso   1.000  C
  C5       1.0000 0.48905  0.27660  0.72811  Biso   1.000  C
  C6       1.0000 0.01095  0.72340  0.22811  Biso   1.000  C
  C7       1.0000 0.98905  0.22340  0.27189  Biso   1.000  C
  C8       1.0000 0.51095  0.77660  0.77189  Biso   1.000  C
  C9       1.0000 0.72008  0.75120  0.18611  Biso   1.000  C
  C10      1.0000 0.77992  0.24880  0.68611  Biso   1.000  C
  C11      1.0000 0.22008  0.74880  0.81389  Biso   1.000  C
  C12      1.0000 0.27992  0.25120  0.31389  Biso   1.000  C
  C13      1.0000 0.27992  0.24880  0.81389  Biso   1.000  C
  C14      1.0000 0.22008  0.75120  0.31389  Biso   1.000  C
  C15      1.0000 0.77992  0.25120  0.18611  Biso   1.000  C
  C16      1.0000 0.72008  0.74880  0.68611  Biso   1.000  C
  C17      1.0000 0.62655  0.40530  0.44168  Biso   1.000  C
  C18      1.0000 0.87345  0.59470  0.94168  Biso   1.000  C
  C19      1.0000 0.12655  0.09470  0.55832  Biso   1.000  C
  C20      1.0000 0.37345  0.90530  0.05832  Biso   1.000  C
  C21      1.0000 0.37345  0.59470  0.55832  Biso   1.000  C
  C22      1.0000 0.12655  0.40530  0.05832  Biso   1.000  C
  C23      1.0000 0.87345  0.90530  0.44168  Biso   1.000  C
  C24      1.0000 0.62655  0.09470  0.94168  Biso   1.000  C
  C25      1.0000 0.61536  0.31030  0.51138  Biso   1.000  C
  C26      1.0000 0.88464  0.68970  0.01138  Biso   1.000  C
  C27      1.0000 0.11536  0.18970  0.48862  Biso   1.000  C
  C28      1.0000 0.38464  0.81030  0.98862  Biso   1.000  C
  C29      1.0000 0.38464  0.68970  0.48862  Biso   1.000  C
  C30      1.0000 0.11536  0.31030  0.98862  Biso   1.000  C
  C31      1.0000 0.88464  0.81030  0.51138  Biso   1.000  C
  C32      1.0000 0.61536  0.18970  0.01138  Biso   1.000  C
  C33      1.0000 0.61593  0.11430  0.51155  Biso   1.000  C
  C34      1.0000 0.88407  0.88570  0.01155  Biso   1.000  C
  C35      1.0000 0.11593  0.38570  0.48845  Biso   1.000  C
  C36      1.0000 0.38407  0.61430  0.98845  Biso   1.000  C
  C37      1.0000 0.38407  0.88570  0.48845  Biso   1.000  C
  C38      1.0000 0.11593  0.11430  0.98845  Biso   1.000  C
  C39      1.0000 0.88407  0.61430  0.51155  Biso   1.000  C
  C40      1.0000 0.61593  0.38570  0.01155  Biso   1.000  C
  C41      1.0000 0.62890  0.02220  0.44144  Biso   1.000  C
  C42      1.0000 0.87110  0.97780  0.94144  Biso   1.000  C
  C43      1.0000 0.12890  0.47780  0.55856  Biso   1.000  C
  C44      1.0000 0.37110  0.52220  0.05856  Biso   1.000  C
  C45      1.0000 0.37110  0.97780  0.55856  Biso   1.000  C
  C46      1.0000 0.12890  0.02220  0.05856  Biso   1.000  C
  C47      1.0000 0.87110  0.52220  0.44144  Biso   1.000  C
  C48      1.0000 0.62890  0.47780  0.94144  Biso   1.000  C
  C49      1.0000 0.64055  0.12350  0.37404  Biso   1.000  C
  C50      1.0000 0.85945  0.87650  0.87404  Biso   1.000  C
  C51      1.0000 0.14055  0.37650  0.62596  Biso   1.000  C
  C52      1.0000 0.35945  0.62350  0.12596  Biso   1.000  C
  C53      1.0000 0.35945  0.87650  0.62596  Biso   1.000  C
  C54      1.0000 0.14055  0.12350  0.12596  Biso   1.000  C
  C55      1.0000 0.85945  0.62350  0.37404  Biso   1.000  C
  C56      1.0000 0.64055  0.37650  0.87404  Biso   1.000  C
  H1       1.0000 0.52430  0.74700  0.21940  Biso   1.000  H
  H2       1.0000 0.97570  0.25300  0.71940  Biso   1.000  H
  H3       1.0000 0.02430  0.75300  0.78060  Biso   1.000  H
  H4       1.0000 0.47570  0.24700  0.28060  Biso   1.000  H
  H5       1.0000 0.47570  0.25300  0.78060  Biso   1.000  H
  H6       1.0000 0.02430  0.74700  0.28060  Biso   1.000  H
  H7       1.0000 0.97570  0.24700  0.21940  Biso   1.000  H
  H8       1.0000 0.52430  0.75300  0.71940  Biso   1.000  H
  H9       1.0000 0.73130  0.82600  0.14140  Biso   1.000  H
  H10      1.0000 0.76870  0.17400  0.64140  Biso   1.000  H
  H11      1.0000 0.23130  0.67400  0.85860  Biso   1.000  H
  H12      1.0000 0.26870  0.32600  0.35860  Biso   1.000  H
  H13      1.0000 0.26870  0.17400  0.85860  Biso   1.000  H
  H14      1.0000 0.23130  0.82600  0.35860  Biso   1.000  H
  H15      1.0000 0.76870  0.32600  0.14140  Biso   1.000  H
  H16      1.0000 0.73130  0.67400  0.64140  Biso   1.000  H
  H17      1.0000 0.62570  0.53900  0.44390  Biso   1.000  H
  H18      1.0000 0.87430  0.46100  0.94390  Biso   1.000  H
  H19      1.0000 0.12570  0.96100  0.55610  Biso   1.000  H
  H20      1.0000 0.37430  0.03900  0.05610  Biso   1.000  H
  H21      1.0000 0.37430  0.46100  0.55610  Biso   1.000  H
  H22      1.0000 0.12570  0.53900  0.05610  Biso   1.000  H
  H23      1.0000 0.87430  0.03900  0.44390  Biso   1.000  H
  H24      1.0000 0.62570  0.96100  0.94390  Biso   1.000  H
  H25      1.0000 0.58300  0.34800  0.62600  Biso   1.000  H
  H26      1.0000 0.91700  0.65200  0.12600  Biso   1.000  H
  H27      1.0000 0.08300  0.15200  0.37400  Biso   1.000  H
  H28      1.0000 0.41700  0.84800  0.87400  Biso   1.000  H
  H29      1.0000 0.41700  0.65200  0.37400  Biso   1.000  H
  H30      1.0000 0.08300  0.34800  0.87400  Biso   1.000  H
  H31      1.0000 0.91700  0.84800  0.62600  Biso   1.000  H
  H32      1.0000 0.58300  0.15200  0.12600  Biso   1.000  H
  H33      1.0000 0.60900  0.02900  0.55900  Biso   1.000  H
  H34      1.0000 0.89100  0.97100  0.05900  Biso   1.000  H
  H35      1.0000 0.10900  0.47100  0.44100  Biso   1.000  H
  H36      1.0000 0.39100  0.52900  0.94100  Biso   1.000  H
  H37      1.0000 0.39100  0.97100  0.44100  Biso   1.000  H
  H38      1.0000 0.10900  0.02900  0.94100  Biso   1.000  H
  H39      1.0000 0.89100  0.52900  0.55900  Biso   1.000  H
  H40      1.0000 0.60900  0.47100  0.05900  Biso   1.000  H
  H41      1.0000 0.62300  0.89800  0.44000  Biso   1.000  H
  H42      1.0000 0.87700  0.10200  0.94000  Biso   1.000  H
  H43      1.0000 0.12300  0.60200  0.56000  Biso   1.000  H
  H44      1.0000 0.37700  0.39800  0.06000  Biso   1.000  H
  H45      1.0000 0.37700  0.10200  0.56000  Biso   1.000  H
  H46      1.0000 0.12300  0.89800  0.06000  Biso   1.000  H
  H47      1.0000 0.87700  0.39800  0.44000  Biso   1.000  H
  H48      1.0000 0.62300  0.60200  0.94000  Biso   1.000  H
  H49      1.0000 0.65200  0.05800  0.32700  Biso   1.000  H
  H50      1.0000 0.84800  0.94200  0.82700  Biso   1.000  H
  H51      1.0000 0.15200  0.44200  0.67300  Biso   1.000  H
  H52      1.0000 0.34800  0.55800  0.17300  Biso   1.000  H
  H53      1.0000 0.34800  0.94200  0.67300  Biso   1.000  H
  H54      1.0000 0.15200  0.05800  0.17300  Biso   1.000  H
  H55      1.0000 0.84800  0.55800  0.32700  Biso   1.000  H
  H56      1.0000 0.65200  0.44200  0.82700  Biso   1.000  H
