data_image0
_cell_length_a       8.071
_cell_length_b       13.4048
_cell_length_c       12.9065
_cell_angle_alpha    90
_cell_angle_beta     100.111
_cell_angle_gamma    90

_symmetry_space_group_name_H-M    "P 1"
_symmetry_int_tables_number       1

loop_
  _symmetry_equiv_pos_as_xyz
  'x, y, z'

loop_
  _atom_site_label
  _atom_site_occupancy
  _atom_site_fract_x
  _atom_site_fract_y
  _atom_site_fract_z
  _atom_site_thermal_displace_type
  _atom_site_B_iso_or_equiv
  _atom_site_type_symbol
  Cu1      1.0000 0.00015  0.38451  0.05829  Biso   1.000  Cu
  Cu2      1.0000 0.99985  0.88451  0.44171  Biso   1.000  Cu
  Cu3      1.0000 0.99985  0.61549  0.94171  Biso   1.000  Cu
  Cu4      1.0000 0.00015  0.11549  0.55829  Biso   1.000  Cu
  O1       1.0000 0.54567  0.50833  0.32062  Biso   1.000  O
  O2       1.0000 0.45433  0.00833  0.17938  Biso   1.000  O
  O3       1.0000 0.45433  0.49167  0.67938  Biso   1.000  O
  O4       1.0000 0.54567  0.99167  0.82062  Biso   1.000  O
  O5       1.0000 0.85478  0.24302  0.16568  Biso   1.000  O
  O6       1.0000 0.14522  0.74302  0.33432  Biso   1.000  O
  O7       1.0000 0.14522  0.75698  0.83432  Biso   1.000  O
  O8       1.0000 0.85478  0.25698  0.66568  Biso   1.000  O
  O9       1.0000 0.17827  0.28730  0.04321  Biso   1.000  O
  O10      1.0000 0.82173  0.78730  0.45679  Biso   1.000  O
  O11      1.0000 0.82173  0.71270  0.95679  Biso   1.000  O
  O12      1.0000 0.17827  0.21270  0.54321  Biso   1.000  O
  O13      1.0000 0.14760  0.17426  0.16439  Biso   1.000  O
  O14      1.0000 0.85240  0.67426  0.33561  Biso   1.000  O
  O15      1.0000 0.85240  0.82574  0.83561  Biso   1.000  O
  O16      1.0000 0.14760  0.32574  0.66439  Biso   1.000  O
  O17      1.0000 0.85763  0.50613  0.04625  Biso   1.000  O
  O18      1.0000 0.14237  0.00613  0.45375  Biso   1.000  O
  O19      1.0000 0.14237  0.49387  0.95375  Biso   1.000  O
  O20      1.0000 0.85763  0.99387  0.54625  Biso   1.000  O
  O21      1.0000 0.66530  0.46573  0.14341  Biso   1.000  O
  O22      1.0000 0.33470  0.96573  0.35659  Biso   1.000  O
  O23      1.0000 0.33470  0.53427  0.85659  Biso   1.000  O
  O24      1.0000 0.66530  0.03427  0.64341  Biso   1.000  O
  N1       1.0000 0.12597  0.43083  0.19787  Biso   1.000  N
  N2       1.0000 0.87403  0.93083  0.30213  Biso   1.000  N
  N3       1.0000 0.87403  0.56917  0.80213  Biso   1.000  N
  N4       1.0000 0.12597  0.06917  0.69787  Biso   1.000  N
  N5       1.0000 0.84513  0.17545  0.43600  Biso   1.000  N
  N6       1.0000 0.15487  0.67545  0.06400  Biso   1.000  N
  N7       1.0000 0.15487  0.82455  0.56400  Biso   1.000  N
  N8       1.0000 0.84513  0.32455  0.93600  Biso   1.000  N
  C1       1.0000 0.21736  0.20950  0.09602  Biso   1.000  C
  C2       1.0000 0.78264  0.70950  0.40398  Biso   1.000  C
  C3       1.0000 0.78264  0.79050  0.90398  Biso   1.000  C
  C4       1.0000 0.21736  0.29050  0.59602  Biso   1.000  C
  C5       1.0000 0.73037  0.52335  0.08858  Biso   1.000  C
  C6       1.0000 0.26963  0.02335  0.41142  Biso   1.000  C
  C7       1.0000 0.26963  0.47665  0.91142  Biso   1.000  C
  C8       1.0000 0.73037  0.97665  0.58858  Biso   1.000  C
  C9       1.0000 0.29160  0.45169  0.21158  Biso   1.000  C
  C10      1.0000 0.70840  0.95169  0.28842  Biso   1.000  C
  C11      1.0000 0.70840  0.54831  0.78842  Biso   1.000  C
  C12      1.0000 0.29160  0.04831  0.71158  Biso   1.000  C
  C13      1.0000 0.38005  0.48556  0.30654  Biso   1.000  C
  C14      1.0000 0.61995  0.98556  0.19346  Biso   1.000  C
  C15      1.0000 0.61995  0.51444  0.69346  Biso   1.000  C
  C16      1.0000 0.38005  0.01444  0.80654  Biso   1.000  C
  C17      1.0000 0.29600  0.49670  0.39059  Biso   1.000  C
  C18      1.0000 0.70400  0.99670  0.10941  Biso   1.000  C
  C19      1.0000 0.70400  0.50330  0.60941  Biso   1.000  C
  C20      1.0000 0.29600  0.00330  0.89059  Biso   1.000  C
  C21      1.0000 0.12730  0.47383  0.37592  Biso   1.000  C
  C22      1.0000 0.87270  0.97383  0.12408  Biso   1.000  C
  C23      1.0000 0.87270  0.52617  0.62408  Biso   1.000  C
  C24      1.0000 0.12730  0.02617  0.87592  Biso   1.000  C
  C25      1.0000 0.04450  0.44187  0.27889  Biso   1.000  C
  C26      1.0000 0.95550  0.94187  0.22111  Biso   1.000  C
  C27      1.0000 0.95550  0.55813  0.72111  Biso   1.000  C
  C28      1.0000 0.04450  0.05813  0.77889  Biso   1.000  C
  C29      1.0000 0.90091  0.19271  0.34646  Biso   1.000  C
  C30      1.0000 0.09909  0.69271  0.15354  Biso   1.000  C
  C31      1.0000 0.09909  0.80729  0.65354  Biso   1.000  C
  C32      1.0000 0.90091  0.30729  0.84646  Biso   1.000  C
  C33      1.0000 0.79700  0.22885  0.25676  Biso   1.000  C
  C34      1.0000 0.20300  0.72885  0.24324  Biso   1.000  C
  C35      1.0000 0.20300  0.77115  0.74324  Biso   1.000  C
  C36      1.0000 0.79700  0.27115  0.75676  Biso   1.000  C
  C37      1.0000 0.63100  0.25104  0.26288  Biso   1.000  C
  C38      1.0000 0.36900  0.75104  0.23712  Biso   1.000  C
  C39      1.0000 0.36900  0.74896  0.73712  Biso   1.000  C
  C40      1.0000 0.63100  0.24896  0.76288  Biso   1.000  C
  C41      1.0000 0.57508  0.23379  0.35605  Biso   1.000  C
  C42      1.0000 0.42492  0.73379  0.14395  Biso   1.000  C
  C43      1.0000 0.42492  0.76621  0.64395  Biso   1.000  C
  C44      1.0000 0.57508  0.26621  0.85605  Biso   1.000  C
  C45      1.0000 0.68344  0.19522  0.44151  Biso   1.000  C
  C46      1.0000 0.31656  0.69522  0.05849  Biso   1.000  C
  C47      1.0000 0.31656  0.80478  0.55849  Biso   1.000  C
  C48      1.0000 0.68344  0.30478  0.94151  Biso   1.000  C
  H1       1.0000 0.58209  0.49922  0.25540  Biso   1.000  H
  H2       1.0000 0.41791  0.99922  0.24460  Biso   1.000  H
  H3       1.0000 0.41791  0.50078  0.74460  Biso   1.000  H
  H4       1.0000 0.58209  0.00078  0.75540  Biso   1.000  H
  H5       1.0000 0.34700  0.43910  0.15240  Biso   1.000  H
  H6       1.0000 0.65300  0.93910  0.34760  Biso   1.000  H
  H7       1.0000 0.65300  0.56090  0.84760  Biso   1.000  H
  H8       1.0000 0.34700  0.06090  0.65240  Biso   1.000  H
  H9       1.0000 0.34730  0.52520  0.46070  Biso   1.000  H
  H10      1.0000 0.65270  0.02520  0.03930  Biso   1.000  H
  H11      1.0000 0.65270  0.47480  0.53930  Biso   1.000  H
  H12      1.0000 0.34730  0.97480  0.96070  Biso   1.000  H
  H13      1.0000 0.06446  0.48052  0.43564  Biso   1.000  H
  H14      1.0000 0.93554  0.98052  0.06436  Biso   1.000  H
  H15      1.0000 0.93554  0.51948  0.56436  Biso   1.000  H
  H16      1.0000 0.06446  0.01948  0.93564  Biso   1.000  H
  H17      1.0000 0.91370  0.42800  0.26350  Biso   1.000  H
  H18      1.0000 0.08630  0.92800  0.23650  Biso   1.000  H
  H19      1.0000 0.08630  0.57200  0.73650  Biso   1.000  H
  H20      1.0000 0.91370  0.07200  0.76350  Biso   1.000  H
  H21      1.0000 0.03080  0.18540  0.34860  Biso   1.000  H
  H22      1.0000 0.96920  0.68540  0.15140  Biso   1.000  H
  H23      1.0000 0.96920  0.81460  0.65140  Biso   1.000  H
  H24      1.0000 0.03080  0.31460  0.84860  Biso   1.000  H
  H25      1.0000 0.96180  0.20060  0.15870  Biso   1.000  H
  H26      1.0000 0.03820  0.70060  0.34130  Biso   1.000  H
  H27      1.0000 0.03820  0.79940  0.84130  Biso   1.000  H
  H28      1.0000 0.96180  0.29940  0.65870  Biso   1.000  H
  H29      1.0000 0.56100  0.27080  0.20240  Biso   1.000  H
  H30      1.0000 0.43900  0.77080  0.29760  Biso   1.000  H
  H31      1.0000 0.43900  0.72920  0.79760  Biso   1.000  H
  H32      1.0000 0.56100  0.22920  0.70240  Biso   1.000  H
  H33      1.0000 0.46020  0.25000  0.36680  Biso   1.000  H
  H34      1.0000 0.53980  0.75000  0.13320  Biso   1.000  H
  H35      1.0000 0.53980  0.75000  0.63320  Biso   1.000  H
  H36      1.0000 0.46020  0.25000  0.86680  Biso   1.000  H
  H37      1.0000 0.63840  0.18060  0.50880  Biso   1.000  H
  H38      1.0000 0.36160  0.68060  0.99120  Biso   1.000  H
  H39      1.0000 0.36160  0.81940  0.49120  Biso   1.000  H
  H40      1.0000 0.63840  0.31940  0.00880  Biso   1.000  H
  H41      1.0000 0.31890  0.16870  0.09020  Biso   1.000  H
  H42      1.0000 0.68110  0.66870  0.40980  Biso   1.000  H
  H43      1.0000 0.68110  0.83130  0.90980  Biso   1.000  H
  H44      1.0000 0.31890  0.33130  0.59020  Biso   1.000  H
  H45      1.0000 0.68410  0.58970  0.08430  Biso   1.000  H
  H46      1.0000 0.31590  0.08970  0.41570  Biso   1.000  H
  H47      1.0000 0.31590  0.41030  0.91570  Biso   1.000  H
  H48      1.0000 0.68410  0.91030  0.58430  Biso   1.000  H
