data_image0
_cell_length_a       9.022
_cell_length_b       9.4
_cell_length_c       8.409
_cell_angle_alpha    103.51
_cell_angle_beta     103.42
_cell_angle_gamma    103.37

_symmetry_space_group_name_H-M    "P 1"
_symmetry_int_tables_number       1

loop_
  _symmetry_equiv_pos_as_xyz
  'x, y, z'

loop_
  _atom_site_label
  _atom_site_occupancy
  _atom_site_fract_x
  _atom_site_fract_y
  _atom_site_fract_z
  _atom_site_thermal_displace_type
  _atom_site_B_iso_or_equiv
  _atom_site_type_symbol
  Cu1      1.0000 0.46546  0.07112  0.15198  Biso   1.000  Cu
  Cu2      1.0000 0.53454  0.92888  0.84802  Biso   1.000  Cu
  O1       1.0000 0.60537  0.12600  0.01970  Biso   1.000  O
  O2       1.0000 0.39463  0.87400  0.98030  Biso   1.000  O
  N1       1.0000 0.34533  0.00953  0.31231  Biso   1.000  N
  N2       1.0000 0.65467  0.99047  0.68769  Biso   1.000  N
  C1       1.0000 0.23177  0.87679  0.27936  Biso   1.000  C
  C2       1.0000 0.76823  0.12321  0.72064  Biso   1.000  C
  C3       1.0000 0.14879  0.84791  0.39222  Biso   1.000  C
  C4       1.0000 0.85121  0.15209  0.60778  Biso   1.000  C
  C5       1.0000 0.18477  0.96015  0.54523  Biso   1.000  C
  C6       1.0000 0.81523  0.03985  0.45477  Biso   1.000  C
  C7       1.0000 0.30031  0.09692  0.58037  Biso   1.000  C
  C8       1.0000 0.69969  0.90308  0.41963  Biso   1.000  C
  C9       1.0000 0.37947  0.11910  0.46273  Biso   1.000  C
  C10      1.0000 0.62053  0.88090  0.53727  Biso   1.000  C
  C11      1.0000 0.50965  0.25996  0.48737  Biso   1.000  C
  C12      1.0000 0.49035  0.74004  0.51263  Biso   1.000  C
  C13      1.0000 0.57419  0.38095  0.63750  Biso   1.000  C
  C14      1.0000 0.42581  0.61905  0.36250  Biso   1.000  C
  C15      1.0000 0.69789  0.50380  0.64895  Biso   1.000  C
  C16      1.0000 0.30211  0.49620  0.35105  Biso   1.000  C
  C17      1.0000 0.75372  0.50413  0.50981  Biso   1.000  C
  C18      1.0000 0.24628  0.49587  0.49019  Biso   1.000  C
  C19      1.0000 0.68339  0.38137  0.36294  Biso   1.000  C
  C20      1.0000 0.31661  0.61863  0.63706  Biso   1.000  C
  N3       1.0000 0.56440  0.26031  0.35262  Biso   1.000  N
  N4       1.0000 0.43560  0.73969  0.64738  Biso   1.000  N
  O3       1.0000 0.24860  0.15494  0.03253  Biso   1.000  O
  O4       1.0000 0.75140  0.84506  0.96747  Biso   1.000  O
  C21      1.0000 0.11141  0.07121  0.01469  Biso   1.000  C
  C22      1.0000 0.88859  0.92879  0.98531  Biso   1.000  C
  C23      1.0000 0.02465  0.90755  0.92807  Biso   1.000  C
  C24      1.0000 0.97535  0.09245  0.07193  Biso   1.000  C
  O5       1.0000 0.05733  0.79840  0.84022  Biso   1.000  O
  O6       1.0000 0.94267  0.20160  0.15978  Biso   1.000  O
  O7       1.0000 0.34040  0.41307  0.92745  Biso   1.000  O
  O8       1.0000 0.65960  0.58693  0.07255  Biso   1.000  O
  O9       1.0000 0.07010  0.51187  0.87393  Biso   1.000  O
  O10      1.0000 0.92990  0.48813  0.12607  Biso   1.000  O
  H1       1.0000 0.04300  0.60500  0.84700  Biso   1.000  H
  H2       1.0000 0.95700  0.39500  0.15300  Biso   1.000  H
  H3       1.0000 0.00600  0.45900  0.91000  Biso   1.000  H
  H4       1.0000 0.99400  0.54100  0.09000  Biso   1.000  H
  H5       1.0000 0.30400  0.33800  0.97200  Biso   1.000  H
  H6       1.0000 0.69600  0.66200  0.02800  Biso   1.000  H
  H7       1.0000 0.26000  0.46500  0.92500  Biso   1.000  H
  H8       1.0000 0.74000  0.53500  0.07500  Biso   1.000  H
  H9       1.0000 0.21800  0.80600  0.18200  Biso   1.000  H
  H10      1.0000 0.78200  0.19400  0.81800  Biso   1.000  H
  H11      1.0000 0.05500  0.75600  0.35200  Biso   1.000  H
  H12      1.0000 0.94500  0.24400  0.64800  Biso   1.000  H
  H13      1.0000 0.11700  0.93600  0.60100  Biso   1.000  H
  H14      1.0000 0.88300  0.06400  0.39900  Biso   1.000  H
  H15      1.0000 0.32000  0.16100  0.65900  Biso   1.000  H
  H16      1.0000 0.68000  0.83900  0.34100  Biso   1.000  H
  H17      1.0000 0.53700  0.37500  0.71900  Biso   1.000  H
  H18      1.0000 0.46300  0.62500  0.28100  Biso   1.000  H
  H19      1.0000 0.77800  0.56500  0.75300  Biso   1.000  H
  H20      1.0000 0.22200  0.43500  0.24700  Biso   1.000  H
  H21      1.0000 0.84300  0.57400  0.51700  Biso   1.000  H
  H22      1.0000 0.15700  0.42600  0.48300  Biso   1.000  H
  H23      1.0000 0.71000  0.39000  0.25700  Biso   1.000  H
  H24      1.0000 0.29000  0.61000  0.74300  Biso   1.000  H
  H25      1.0000 0.71600  0.12800  0.07900  Biso   1.000  H
  H26      1.0000 0.28400  0.87200  0.92100  Biso   1.000  H
