data_image0
_cell_length_a       9.745
_cell_length_b       12.979
_cell_length_c       12.375
_cell_angle_alpha    90
_cell_angle_beta     94.206
_cell_angle_gamma    90

_symmetry_space_group_name_H-M    "P 1"
_symmetry_int_tables_number       1

loop_
  _symmetry_equiv_pos_as_xyz
  'x, y, z'

loop_
  _atom_site_label
  _atom_site_occupancy
  _atom_site_fract_x
  _atom_site_fract_y
  _atom_site_fract_z
  _atom_site_thermal_displace_type
  _atom_site_B_iso_or_equiv
  _atom_site_type_symbol
  Cu1      1.0000 0.00000  0.00000  0.00000  Biso   1.000  Cu
  Cu2      1.0000 0.00000  0.50000  0.50000  Biso   1.000  Cu
  O1       1.0000 0.36750  0.70540  0.18130  Biso   1.000  O
  O2       1.0000 0.63250  0.20540  0.31870  Biso   1.000  O
  O3       1.0000 0.63250  0.29460  0.81870  Biso   1.000  O
  O4       1.0000 0.36750  0.79460  0.68130  Biso   1.000  O
  N1       1.0000 0.13530  0.65780  0.17910  Biso   1.000  N
  N2       1.0000 0.86470  0.15780  0.32090  Biso   1.000  N
  N3       1.0000 0.86470  0.34220  0.82090  Biso   1.000  N
  N4       1.0000 0.13530  0.84220  0.67910  Biso   1.000  N
  C1       1.0000 0.24810  0.72650  0.15990  Biso   1.000  C
  C2       1.0000 0.75190  0.22650  0.34010  Biso   1.000  C
  C3       1.0000 0.75190  0.27350  0.84010  Biso   1.000  C
  C4       1.0000 0.24810  0.77350  0.65990  Biso   1.000  C
  C5       1.0000 0.18680  0.81840  0.11010  Biso   1.000  C
  C6       1.0000 0.81320  0.31840  0.38990  Biso   1.000  C
  C7       1.0000 0.81320  0.18160  0.88990  Biso   1.000  C
  C8       1.0000 0.18680  0.68160  0.61010  Biso   1.000  C
  C9       1.0000 0.25750  0.90980  0.08770  Biso   1.000  C
  C10      1.0000 0.74250  0.40980  0.41230  Biso   1.000  C
  C11      1.0000 0.74250  0.09020  0.91230  Biso   1.000  C
  C12      1.0000 0.25750  0.59020  0.58770  Biso   1.000  C
  O5       1.0000 0.19320  0.98840  0.04730  Biso   1.000  O
  O6       1.0000 0.80680  0.48840  0.45270  Biso   1.000  O
  O7       1.0000 0.80680  0.01160  0.95270  Biso   1.000  O
  O8       1.0000 0.19320  0.51160  0.54730  Biso   1.000  O
  C13      1.0000 0.40780  0.91890  0.11040  Biso   1.000  C
  C14      1.0000 0.59220  0.41890  0.38960  Biso   1.000  C
  C15      1.0000 0.59220  0.08110  0.88960  Biso   1.000  C
  C16      1.0000 0.40780  0.58110  0.61040  Biso   1.000  C
  H1       1.0000 0.45410  0.86730  0.06820  Biso   1.000  H
  H2       1.0000 0.54590  0.36730  0.43180  Biso   1.000  H
  H3       1.0000 0.54590  0.13270  0.93180  Biso   1.000  H
  H4       1.0000 0.45410  0.63270  0.56820  Biso   1.000  H
  H5       1.0000 0.43140  0.90740  0.18780  Biso   1.000  H
  H6       1.0000 0.56860  0.40740  0.31220  Biso   1.000  H
  H7       1.0000 0.56860  0.09260  0.81220  Biso   1.000  H
  H8       1.0000 0.43140  0.59260  0.68780  Biso   1.000  H
  H9       1.0000 0.43750  0.98800  0.09040  Biso   1.000  H
  H10      1.0000 0.56250  0.48800  0.40960  Biso   1.000  H
  H11      1.0000 0.56250  0.01200  0.90960  Biso   1.000  H
  H12      1.0000 0.43750  0.51200  0.59040  Biso   1.000  H
  C17      1.0000 0.04430  0.80620  0.09770  Biso   1.000  C
  C18      1.0000 0.95570  0.30620  0.40230  Biso   1.000  C
  C19      1.0000 0.95570  0.19380  0.90230  Biso   1.000  C
  C20      1.0000 0.04430  0.69380  0.59770  Biso   1.000  C
  O9       1.0000 0.95320  0.86690  0.05640  Biso   1.000  O
  O10      1.0000 0.04680  0.36690  0.44360  Biso   1.000  O
  O11      1.0000 0.04680  0.13310  0.94360  Biso   1.000  O
  O12      1.0000 0.95320  0.63310  0.55640  Biso   1.000  O
  C21      1.0000 0.00890  0.70150  0.13490  Biso   1.000  C
  C22      1.0000 0.99110  0.20150  0.36510  Biso   1.000  C
  C23      1.0000 0.99110  0.29850  0.86510  Biso   1.000  C
  C24      1.0000 0.00890  0.79850  0.63490  Biso   1.000  C
  C25      1.0000 0.88600  0.65880  0.11160  Biso   1.000  C
  C26      1.0000 0.11400  0.15880  0.38840  Biso   1.000  C
  C27      1.0000 0.11400  0.34120  0.88840  Biso   1.000  C
  C28      1.0000 0.88600  0.84120  0.61160  Biso   1.000  C
  H13      1.0000 0.81770  0.70760  0.08780  Biso   1.000  H
  H14      1.0000 0.18230  0.20760  0.41220  Biso   1.000  H
  H15      1.0000 0.18230  0.29240  0.91220  Biso   1.000  H
  H16      1.0000 0.81770  0.79240  0.58780  Biso   1.000  H
  C29      1.0000 0.83300  0.55430  0.11440  Biso   1.000  C
  C30      1.0000 0.16700  0.05430  0.38560  Biso   1.000  C
  C31      1.0000 0.16700  0.44570  0.88560  Biso   1.000  C
  C32      1.0000 0.83300  0.94570  0.61440  Biso   1.000  C
  C33      1.0000 0.69070  0.53990  0.10230  Biso   1.000  C
  C34      1.0000 0.30930  0.03990  0.39770  Biso   1.000  C
  C35      1.0000 0.30930  0.46010  0.89770  Biso   1.000  C
  C36      1.0000 0.69070  0.96010  0.60230  Biso   1.000  C
  H17      1.0000 0.63170  0.59830  0.09880  Biso   1.000  H
  H18      1.0000 0.36830  0.09830  0.40120  Biso   1.000  H
  H19      1.0000 0.36830  0.40170  0.90120  Biso   1.000  H
  H20      1.0000 0.63170  0.90170  0.59880  Biso   1.000  H
  C37      1.0000 0.63390  0.44210  0.09520  Biso   1.000  C
  C38      1.0000 0.36610  0.94210  0.40480  Biso   1.000  C
  C39      1.0000 0.36610  0.55790  0.90480  Biso   1.000  C
  C40      1.0000 0.63390  0.05790  0.59520  Biso   1.000  C
  H21      1.0000 0.53680  0.43350  0.08710  Biso   1.000  H
  H22      1.0000 0.46320  0.93350  0.41290  Biso   1.000  H
  H23      1.0000 0.46320  0.56650  0.91290  Biso   1.000  H
  H24      1.0000 0.53680  0.06650  0.58710  Biso   1.000  H
  C41      1.0000 0.71940  0.35740  0.09990  Biso   1.000  C
  C42      1.0000 0.28060  0.85740  0.40010  Biso   1.000  C
  C43      1.0000 0.28060  0.64260  0.90010  Biso   1.000  C
  C44      1.0000 0.71940  0.14260  0.59990  Biso   1.000  C
  H25      1.0000 0.68030  0.29040  0.09480  Biso   1.000  H
  H26      1.0000 0.31970  0.79040  0.40520  Biso   1.000  H
  H27      1.0000 0.31970  0.70960  0.90520  Biso   1.000  H
  H28      1.0000 0.68030  0.20960  0.59480  Biso   1.000  H
  C45      1.0000 0.85820  0.36790  0.11160  Biso   1.000  C
  C46      1.0000 0.14180  0.86790  0.38840  Biso   1.000  C
  C47      1.0000 0.14180  0.63210  0.88840  Biso   1.000  C
  C48      1.0000 0.85820  0.13210  0.61160  Biso   1.000  C
  H29      1.0000 0.91510  0.30840  0.11430  Biso   1.000  H
  H30      1.0000 0.08490  0.80840  0.38570  Biso   1.000  H
  H31      1.0000 0.08490  0.69160  0.88570  Biso   1.000  H
  H32      1.0000 0.91510  0.19160  0.61430  Biso   1.000  H
  C49      1.0000 0.91750  0.46540  0.11960  Biso   1.000  C
  C50      1.0000 0.08250  0.96540  0.38040  Biso   1.000  C
  C51      1.0000 0.08250  0.53460  0.88040  Biso   1.000  C
  C52      1.0000 0.91750  0.03460  0.61960  Biso   1.000  C
  H33      1.0000 0.01470  0.47230  0.12860  Biso   1.000  H
  H34      1.0000 0.98530  0.97230  0.37140  Biso   1.000  H
  H35      1.0000 0.98530  0.52770  0.87140  Biso   1.000  H
  H36      1.0000 0.01470  0.02770  0.62860  Biso   1.000  H
  C53      1.0000 0.14080  0.59130  0.27040  Biso   1.000  C
  C54      1.0000 0.85920  0.09130  0.22960  Biso   1.000  C
  C55      1.0000 0.85920  0.40870  0.72960  Biso   1.000  C
  C56      1.0000 0.14080  0.90870  0.77040  Biso   1.000  C
  O13      1.0000 0.03740  0.57700  0.31740  Biso   1.000  O
  O14      1.0000 0.96260  0.07700  0.18260  Biso   1.000  O
  O15      1.0000 0.96260  0.42300  0.68260  Biso   1.000  O
  O16      1.0000 0.03740  0.92300  0.81740  Biso   1.000  O
  C57      1.0000 0.27620  0.54380  0.30240  Biso   1.000  C
  C58      1.0000 0.72380  0.04380  0.19760  Biso   1.000  C
  C59      1.0000 0.72380  0.45620  0.69760  Biso   1.000  C
  C60      1.0000 0.27620  0.95620  0.80240  Biso   1.000  C
  H37      1.0000 0.31890  0.52030  0.23750  Biso   1.000  H
  H38      1.0000 0.68110  0.02030  0.26250  Biso   1.000  H
  H39      1.0000 0.68110  0.47970  0.76250  Biso   1.000  H
  H40      1.0000 0.31890  0.97970  0.73750  Biso   1.000  H
  H41      1.0000 0.26330  0.48490  0.35020  Biso   1.000  H
  H42      1.0000 0.73670  0.98490  0.14980  Biso   1.000  H
  H43      1.0000 0.73670  0.51510  0.64980  Biso   1.000  H
  H44      1.0000 0.26330  0.01510  0.85020  Biso   1.000  H
  H45      1.0000 0.33590  0.59470  0.34070  Biso   1.000  H
  H46      1.0000 0.66410  0.09470  0.15930  Biso   1.000  H
  H47      1.0000 0.66410  0.40530  0.65930  Biso   1.000  H
  H48      1.0000 0.33590  0.90530  0.84070  Biso   1.000  H
  O17      1.0000 0.35380  0.31390  0.53990  Biso   1.000  O
  O18      1.0000 0.64620  0.81390  0.96010  Biso   1.000  O
  O19      1.0000 0.64620  0.68610  0.46010  Biso   1.000  O
  O20      1.0000 0.35380  0.18610  0.03990  Biso   1.000  O
  H49      1.0000 0.27710  0.33780  0.51660  Biso   1.000  H
  H50      1.0000 0.72290  0.83780  0.98340  Biso   1.000  H
  H51      1.0000 0.72290  0.66220  0.48340  Biso   1.000  H
  H52      1.0000 0.27710  0.16220  0.01660  Biso   1.000  H
  C61      1.0000 0.25290  0.20930  0.66820  Biso   1.000  C
  C62      1.0000 0.74710  0.70930  0.83180  Biso   1.000  C
  C63      1.0000 0.74710  0.79070  0.33180  Biso   1.000  C
  C64      1.0000 0.25290  0.29070  0.16820  Biso   1.000  C
  H53      1.0000 0.15980  0.23700  0.65340  Biso   1.000  H
  H54      1.0000 0.84020  0.73700  0.84660  Biso   1.000  H
  H55      1.0000 0.84020  0.76300  0.34660  Biso   1.000  H
  H56      1.0000 0.15980  0.26300  0.15340  Biso   1.000  H
  H57      1.0000 0.26570  0.18830  0.74430  Biso   1.000  H
  H58      1.0000 0.73430  0.68830  0.75570  Biso   1.000  H
  H59      1.0000 0.73430  0.81170  0.25570  Biso   1.000  H
  H60      1.0000 0.26570  0.31170  0.24430  Biso   1.000  H
  H61      1.0000 0.26540  0.14950  0.62160  Biso   1.000  H
  H62      1.0000 0.73460  0.64950  0.87840  Biso   1.000  H
  H63      1.0000 0.73460  0.85050  0.37840  Biso   1.000  H
  H64      1.0000 0.26540  0.35050  0.12160  Biso   1.000  H
  C65      1.0000 0.34820  0.28410  0.64760  Biso   1.000  C
  C66      1.0000 0.65180  0.78410  0.85240  Biso   1.000  C
  C67      1.0000 0.65180  0.71590  0.35240  Biso   1.000  C
  C68      1.0000 0.34820  0.21590  0.14760  Biso   1.000  C
  H65      1.0000 0.44040  0.25880  0.67420  Biso   1.000  H
  H66      1.0000 0.55960  0.75880  0.82580  Biso   1.000  H
  H67      1.0000 0.55960  0.74120  0.32580  Biso   1.000  H
  H68      1.0000 0.44040  0.24120  0.17420  Biso   1.000  H
  H69      1.0000 0.32850  0.34600  0.69060  Biso   1.000  H
  H70      1.0000 0.67150  0.84600  0.80940  Biso   1.000  H
  H71      1.0000 0.67150  0.65400  0.30940  Biso   1.000  H
  H72      1.0000 0.32850  0.15400  0.19060  Biso   1.000  H
