data_image0
_cell_length_a       9.0653
_cell_length_b       11.559
_cell_length_c       12.08
_cell_angle_alpha    93.25
_cell_angle_beta     111.05
_cell_angle_gamma    105.62

_symmetry_space_group_name_H-M    "P 1"
_symmetry_int_tables_number       1

loop_
  _symmetry_equiv_pos_as_xyz
  'x, y, z'

loop_
  _atom_site_label
  _atom_site_occupancy
  _atom_site_fract_x
  _atom_site_fract_y
  _atom_site_fract_z
  _atom_site_thermal_displace_type
  _atom_site_B_iso_or_equiv
  _atom_site_type_symbol
  Cu1      1.0000 0.92508  0.94902  0.36369  Biso   1.000  Cu
  Cu2      1.0000 0.07492  0.05098  0.63631  Biso   1.000  Cu
  Cu3      1.0000 0.50000  0.50000  0.50000  Biso   1.000  Cu
  O1       1.0000 0.65330  0.94600  0.35680  Biso   1.000  O
  O2       1.0000 0.34670  0.05400  0.64320  Biso   1.000  O
  H1       1.0000 0.57600  0.88260  0.32280  Biso   1.000  H
  H2       1.0000 0.42400  0.11740  0.67720  Biso   1.000  H
  H3       1.0000 0.62840  0.00480  0.33150  Biso   1.000  H
  H4       1.0000 0.37160  0.99520  0.66850  Biso   1.000  H
  O3       1.0000 0.26050  0.00920  0.39090  Biso   1.000  O
  O4       1.0000 0.73950  0.99080  0.60910  Biso   1.000  O
  H5       1.0000 0.30080  0.01670  0.46470  Biso   1.000  H
  H6       1.0000 0.69920  0.98330  0.53530  Biso   1.000  H
  H7       1.0000 0.23930  0.93980  0.35700  Biso   1.000  H
  H8       1.0000 0.76070  0.06020  0.64300  Biso   1.000  H
  O5       1.0000 0.37950  0.74750  0.25480  Biso   1.000  O
  O6       1.0000 0.62050  0.25250  0.74520  Biso   1.000  O
  H9       1.0000 0.38540  0.68360  0.28000  Biso   1.000  H
  H10      1.0000 0.61460  0.31640  0.72000  Biso   1.000  H
  H11      1.0000 0.28510  0.75340  0.23330  Biso   1.000  H
  H12      1.0000 0.71490  0.24660  0.76670  Biso   1.000  H
  O7       1.0000 0.49120  0.12510  0.30480  Biso   1.000  O
  O8       1.0000 0.50880  0.87490  0.69520  Biso   1.000  O
  H13      1.0000 0.51700  0.19980  0.31850  Biso   1.000  H
  H14      1.0000 0.48300  0.80020  0.68150  Biso   1.000  H
  H15      1.0000 0.47210  0.09700  0.36110  Biso   1.000  H
  H16      1.0000 0.52790  0.90300  0.63890  Biso   1.000  H
  O9       1.0000 0.50480  0.36520  0.33510  Biso   1.000  O
  O10      1.0000 0.49520  0.63480  0.66490  Biso   1.000  O
  O11      1.0000 0.42380  0.52850  0.32990  Biso   1.000  O
  O12      1.0000 0.57620  0.47150  0.67010  Biso   1.000  O
  O13      1.0000 0.46130  0.35760  0.09400  Biso   1.000  O
  O14      1.0000 0.53870  0.64240  0.90600  Biso   1.000  O
  O15      1.0000 0.08380  0.78730  0.25260  Biso   1.000  O
  O16      1.0000 0.91620  0.21270  0.74740  Biso   1.000  O
  O17      1.0000 0.85580  0.78160  0.28330  Biso   1.000  O
  O18      1.0000 0.14420  0.21840  0.71670  Biso   1.000  O
  O19      1.0000 0.98010  0.89730  0.52210  Biso   1.000  O
  O20      1.0000 0.01990  0.10270  0.47790  Biso   1.000  O
  O21      1.0000 0.55260  0.92600  0.92470  Biso   1.000  O
  O22      1.0000 0.44740  0.07400  0.07530  Biso   1.000  O
  H17      1.0000 0.52070  0.90890  0.85050  Biso   1.000  H
  H18      1.0000 0.47930  0.09110  0.14950  Biso   1.000  H
  N1       1.0000 0.87840  0.00770  0.20550  Biso   1.000  N
  N2       1.0000 0.12160  0.99230  0.79450  Biso   1.000  N
  N3       1.0000 0.73590  0.59710  0.53310  Biso   1.000  N
  N4       1.0000 0.26410  0.40290  0.46690  Biso   1.000  N
  C1       1.0000 0.44160  0.43710  0.27830  Biso   1.000  C
  C2       1.0000 0.55840  0.56290  0.72170  Biso   1.000  C
  C3       1.0000 0.37680  0.41880  0.14220  Biso   1.000  C
  C4       1.0000 0.62320  0.58120  0.85780  Biso   1.000  C
  H19      1.0000 0.25960  0.37230  0.10950  Biso   1.000  H
  H20      1.0000 0.74040  0.62770  0.89050  Biso   1.000  H
  H21      1.0000 0.38710  0.49770  0.11690  Biso   1.000  H
  H22      1.0000 0.61290  0.50230  0.88310  Biso   1.000  H
  C5       1.0000 0.62440  0.42310  0.11450  Biso   1.000  C
  C6       1.0000 0.37560  0.57690  0.88550  Biso   1.000  C
  C7       1.0000 0.70920  0.36060  0.07220  Biso   1.000  C
  C8       1.0000 0.29080  0.63940  0.92780  Biso   1.000  C
  H23      1.0000 0.65860  0.27930  0.03550  Biso   1.000  H
  H24      1.0000 0.34140  0.72070  0.96450  Biso   1.000  H
  C9       1.0000 0.86890  0.42020  0.08490  Biso   1.000  C
  C10      1.0000 0.13110  0.57980  0.91510  Biso   1.000  C
  H25      1.0000 0.92630  0.37860  0.05630  Biso   1.000  H
  H26      1.0000 0.07370  0.62140  0.94370  Biso   1.000  H
  C11      1.0000 0.94610  0.54140  0.13990  Biso   1.000  C
  C12      1.0000 0.05390  0.45860  0.86010  Biso   1.000  C
  H27      1.0000 0.05410  0.58120  0.14770  Biso   1.000  H
  H28      1.0000 0.94590  0.41880  0.85230  Biso   1.000  H
  C13      1.0000 0.86040  0.60260  0.18310  Biso   1.000  C
  C14      1.0000 0.13960  0.39740  0.81690  Biso   1.000  C
  C15      1.0000 0.69950  0.54390  0.17070  Biso   1.000  C
  C16      1.0000 0.30050  0.45610  0.82930  Biso   1.000  C
  H29      1.0000 0.64210  0.58510  0.19970  Biso   1.000  H
  H30      1.0000 0.35790  0.41490  0.80030  Biso   1.000  H
  C17      1.0000 0.94080  0.73400  0.24440  Biso   1.000  C
  C18      1.0000 0.05920  0.26600  0.75560  Biso   1.000  C
  C19      1.0000 0.73120  0.94960  0.11780  Biso   1.000  C
  C20      1.0000 0.26880  0.05040  0.88220  Biso   1.000  C
  H31      1.0000 0.65300  0.89120  0.13480  Biso   1.000  H
  H32      1.0000 0.34700  0.10880  0.86520  Biso   1.000  H
  C21      1.0000 0.69240  0.97460  0.00200  Biso   1.000  C
  C22      1.0000 0.30760  0.02540  0.99800  Biso   1.000  C
  C23      1.0000 0.80270  0.05690  0.97340  Biso   1.000  C
  C24      1.0000 0.19730  0.94310  0.02660  Biso   1.000  C
  H33      1.0000 0.77730  0.07190  0.89500  Biso   1.000  H
  H34      1.0000 0.22270  0.92810  0.10500  Biso   1.000  H
  C25      1.0000 0.95230  0.11760  0.06210  Biso   1.000  C
  C26      1.0000 0.04770  0.88240  0.93790  Biso   1.000  C
  H35      1.0000 0.03040  0.17650  0.04520  Biso   1.000  H
  H36      1.0000 0.96960  0.82350  0.95480  Biso   1.000  H
  C27      1.0000 0.98920  0.09160  0.17910  Biso   1.000  C
  C28      1.0000 0.01080  0.90840  0.82090  Biso   1.000  C
  H37      1.0000 0.09220  0.13330  0.23950  Biso   1.000  H
  H38      1.0000 0.90780  0.86670  0.76050  Biso   1.000  H
  C29      1.0000 0.94260  0.78170  0.54180  Biso   1.000  C
  C30      1.0000 0.05740  0.21830  0.45820  Biso   1.000  C
  C31      1.0000 0.06500  0.72780  0.59110  Biso   1.000  C
  C32      1.0000 0.93500  0.27220  0.40890  Biso   1.000  C
  H39      1.0000 0.17620  0.77120  0.61110  Biso   1.000  H
  H40      1.0000 0.82380  0.22880  0.38890  Biso   1.000  H
  C33      1.0000 0.02060  0.60880  0.61030  Biso   1.000  C
  C34      1.0000 0.97940  0.39120  0.38970  Biso   1.000  C
  H41      1.0000 0.10150  0.57130  0.64300  Biso   1.000  H
  H42      1.0000 0.89850  0.42870  0.35700  Biso   1.000  H
  C35      1.0000 0.85540  0.54670  0.58040  Biso   1.000  C
  C36      1.0000 0.14460  0.45330  0.41960  Biso   1.000  C
  H43      1.0000 0.82620  0.46680  0.59360  Biso   1.000  H
  H44      1.0000 0.17380  0.53320  0.40640  Biso   1.000  H
  C37      1.0000 0.77850  0.71240  0.51360  Biso   1.000  C
  C38      1.0000 0.22150  0.28760  0.48640  Biso   1.000  C
  H45      1.0000 0.69490  0.74740  0.47990  Biso   1.000  H
  H46      1.0000 0.30510  0.25260  0.52010  Biso   1.000  H
