data_image0
_cell_length_a       6.4852
_cell_length_b       14.3549
_cell_length_c       15.7193
_cell_angle_alpha    90
_cell_angle_beta     90
_cell_angle_gamma    90

_symmetry_space_group_name_H-M    "P 1"
_symmetry_int_tables_number       1

loop_
  _symmetry_equiv_pos_as_xyz
  'x, y, z'

loop_
  _atom_site_label
  _atom_site_occupancy
  _atom_site_fract_x
  _atom_site_fract_y
  _atom_site_fract_z
  _atom_site_thermal_displace_type
  _atom_site_B_iso_or_equiv
  _atom_site_type_symbol
  Cu1      1.0000 0.87842  0.68349  0.61394  Biso   1.000  Cu
  Cu2      1.0000 0.62158  0.31651  0.11394  Biso   1.000  Cu
  Cu3      1.0000 0.37842  0.81651  0.38606  Biso   1.000  Cu
  Cu4      1.0000 0.12158  0.18349  0.88606  Biso   1.000  Cu
  O1       1.0000 0.02650  0.74280  0.51760  Biso   1.000  O
  O2       1.0000 0.47350  0.25720  0.01760  Biso   1.000  O
  O3       1.0000 0.52650  0.75720  0.48240  Biso   1.000  O
  O4       1.0000 0.97350  0.24280  0.98240  Biso   1.000  O
  O5       1.0000 0.16900  0.87020  0.46330  Biso   1.000  O
  O6       1.0000 0.33100  0.12980  0.96330  Biso   1.000  O
  O7       1.0000 0.66900  0.62980  0.53670  Biso   1.000  O
  O8       1.0000 0.83100  0.37020  0.03670  Biso   1.000  O
  O9       1.0000 0.74620  0.84320  0.60630  Biso   1.000  O
  O10      1.0000 0.75380  0.15680  0.10630  Biso   1.000  O
  O11      1.0000 0.24620  0.65680  0.39370  Biso   1.000  O
  O12      1.0000 0.25380  0.34320  0.89370  Biso   1.000  O
  H1       1.0000 0.66100  0.83400  0.56800  Biso   1.000  H
  H2       1.0000 0.83900  0.16600  0.06800  Biso   1.000  H
  H3       1.0000 0.16100  0.66600  0.43200  Biso   1.000  H
  H4       1.0000 0.33900  0.33400  0.93200  Biso   1.000  H
  C1       1.0000 0.04580  0.83030  0.51170  Biso   1.000  C
  C2       1.0000 0.45420  0.16970  0.01170  Biso   1.000  C
  C3       1.0000 0.54580  0.66970  0.48830  Biso   1.000  C
  C4       1.0000 0.95420  0.33030  0.98830  Biso   1.000  C
  C5       1.0000 0.90900  0.89200  0.56690  Biso   1.000  C
  C6       1.0000 0.59100  0.10800  0.06690  Biso   1.000  C
  C7       1.0000 0.40900  0.60800  0.43310  Biso   1.000  C
  C8       1.0000 0.09100  0.39200  0.93310  Biso   1.000  C
  H5       1.0000 0.99317  0.92100  0.61044  Biso   1.000  H
  H6       1.0000 0.50683  0.07900  0.11044  Biso   1.000  H
  H7       1.0000 0.49317  0.57900  0.38956  Biso   1.000  H
  H8       1.0000 0.00683  0.42100  0.88956  Biso   1.000  H
  H9       1.0000 0.85156  0.94117  0.53182  Biso   1.000  H
  H10      1.0000 0.64844  0.05883  0.03182  Biso   1.000  H
  H11      1.0000 0.35156  0.55883  0.46818  Biso   1.000  H
  H12      1.0000 0.14844  0.44117  0.96818  Biso   1.000  H
  N1       1.0000 0.09110  0.72430  0.70040  Biso   1.000  N
  N2       1.0000 0.40890  0.27570  0.20040  Biso   1.000  N
  N3       1.0000 0.59110  0.77570  0.29960  Biso   1.000  N
  N4       1.0000 0.90890  0.22430  0.79960  Biso   1.000  N
  N5       1.0000 0.74610  0.62570  0.71510  Biso   1.000  N
  N6       1.0000 0.75390  0.37430  0.21510  Biso   1.000  N
  N7       1.0000 0.24610  0.87430  0.28490  Biso   1.000  N
  N8       1.0000 0.25390  0.12570  0.78490  Biso   1.000  N
  C9       1.0000 0.26670  0.77070  0.69060  Biso   1.000  C
  C10      1.0000 0.23330  0.22930  0.19060  Biso   1.000  C
  C11      1.0000 0.76670  0.72930  0.30940  Biso   1.000  C
  C12      1.0000 0.73330  0.27070  0.80940  Biso   1.000  C
  H13      1.0000 0.30361  0.79056  0.63643  Biso   1.000  H
  H14      1.0000 0.19639  0.20944  0.13643  Biso   1.000  H
  H15      1.0000 0.80361  0.70944  0.36357  Biso   1.000  H
  H16      1.0000 0.69639  0.29056  0.86357  Biso   1.000  H
  C13      1.0000 0.39790  0.79080  0.75860  Biso   1.000  C
  C14      1.0000 0.10210  0.20920  0.25860  Biso   1.000  C
  C15      1.0000 0.89790  0.70920  0.24140  Biso   1.000  C
  C16      1.0000 0.60210  0.29080  0.74140  Biso   1.000  C
  H17      1.0000 0.51988  0.82328  0.74930  Biso   1.000  H
  H18      1.0000 0.98012  0.17672  0.24930  Biso   1.000  H
  H19      1.0000 0.01988  0.67672  0.25070  Biso   1.000  H
  H20      1.0000 0.48012  0.32328  0.75070  Biso   1.000  H
  C17      1.0000 0.34610  0.76230  0.83890  Biso   1.000  C
  C18      1.0000 0.15390  0.23770  0.33890  Biso   1.000  C
  C19      1.0000 0.84610  0.73770  0.16110  Biso   1.000  C
  C20      1.0000 0.65390  0.26230  0.66110  Biso   1.000  C
  H21      1.0000 0.43123  0.77633  0.88474  Biso   1.000  H
  H22      1.0000 0.06877  0.22367  0.38474  Biso   1.000  H
  H23      1.0000 0.93123  0.72367  0.11526  Biso   1.000  H
  H24      1.0000 0.56877  0.27633  0.61526  Biso   1.000  H
  C21      1.0000 0.16220  0.71150  0.85130  Biso   1.000  C
  C22      1.0000 0.33780  0.28850  0.35130  Biso   1.000  C
  C23      1.0000 0.66220  0.78850  0.14870  Biso   1.000  C
  C24      1.0000 0.83780  0.21150  0.64870  Biso   1.000  C
  C25      1.0000 0.03900  0.69450  0.77970  Biso   1.000  C
  C26      1.0000 0.46100  0.30550  0.27970  Biso   1.000  C
  C27      1.0000 0.53900  0.80550  0.22030  Biso   1.000  C
  C28      1.0000 0.96100  0.19450  0.72030  Biso   1.000  C
  C29      1.0000 0.09820  0.67560  0.93220  Biso   1.000  C
  C30      1.0000 0.40180  0.32440  0.43220  Biso   1.000  C
  C31      1.0000 0.59820  0.82440  0.06780  Biso   1.000  C
  C32      1.0000 0.90180  0.17560  0.56780  Biso   1.000  C
  H25      1.0000 0.17744  0.68744  0.98027  Biso   1.000  H
  H26      1.0000 0.32256  0.31256  0.48027  Biso   1.000  H
  H27      1.0000 0.67744  0.81256  0.01973  Biso   1.000  H
  H28      1.0000 0.82256  0.18744  0.51973  Biso   1.000  H
  C33      1.0000 0.92240  0.62410  0.93930  Biso   1.000  C
  C34      1.0000 0.57760  0.37590  0.43930  Biso   1.000  C
  C35      1.0000 0.42240  0.87590  0.06070  Biso   1.000  C
  C36      1.0000 0.07760  0.12410  0.56070  Biso   1.000  C
  H29      1.0000 0.88424  0.60095  0.99227  Biso   1.000  H
  H30      1.0000 0.61576  0.39905  0.49227  Biso   1.000  H
  H31      1.0000 0.38424  0.89905  0.00773  Biso   1.000  H
  H32      1.0000 0.11576  0.10095  0.50773  Biso   1.000  H
  C37      1.0000 0.79530  0.60490  0.86690  Biso   1.000  C
  C38      1.0000 0.70470  0.39510  0.36690  Biso   1.000  C
  C39      1.0000 0.29530  0.89510  0.13310  Biso   1.000  C
  C40      1.0000 0.20470  0.10490  0.63310  Biso   1.000  C
  C41      1.0000 0.85460  0.64150  0.78720  Biso   1.000  C
  C42      1.0000 0.64540  0.35850  0.28720  Biso   1.000  C
  C43      1.0000 0.35460  0.85850  0.21280  Biso   1.000  C
  C44      1.0000 0.14540  0.14150  0.71280  Biso   1.000  C
  C45      1.0000 0.61730  0.54940  0.86860  Biso   1.000  C
  C46      1.0000 0.88270  0.45060  0.36860  Biso   1.000  C
  C47      1.0000 0.11730  0.95060  0.13140  Biso   1.000  C
  C48      1.0000 0.38270  0.04940  0.63140  Biso   1.000  C
  H33      1.0000 0.57149  0.52382  0.91961  Biso   1.000  H
  H34      1.0000 0.92851  0.47618  0.41961  Biso   1.000  H
  H35      1.0000 0.07149  0.97618  0.08039  Biso   1.000  H
  H36      1.0000 0.42851  0.02382  0.58039  Biso   1.000  H
  C49      1.0000 0.51100  0.53310  0.79440  Biso   1.000  C
  C50      1.0000 0.98900  0.46690  0.29440  Biso   1.000  C
  C51      1.0000 0.01100  0.96690  0.20560  Biso   1.000  C
  C52      1.0000 0.48900  0.03310  0.70560  Biso   1.000  C
  H37      1.0000 0.39347  0.49596  0.79492  Biso   1.000  H
  H38      1.0000 0.10653  0.50404  0.29492  Biso   1.000  H
  H39      1.0000 0.89347  0.00404  0.20508  Biso   1.000  H
  H40      1.0000 0.60653  0.99596  0.70508  Biso   1.000  H
  C53      1.0000 0.57940  0.57210  0.71840  Biso   1.000  C
  C54      1.0000 0.92060  0.42790  0.21840  Biso   1.000  C
  C55      1.0000 0.07940  0.92790  0.28160  Biso   1.000  C
  C56      1.0000 0.42060  0.07210  0.78160  Biso   1.000  C
  H41      1.0000 0.50655  0.56024  0.66857  Biso   1.000  H
  H42      1.0000 0.99345  0.43976  0.16857  Biso   1.000  H
  H43      1.0000 0.00655  0.93976  0.33143  Biso   1.000  H
  H44      1.0000 0.49345  0.06024  0.83143  Biso   1.000  H
  Cl1      1.0000 0.09570  0.45346  0.62550  Biso   1.000  Cl
  Cl2      1.0000 0.40430  0.54654  0.12550  Biso   1.000  Cl
  Cl3      1.0000 0.59570  0.04654  0.37450  Biso   1.000  Cl
  Cl4      1.0000 0.90430  0.95346  0.87450  Biso   1.000  Cl
  O13      1.0000 0.11260  0.54850  0.59560  Biso   1.000  O
  O14      1.0000 0.38740  0.45150  0.09560  Biso   1.000  O
  O15      1.0000 0.61260  0.95150  0.40440  Biso   1.000  O
  O16      1.0000 0.88740  0.04850  0.90440  Biso   1.000  O
  O17      1.0000 0.29720  0.41210  0.61820  Biso   1.000  O
  O18      1.0000 0.20280  0.58790  0.11820  Biso   1.000  O
  O19      1.0000 0.79720  0.08790  0.38180  Biso   1.000  O
  O20      1.0000 0.70280  0.91210  0.88180  Biso   1.000  O
  O21      1.0000 0.03470  0.45280  0.71200  Biso   1.000  O
  O22      1.0000 0.46530  0.54720  0.21200  Biso   1.000  O
  O23      1.0000 0.53470  0.04720  0.28800  Biso   1.000  O
  O24      1.0000 0.96530  0.95280  0.78800  Biso   1.000  O
  O25      1.0000 0.95540  0.40590  0.57350  Biso   1.000  O
  O26      1.0000 0.54460  0.59410  0.07350  Biso   1.000  O
  O27      1.0000 0.45540  0.09410  0.42650  Biso   1.000  O
  O28      1.0000 0.04460  0.90590  0.92650  Biso   1.000  O
