data_image0
_cell_length_a       10.3927
_cell_length_b       7.2489
_cell_length_c       11.146
_cell_angle_alpha    90
_cell_angle_beta     116.46
_cell_angle_gamma    90

_symmetry_space_group_name_H-M    "P 1"
_symmetry_int_tables_number       1

loop_
  _symmetry_equiv_pos_as_xyz
  'x, y, z'

loop_
  _atom_site_label
  _atom_site_occupancy
  _atom_site_fract_x
  _atom_site_fract_y
  _atom_site_fract_z
  _atom_site_thermal_displace_type
  _atom_site_B_iso_or_equiv
  _atom_site_type_symbol
  Cu1      1.0000 0.93352  0.02632  0.63086  Biso   1.000  Cu
  Cu2      1.0000 0.06648  0.52632  0.36914  Biso   1.000  Cu
  N1       1.0000 0.76510  0.17400  0.62270  Biso   1.000  N
  N2       1.0000 0.23490  0.67400  0.37730  Biso   1.000  N
  N3       1.0000 0.76700  0.02630  0.81270  Biso   1.000  N
  N4       1.0000 0.23300  0.52630  0.18730  Biso   1.000  N
  H1       1.0000 0.75636  0.04852  0.88352  Biso   1.000  H
  H2       1.0000 0.24364  0.54852  0.11648  Biso   1.000  H
  N5       1.0000 0.89980  0.83190  0.73640  Biso   1.000  N
  N6       1.0000 0.10020  0.33190  0.26360  Biso   1.000  N
  C1       1.0000 0.70600  0.30470  0.52650  Biso   1.000  C
  C2       1.0000 0.29400  0.80470  0.47350  Biso   1.000  C
  H3       1.0000 0.73513  0.31028  0.45886  Biso   1.000  H
  H4       1.0000 0.26487  0.81028  0.54114  Biso   1.000  H
  C3       1.0000 0.60640  0.42780  0.52400  Biso   1.000  C
  C4       1.0000 0.39360  0.92780  0.47600  Biso   1.000  C
  H5       1.0000 0.56910  0.51642  0.45683  Biso   1.000  H
  H6       1.0000 0.43090  0.01642  0.54317  Biso   1.000  H
  C5       1.0000 0.56130  0.41890  0.62370  Biso   1.000  C
  C6       1.0000 0.43870  0.91890  0.37630  Biso   1.000  C
  H7       1.0000 0.49466  0.50346  0.62508  Biso   1.000  H
  H8       1.0000 0.50534  0.00346  0.37492  Biso   1.000  H
  C7       1.0000 0.61440  0.28690  0.71880  Biso   1.000  C
  C8       1.0000 0.38560  0.78690  0.28120  Biso   1.000  C
  H9       1.0000 0.58367  0.27867  0.78522  Biso   1.000  H
  H10      1.0000 0.41633  0.77867  0.21478  Biso   1.000  H
  C9       1.0000 0.71690  0.16170  0.71640  Biso   1.000  C
  C10      1.0000 0.28310  0.66170  0.28360  Biso   1.000  C
  C11      1.0000 0.83180  0.85960  0.81280  Biso   1.000  C
  C12      1.0000 0.16820  0.35960  0.18720  Biso   1.000  C
  C13      1.0000 0.82880  0.72040  0.90000  Biso   1.000  C
  C14      1.0000 0.17120  0.22040  0.10000  Biso   1.000  C
  H11      1.0000 0.78363  0.74164  0.95433  Biso   1.000  H
  H12      1.0000 0.21637  0.24164  0.04567  Biso   1.000  H
  C15      1.0000 0.89260  0.55410  0.90410  Biso   1.000  C
  C16      1.0000 0.10740  0.05410  0.09590  Biso   1.000  C
  H13      1.0000 0.88979  0.46052  0.95998  Biso   1.000  H
  H14      1.0000 0.11021  0.96052  0.04002  Biso   1.000  H
  C17      1.0000 0.96120  0.52680  0.82400  Biso   1.000  C
  C18      1.0000 0.03880  0.02680  0.17600  Biso   1.000  C
  H15      1.0000 0.00626  0.41511  0.82621  Biso   1.000  H
  H16      1.0000 0.99374  0.91511  0.17379  Biso   1.000  H
  C19      1.0000 0.96210  0.66480  0.74240  Biso   1.000  C
  C20      1.0000 0.03790  0.16480  0.25760  Biso   1.000  C
  H17      1.0000 0.00733  0.64437  0.68800  Biso   1.000  H
  H18      1.0000 0.99267  0.14437  0.31200  Biso   1.000  H
  O1       1.0000 0.99410  0.21800  0.54390  Biso   1.000  O
  O2       1.0000 0.00590  0.71800  0.45610  Biso   1.000  O
  O3       1.0000 0.17820  0.38420  0.55470  Biso   1.000  O
  O4       1.0000 0.82180  0.88420  0.44530  Biso   1.000  O
  O5       1.0000 0.14510  0.03630  0.75890  Biso   1.000  O
  O6       1.0000 0.85490  0.53630  0.24110  Biso   1.000  O
  H19      1.0000 0.18700  0.95970  0.83333  Biso   1.000  H
  H20      1.0000 0.81300  0.45970  0.16667  Biso   1.000  H
  C21      1.0000 0.12490  0.26550  0.59880  Biso   1.000  C
  C22      1.0000 0.87510  0.76550  0.40120  Biso   1.000  C
  C23      1.0000 0.22450  0.16820  0.72670  Biso   1.000  C
  C24      1.0000 0.77550  0.66820  0.27330  Biso   1.000  C
  H21      1.0000 0.30136  0.10795  0.71474  Biso   1.000  H
  H22      1.0000 0.69864  0.60795  0.28526  Biso   1.000  H
  H23      1.0000 0.26705  0.25696  0.79895  Biso   1.000  H
  H24      1.0000 0.73295  0.75696  0.20105  Biso   1.000  H
  O7       1.0000 0.65140  0.01930  0.99480  Biso   1.000  O
  O8       1.0000 0.34860  0.51930  0.00520  Biso   1.000  O
  O9       1.0000 0.71850  0.30810  0.05560  Biso   1.000  O
  O10      1.0000 0.28150  0.80810  0.94440  Biso   1.000  O
  O11      1.0000 0.56290  0.31890  0.20260  Biso   1.000  O
  O12      1.0000 0.43710  0.81890  0.79740  Biso   1.000  O
  H25      1.0000 0.50499  0.38355  0.14242  Biso   1.000  H
  H26      1.0000 0.49501  0.88355  0.85758  Biso   1.000  H
  C25      1.0000 0.65630  0.16300  0.06010  Biso   1.000  C
  C26      1.0000 0.34370  0.66300  0.93990  Biso   1.000  C
  C27      1.0000 0.58050  0.15070  0.14870  Biso   1.000  C
  C28      1.0000 0.41950  0.65070  0.85130  Biso   1.000  C
  H27      1.0000 0.48630  0.09670  0.09684  Biso   1.000  H
  H28      1.0000 0.51370  0.59670  0.90316  Biso   1.000  H
  H29      1.0000 0.63424  0.06722  0.22210  Biso   1.000  H
  H30      1.0000 0.36576  0.56722  0.77790  Biso   1.000  H
