data_image0
_cell_length_a       6.5406
_cell_length_b       14.063
_cell_length_c       15.063
_cell_angle_alpha    90
_cell_angle_beta     90
_cell_angle_gamma    90

_symmetry_space_group_name_H-M    "P 1"
_symmetry_int_tables_number       1

loop_
  _symmetry_equiv_pos_as_xyz
  'x, y, z'

loop_
  _atom_site_label
  _atom_site_occupancy
  _atom_site_fract_x
  _atom_site_fract_y
  _atom_site_fract_z
  _atom_site_thermal_displace_type
  _atom_site_B_iso_or_equiv
  _atom_site_type_symbol
  Cu1      1.0000 0.90311  0.83256  0.38770  Biso   1.000  Cu
  Cu2      1.0000 0.59689  0.16744  0.88770  Biso   1.000  Cu
  Cu3      1.0000 0.40311  0.66744  0.61230  Biso   1.000  Cu
  Cu4      1.0000 0.09689  0.33256  0.11230  Biso   1.000  Cu
  Cl1      1.0000 0.10361  0.06803  0.40093  Biso   1.000  Cl
  Cl2      1.0000 0.39639  0.93197  0.90093  Biso   1.000  Cl
  Cl3      1.0000 0.60361  0.43197  0.59907  Biso   1.000  Cl
  Cl4      1.0000 0.89639  0.56803  0.09907  Biso   1.000  Cl
  O1       1.0000 0.12140  0.96934  0.42558  Biso   1.000  O
  O2       1.0000 0.37860  0.03066  0.92558  Biso   1.000  O
  O3       1.0000 0.62140  0.53066  0.57442  Biso   1.000  O
  O4       1.0000 0.87860  0.46934  0.07442  Biso   1.000  O
  O5       1.0000 0.29450  0.11090  0.42100  Biso   1.000  O
  O6       1.0000 0.20550  0.88910  0.92100  Biso   1.000  O
  O7       1.0000 0.79450  0.38910  0.57900  Biso   1.000  O
  O8       1.0000 0.70550  0.61090  0.07900  Biso   1.000  O
  O9       1.0000 0.94740  0.10970  0.45050  Biso   1.000  O
  O10      1.0000 0.55260  0.89030  0.95050  Biso   1.000  O
  O11      1.0000 0.44740  0.39030  0.54950  Biso   1.000  O
  O12      1.0000 0.05260  0.60970  0.04950  Biso   1.000  O
  O13      1.0000 0.06270  0.07610  0.30832  Biso   1.000  O
  O14      1.0000 0.43730  0.92390  0.80832  Biso   1.000  O
  O15      1.0000 0.56270  0.42390  0.69168  Biso   1.000  O
  O16      1.0000 0.93730  0.57610  0.19168  Biso   1.000  O
  O17      1.0000 0.05520  0.76154  0.47987  Biso   1.000  O
  O18      1.0000 0.44480  0.23846  0.97987  Biso   1.000  O
  O19      1.0000 0.55520  0.73846  0.52013  Biso   1.000  O
  O20      1.0000 0.94480  0.26154  0.02013  Biso   1.000  O
  O21      1.0000 0.19600  0.62519  0.52403  Biso   1.000  O
  O22      1.0000 0.30400  0.37481  0.02403  Biso   1.000  O
  O23      1.0000 0.69600  0.87481  0.47597  Biso   1.000  O
  O24      1.0000 0.80400  0.12519  0.97597  Biso   1.000  O
  O25      1.0000 0.77120  0.66994  0.38130  Biso   1.000  O
  O26      1.0000 0.72880  0.33006  0.88130  Biso   1.000  O
  O27      1.0000 0.27120  0.83006  0.61870  Biso   1.000  O
  O28      1.0000 0.22880  0.16994  0.11870  Biso   1.000  O
  H1       1.0000 0.69600  0.67100  0.42000  Biso   1.000  H
  H2       1.0000 0.80400  0.32900  0.92000  Biso   1.000  H
  H3       1.0000 0.19600  0.82900  0.58000  Biso   1.000  H
  H4       1.0000 0.30400  0.17100  0.08000  Biso   1.000  H
  N1       1.0000 0.76110  0.89799  0.28958  Biso   1.000  N
  N2       1.0000 0.73890  0.10201  0.78958  Biso   1.000  N
  N3       1.0000 0.26110  0.60201  0.71042  Biso   1.000  N
  N4       1.0000 0.23890  0.39799  0.21042  Biso   1.000  N
  N5       1.0000 0.10220  0.80167  0.29040  Biso   1.000  N
  N6       1.0000 0.39780  0.19833  0.79040  Biso   1.000  N
  N7       1.0000 0.60220  0.69833  0.70960  Biso   1.000  N
  N8       1.0000 0.89780  0.30167  0.20960  Biso   1.000  N
  C1       1.0000 0.59320  0.95110  0.29670  Biso   1.000  C
  C2       1.0000 0.90680  0.04890  0.79670  Biso   1.000  C
  C3       1.0000 0.09320  0.54890  0.70330  Biso   1.000  C
  C4       1.0000 0.40680  0.45110  0.20330  Biso   1.000  C
  H5       1.0000 0.53592  0.96036  0.35253  Biso   1.000  H
  H6       1.0000 0.96408  0.03964  0.85253  Biso   1.000  H
  H7       1.0000 0.03592  0.53964  0.64747  Biso   1.000  H
  H8       1.0000 0.46408  0.46036  0.14747  Biso   1.000  H
  C5       1.0000 0.50120  0.99300  0.22390  Biso   1.000  C
  C6       1.0000 0.99880  0.00700  0.72390  Biso   1.000  C
  C7       1.0000 0.00120  0.50700  0.77610  Biso   1.000  C
  C8       1.0000 0.49880  0.49300  0.27610  Biso   1.000  C
  H9       1.0000 0.38496  0.03049  0.23046  Biso   1.000  H
  H10      1.0000 0.11504  0.96951  0.73046  Biso   1.000  H
  H11      1.0000 0.88496  0.46951  0.76954  Biso   1.000  H
  H12      1.0000 0.61504  0.53049  0.26954  Biso   1.000  H
  C9       1.0000 0.58610  0.97790  0.14120  Biso   1.000  C
  C10      1.0000 0.91390  0.02210  0.64120  Biso   1.000  C
  C11      1.0000 0.08610  0.52210  0.85880  Biso   1.000  C
  C12      1.0000 0.41390  0.47790  0.35880  Biso   1.000  C
  H13      1.0000 0.52665  0.00500  0.09116  Biso   1.000  H
  H14      1.0000 0.97335  0.99500  0.59116  Biso   1.000  H
  H15      1.0000 0.02665  0.49500  0.90884  Biso   1.000  H
  H16      1.0000 0.47335  0.50500  0.40884  Biso   1.000  H
  C13      1.0000 0.75920  0.92250  0.13280  Biso   1.000  C
  C14      1.0000 0.74080  0.07750  0.63280  Biso   1.000  C
  C15      1.0000 0.25920  0.57750  0.86720  Biso   1.000  C
  C16      1.0000 0.24080  0.42250  0.36720  Biso   1.000  C
  H17      1.0000 0.81634  0.91103  0.07728  Biso   1.000  H
  H18      1.0000 0.68366  0.08897  0.57728  Biso   1.000  H
  H19      1.0000 0.31634  0.58897  0.92272  Biso   1.000  H
  H20      1.0000 0.18366  0.41103  0.42272  Biso   1.000  H
  C17      1.0000 0.84610  0.88440  0.20890  Biso   1.000  C
  C18      1.0000 0.65390  0.11560  0.70890  Biso   1.000  C
  C19      1.0000 0.34610  0.61560  0.79110  Biso   1.000  C
  C20      1.0000 0.15390  0.38440  0.29110  Biso   1.000  C
  C21      1.0000 0.04010  0.82980  0.20940  Biso   1.000  C
  C22      1.0000 0.45990  0.17020  0.70940  Biso   1.000  C
  C23      1.0000 0.54010  0.67020  0.79060  Biso   1.000  C
  C24      1.0000 0.95990  0.32980  0.29060  Biso   1.000  C
  C25      1.0000 0.15380  0.81080  0.13390  Biso   1.000  C
  C26      1.0000 0.34620  0.18920  0.63390  Biso   1.000  C
  C27      1.0000 0.65380  0.68920  0.86610  Biso   1.000  C
  C28      1.0000 0.84620  0.31080  0.36610  Biso   1.000  C
  H21      1.0000 0.10756  0.83064  0.07853  Biso   1.000  H
  H22      1.0000 0.39244  0.16936  0.57853  Biso   1.000  H
  H23      1.0000 0.60756  0.66936  0.92147  Biso   1.000  H
  H24      1.0000 0.89244  0.33064  0.42147  Biso   1.000  H
  C29      1.0000 0.33690  0.76220  0.14160  Biso   1.000  C
  C30      1.0000 0.16310  0.23780  0.64160  Biso   1.000  C
  C31      1.0000 0.83690  0.73780  0.85840  Biso   1.000  C
  C32      1.0000 0.66310  0.26220  0.35840  Biso   1.000  C
  H25      1.0000 0.41428  0.74810  0.09152  Biso   1.000  H
  H26      1.0000 0.08572  0.25190  0.59152  Biso   1.000  H
  H27      1.0000 0.91428  0.75190  0.90848  Biso   1.000  H
  H28      1.0000 0.58572  0.24810  0.40848  Biso   1.000  H
  C33      1.0000 0.40270  0.73490  0.22510  Biso   1.000  C
  C34      1.0000 0.09730  0.26510  0.72510  Biso   1.000  C
  C35      1.0000 0.90270  0.76510  0.77490  Biso   1.000  C
  C36      1.0000 0.59730  0.23490  0.27490  Biso   1.000  C
  H29      1.0000 0.52597  0.70282  0.23231  Biso   1.000  H
  H30      1.0000 0.97403  0.29718  0.73231  Biso   1.000  H
  H31      1.0000 0.02597  0.79718  0.76769  Biso   1.000  H
  H32      1.0000 0.47403  0.20282  0.26769  Biso   1.000  H
  C37      1.0000 0.28210  0.75620  0.29740  Biso   1.000  C
  C38      1.0000 0.21790  0.24380  0.79740  Biso   1.000  C
  C39      1.0000 0.78210  0.74380  0.70260  Biso   1.000  C
  C40      1.0000 0.71790  0.25620  0.20260  Biso   1.000  C
  H33      1.0000 0.32721  0.73832  0.35349  Biso   1.000  H
  H34      1.0000 0.17279  0.26168  0.85349  Biso   1.000  H
  H35      1.0000 0.82721  0.76168  0.64651  Biso   1.000  H
  H36      1.0000 0.67279  0.23832  0.14651  Biso   1.000  H
  C41      1.0000 0.07170  0.67170  0.47810  Biso   1.000  C
  C42      1.0000 0.42830  0.32830  0.97810  Biso   1.000  C
  C43      1.0000 0.57170  0.82830  0.52190  Biso   1.000  C
  C44      1.0000 0.92830  0.17170  0.02190  Biso   1.000  C
  C45      1.0000 0.93470  0.61500  0.41600  Biso   1.000  C
  C46      1.0000 0.56530  0.38500  0.91600  Biso   1.000  C
  C47      1.0000 0.43470  0.88500  0.58400  Biso   1.000  C
  C48      1.0000 0.06530  0.11500  0.08400  Biso   1.000  C
  H37      1.0000 0.01616  0.59081  0.36716  Biso   1.000  H
  H38      1.0000 0.48384  0.40919  0.86716  Biso   1.000  H
  H39      1.0000 0.51616  0.90919  0.63284  Biso   1.000  H
  H40      1.0000 0.98384  0.09081  0.13284  Biso   1.000  H
  H41      1.0000 0.87907  0.56099  0.44786  Biso   1.000  H
  H42      1.0000 0.62093  0.43901  0.94786  Biso   1.000  H
  H43      1.0000 0.37907  0.93901  0.55214  Biso   1.000  H
  H44      1.0000 0.12093  0.06099  0.05214  Biso   1.000  H
