data_image0
_cell_length_a       13.128
_cell_length_b       8.7729
_cell_length_c       25.0767
_cell_angle_alpha    90
_cell_angle_beta     90.356
_cell_angle_gamma    90

_symmetry_space_group_name_H-M    "P 1"
_symmetry_int_tables_number       1

loop_
  _symmetry_equiv_pos_as_xyz
  'x, y, z'

loop_
  _atom_site_label
  _atom_site_occupancy
  _atom_site_fract_x
  _atom_site_fract_y
  _atom_site_fract_z
  _atom_site_thermal_displace_type
  _atom_site_B_iso_or_equiv
  _atom_site_type_symbol
  Cu1      1.0000 0.29653  0.13520  0.72644  Biso   1.000  Cu
  Cu2      1.0000 0.70347  0.63520  0.77356  Biso   1.000  Cu
  Cu3      1.0000 0.70347  0.86480  0.27356  Biso   1.000  Cu
  Cu4      1.0000 0.29653  0.36480  0.22644  Biso   1.000  Cu
  Cu5      1.0000 0.45230  0.35515  0.64331  Biso   1.000  Cu
  Cu6      1.0000 0.54770  0.85515  0.85669  Biso   1.000  Cu
  Cu7      1.0000 0.54770  0.64485  0.35669  Biso   1.000  Cu
  Cu8      1.0000 0.45230  0.14485  0.14331  Biso   1.000  Cu
  Cl1      1.0000 0.66947  0.09025  0.63416  Biso   1.000  Cl
  Cl2      1.0000 0.33053  0.59025  0.86584  Biso   1.000  Cl
  Cl3      1.0000 0.33053  0.90975  0.36584  Biso   1.000  Cl
  Cl4      1.0000 0.66947  0.40975  0.13416  Biso   1.000  Cl
  O1       1.0000 0.27652  0.22250  0.80850  Biso   1.000  O
  O2       1.0000 0.72348  0.72250  0.69150  Biso   1.000  O
  O3       1.0000 0.72348  0.77750  0.19150  Biso   1.000  O
  O4       1.0000 0.27652  0.27750  0.30850  Biso   1.000  O
  H1       1.0000 0.30800  0.29800  0.81980  Biso   1.000  H
  H2       1.0000 0.69200  0.79800  0.68020  Biso   1.000  H
  H3       1.0000 0.69200  0.70200  0.18020  Biso   1.000  H
  H4       1.0000 0.30800  0.20200  0.31980  Biso   1.000  H
  H5       1.0000 0.23300  0.20100  0.83190  Biso   1.000  H
  H6       1.0000 0.76700  0.70100  0.66810  Biso   1.000  H
  H7       1.0000 0.76700  0.79900  0.16810  Biso   1.000  H
  H8       1.0000 0.23300  0.29900  0.33190  Biso   1.000  H
  O5       1.0000 0.60300  0.20170  0.61166  Biso   1.000  O
  O6       1.0000 0.39700  0.70170  0.88834  Biso   1.000  O
  O7       1.0000 0.39700  0.79830  0.38834  Biso   1.000  O
  O8       1.0000 0.60300  0.29830  0.11166  Biso   1.000  O
  O9       1.0000 0.73300  0.02510  0.59489  Biso   1.000  O
  O10      1.0000 0.26700  0.52510  0.90511  Biso   1.000  O
  O11      1.0000 0.26700  0.97490  0.40511  Biso   1.000  O
  O12      1.0000 0.73300  0.47490  0.09489  Biso   1.000  O
  O13      1.0000 0.72700  0.15310  0.67771  Biso   1.000  O
  O14      1.0000 0.27300  0.65310  0.82229  Biso   1.000  O
  O15      1.0000 0.27300  0.84690  0.32229  Biso   1.000  O
  O16      1.0000 0.72700  0.34690  0.17771  Biso   1.000  O
  O17      1.0000 0.60565  0.97120  0.65682  Biso   1.000  O
  O18      1.0000 0.39435  0.47120  0.84318  Biso   1.000  O
  O19      1.0000 0.39435  0.02880  0.34318  Biso   1.000  O
  O20      1.0000 0.60565  0.52880  0.15682  Biso   1.000  O
  O21      1.0000 0.54451  0.46650  0.68989  Biso   1.000  O
  O22      1.0000 0.45549  0.96650  0.81011  Biso   1.000  O
  O23      1.0000 0.45549  0.53350  0.31011  Biso   1.000  O
  O24      1.0000 0.54451  0.03350  0.18989  Biso   1.000  O
  O25      1.0000 0.62702  0.44110  0.76772  Biso   1.000  O
  O26      1.0000 0.37298  0.94110  0.73228  Biso   1.000  O
  O27      1.0000 0.37298  0.55890  0.23228  Biso   1.000  O
  O28      1.0000 0.62702  0.05890  0.26772  Biso   1.000  O
  O29      1.0000 0.42149  0.24220  0.70754  Biso   1.000  O
  O30      1.0000 0.57851  0.74220  0.79246  Biso   1.000  O
  O31      1.0000 0.57851  0.75780  0.29246  Biso   1.000  O
  O32      1.0000 0.42149  0.25780  0.20754  Biso   1.000  O
  N1       1.0000 0.45468  0.51480  0.58719  Biso   1.000  N
  N2       1.0000 0.54532  0.01480  0.91281  Biso   1.000  N
  N3       1.0000 0.54532  0.48520  0.41281  Biso   1.000  N
  N4       1.0000 0.45468  0.98520  0.08719  Biso   1.000  N
  N5       1.0000 0.37205  0.21630  0.59774  Biso   1.000  N
  N6       1.0000 0.62795  0.71630  0.90226  Biso   1.000  N
  N7       1.0000 0.62795  0.78370  0.40226  Biso   1.000  N
  N8       1.0000 0.37205  0.28370  0.09774  Biso   1.000  N
  N9       1.0000 0.31690  0.40810  0.53825  Biso   1.000  N
  N10      1.0000 0.68310  0.90810  0.96175  Biso   1.000  N
  N11      1.0000 0.68310  0.59190  0.46175  Biso   1.000  N
  N12      1.0000 0.31690  0.09190  0.03825  Biso   1.000  N
  H9       1.0000 0.28100  0.42300  0.51080  Biso   1.000  H
  H10      1.0000 0.71900  0.92300  0.98920  Biso   1.000  H
  H11      1.0000 0.71900  0.57700  0.48920  Biso   1.000  H
  H12      1.0000 0.28100  0.07700  0.01080  Biso   1.000  H
  N13      1.0000 0.21587  0.30590  0.69373  Biso   1.000  N
  N14      1.0000 0.78413  0.80590  0.80627  Biso   1.000  N
  N15      1.0000 0.78413  0.69410  0.30627  Biso   1.000  N
  N16      1.0000 0.21587  0.19410  0.19373  Biso   1.000  N
  N17      1.0000 0.16912  0.01310  0.72751  Biso   1.000  N
  N18      1.0000 0.83088  0.51310  0.77249  Biso   1.000  N
  N19      1.0000 0.83088  0.98690  0.27249  Biso   1.000  N
  N20      1.0000 0.16912  0.48690  0.22751  Biso   1.000  N
  N21      1.0000 0.10156  0.13560  0.65137  Biso   1.000  N
  N22      1.0000 0.89844  0.63560  0.84863  Biso   1.000  N
  N23      1.0000 0.89844  0.86440  0.34863  Biso   1.000  N
  N24      1.0000 0.10156  0.36440  0.15137  Biso   1.000  N
  H13      1.0000 0.06000  0.12700  0.62540  Biso   1.000  H
  H14      1.0000 0.94000  0.62700  0.87460  Biso   1.000  H
  H15      1.0000 0.94000  0.87300  0.37460  Biso   1.000  H
  H16      1.0000 0.06000  0.37300  0.12540  Biso   1.000  H
  C1       1.0000 0.56260  0.39830  0.73353  Biso   1.000  C
  C2       1.0000 0.43740  0.89830  0.76647  Biso   1.000  C
  C3       1.0000 0.43740  0.60170  0.26647  Biso   1.000  C
  C4       1.0000 0.56260  0.10170  0.23353  Biso   1.000  C
  C5       1.0000 0.50250  0.25580  0.74503  Biso   1.000  C
  C6       1.0000 0.49750  0.75580  0.75497  Biso   1.000  C
  C7       1.0000 0.49750  0.74420  0.25497  Biso   1.000  C
  C8       1.0000 0.50250  0.24420  0.24503  Biso   1.000  C
  H17      1.0000 0.54748  0.16558  0.74268  Biso   1.000  H
  H18      1.0000 0.45252  0.66558  0.75732  Biso   1.000  H
  H19      1.0000 0.45252  0.83442  0.25732  Biso   1.000  H
  H20      1.0000 0.54748  0.33442  0.24268  Biso   1.000  H
  H21      1.0000 0.47467  0.26067  0.78160  Biso   1.000  H
  H22      1.0000 0.52533  0.76067  0.71840  Biso   1.000  H
  H23      1.0000 0.52533  0.73933  0.21840  Biso   1.000  H
  H24      1.0000 0.47467  0.23933  0.28160  Biso   1.000  H
  C9       1.0000 0.52520  0.62790  0.59124  Biso   1.000  C
  C10      1.0000 0.47480  0.12790  0.90876  Biso   1.000  C
  C11      1.0000 0.47480  0.37210  0.40876  Biso   1.000  C
  C12      1.0000 0.52520  0.87210  0.09124  Biso   1.000  C
  H25      1.0000 0.57238  0.62411  0.62008  Biso   1.000  H
  H26      1.0000 0.42762  0.12411  0.87992  Biso   1.000  H
  H27      1.0000 0.42762  0.37589  0.37992  Biso   1.000  H
  H28      1.0000 0.57238  0.87589  0.12008  Biso   1.000  H
  C13      1.0000 0.53200  0.74690  0.55612  Biso   1.000  C
  C14      1.0000 0.46800  0.24690  0.94388  Biso   1.000  C
  C15      1.0000 0.46800  0.25310  0.44388  Biso   1.000  C
  C16      1.0000 0.53200  0.75310  0.05612  Biso   1.000  C
  H29      1.0000 0.58315  0.82277  0.56021  Biso   1.000  H
  H30      1.0000 0.41685  0.32277  0.93979  Biso   1.000  H
  H31      1.0000 0.41685  0.17723  0.43979  Biso   1.000  H
  H32      1.0000 0.58315  0.67723  0.06021  Biso   1.000  H
  C17      1.0000 0.46190  0.75370  0.51415  Biso   1.000  C
  C18      1.0000 0.53810  0.25370  0.98585  Biso   1.000  C
  C19      1.0000 0.53810  0.24630  0.48585  Biso   1.000  C
  C20      1.0000 0.46190  0.74630  0.01415  Biso   1.000  C
  H33      1.0000 0.46361  0.83577  0.48947  Biso   1.000  H
  H34      1.0000 0.53639  0.33577  0.01053  Biso   1.000  H
  H35      1.0000 0.53639  0.16423  0.51053  Biso   1.000  H
  H36      1.0000 0.46361  0.66423  0.98947  Biso   1.000  H
  C21      1.0000 0.39050  0.64080  0.50890  Biso   1.000  C
  C22      1.0000 0.60950  0.14080  0.99110  Biso   1.000  C
  C23      1.0000 0.60950  0.35920  0.49110  Biso   1.000  C
  C24      1.0000 0.39050  0.85920  0.00890  Biso   1.000  C
  H37      1.0000 0.34239  0.64382  0.48049  Biso   1.000  H
  H38      1.0000 0.65761  0.14382  0.01951  Biso   1.000  H
  H39      1.0000 0.65761  0.35618  0.51951  Biso   1.000  H
  H40      1.0000 0.34239  0.85618  0.98049  Biso   1.000  H
  C25      1.0000 0.38910  0.52100  0.54572  Biso   1.000  C
  C26      1.0000 0.61090  0.02100  0.95428  Biso   1.000  C
  C27      1.0000 0.61090  0.47900  0.45428  Biso   1.000  C
  C28      1.0000 0.38910  0.97900  0.04572  Biso   1.000  C
  C29      1.0000 0.31450  0.25990  0.55628  Biso   1.000  C
  C30      1.0000 0.68550  0.75990  0.94372  Biso   1.000  C
  C31      1.0000 0.68550  0.74010  0.44372  Biso   1.000  C
  C32      1.0000 0.31450  0.24010  0.05628  Biso   1.000  C
  C33      1.0000 0.24920  0.15740  0.52957  Biso   1.000  C
  C34      1.0000 0.75080  0.65740  0.97043  Biso   1.000  C
  C35      1.0000 0.75080  0.84260  0.47043  Biso   1.000  C
  C36      1.0000 0.24920  0.34260  0.02957  Biso   1.000  C
  H41      1.0000 0.20789  0.19112  0.50067  Biso   1.000  H
  H42      1.0000 0.79211  0.69112  0.99933  Biso   1.000  H
  H43      1.0000 0.79211  0.80888  0.49933  Biso   1.000  H
  H44      1.0000 0.20789  0.30888  0.00067  Biso   1.000  H
  C37      1.0000 0.24620  0.00930  0.54573  Biso   1.000  C
  C38      1.0000 0.75380  0.50930  0.95427  Biso   1.000  C
  C39      1.0000 0.75380  0.99070  0.45427  Biso   1.000  C
  C40      1.0000 0.24620  0.49070  0.04573  Biso   1.000  C
  H45      1.0000 0.20214  0.93882  0.52838  Biso   1.000  H
  H46      1.0000 0.79786  0.43882  0.97162  Biso   1.000  H
  H47      1.0000 0.79786  0.06118  0.47162  Biso   1.000  H
  H48      1.0000 0.20214  0.56118  0.02838  Biso   1.000  H
  C41      1.0000 0.30840  0.96150  0.58812  Biso   1.000  C
  C42      1.0000 0.69160  0.46150  0.91188  Biso   1.000  C
  C43      1.0000 0.69160  0.03850  0.41188  Biso   1.000  C
  C44      1.0000 0.30840  0.53850  0.08812  Biso   1.000  C
  H49      1.0000 0.30798  0.85838  0.59970  Biso   1.000  H
  H50      1.0000 0.69202  0.35838  0.90030  Biso   1.000  H
  H51      1.0000 0.69202  0.14162  0.40030  Biso   1.000  H
  H52      1.0000 0.30798  0.64162  0.09970  Biso   1.000  H
  C45      1.0000 0.36990  0.06690  0.61242  Biso   1.000  C
  C46      1.0000 0.63010  0.56690  0.88758  Biso   1.000  C
  C47      1.0000 0.63010  0.93310  0.38758  Biso   1.000  C
  C48      1.0000 0.36990  0.43310  0.11242  Biso   1.000  C
  H53      1.0000 0.41300  0.03445  0.64080  Biso   1.000  H
  H54      1.0000 0.58700  0.53445  0.85920  Biso   1.000  H
  H55      1.0000 0.58700  0.96555  0.35920  Biso   1.000  H
  H56      1.0000 0.41300  0.46555  0.14080  Biso   1.000  H
  C49      1.0000 0.24850  0.45140  0.70088  Biso   1.000  C
  C50      1.0000 0.75150  0.95140  0.79912  Biso   1.000  C
  C51      1.0000 0.75150  0.54860  0.29912  Biso   1.000  C
  C52      1.0000 0.24850  0.04860  0.20088  Biso   1.000  C
  H57      1.0000 0.29668  0.47112  0.72845  Biso   1.000  H
  H58      1.0000 0.70332  0.97112  0.77155  Biso   1.000  H
  H59      1.0000 0.70332  0.52888  0.27155  Biso   1.000  H
  H60      1.0000 0.29668  0.02888  0.22845  Biso   1.000  H
  C53      1.0000 0.21540  0.57110  0.67033  Biso   1.000  C
  C54      1.0000 0.78460  0.07110  0.82967  Biso   1.000  C
  C55      1.0000 0.78460  0.42890  0.32967  Biso   1.000  C
  C56      1.0000 0.21540  0.92890  0.17033  Biso   1.000  C
  H61      1.0000 0.23904  0.67183  0.67676  Biso   1.000  H
  H62      1.0000 0.76096  0.17183  0.82324  Biso   1.000  H
  H63      1.0000 0.76096  0.32817  0.32324  Biso   1.000  H
  H64      1.0000 0.23904  0.82817  0.17676  Biso   1.000  H
  C57      1.0000 0.14540  0.54000  0.62914  Biso   1.000  C
  C58      1.0000 0.85460  0.04000  0.87086  Biso   1.000  C
  C59      1.0000 0.85460  0.46000  0.37086  Biso   1.000  C
  C60      1.0000 0.14540  0.96000  0.12914  Biso   1.000  C
  H65      1.0000 0.12374  0.61922  0.60587  Biso   1.000  H
  H66      1.0000 0.87626  0.11922  0.89413  Biso   1.000  H
  H67      1.0000 0.87626  0.38078  0.39413  Biso   1.000  H
  H68      1.0000 0.12374  0.88078  0.10587  Biso   1.000  H
  C61      1.0000 0.10860  0.39590  0.62266  Biso   1.000  C
  C62      1.0000 0.89140  0.89590  0.87734  Biso   1.000  C
  C63      1.0000 0.89140  0.60410  0.37734  Biso   1.000  C
  C64      1.0000 0.10860  0.10410  0.12266  Biso   1.000  C
  H69      1.0000 0.05987  0.37434  0.59552  Biso   1.000  H
  H70      1.0000 0.94013  0.87434  0.90448  Biso   1.000  H
  H71      1.0000 0.94013  0.62566  0.40448  Biso   1.000  H
  H72      1.0000 0.05987  0.12566  0.09552  Biso   1.000  H
  C65      1.0000 0.14340  0.28010  0.65644  Biso   1.000  C
  C66      1.0000 0.85660  0.78010  0.84356  Biso   1.000  C
  C67      1.0000 0.85660  0.71990  0.34356  Biso   1.000  C
  C68      1.0000 0.14340  0.21990  0.15644  Biso   1.000  C
  C69      1.0000 0.09800  0.02070  0.68866  Biso   1.000  C
  C70      1.0000 0.90200  0.52070  0.81134  Biso   1.000  C
  C71      1.0000 0.90200  0.97930  0.31134  Biso   1.000  C
  C72      1.0000 0.09800  0.47930  0.18866  Biso   1.000  C
  C73      1.0000 0.01920  0.91210  0.68538  Biso   1.000  C
  C74      1.0000 0.98080  0.41210  0.81462  Biso   1.000  C
  C75      1.0000 0.98080  0.08790  0.31462  Biso   1.000  C
  C76      1.0000 0.01920  0.58790  0.18538  Biso   1.000  C
  H73      1.0000 0.97105  0.91582  0.65695  Biso   1.000  H
  H74      1.0000 0.02895  0.41582  0.84305  Biso   1.000  H
  H75      1.0000 0.02895  0.08418  0.34305  Biso   1.000  H
  H76      1.0000 0.97105  0.58418  0.15695  Biso   1.000  H
  C77      1.0000 0.01250  0.80100  0.72359  Biso   1.000  C
  C78      1.0000 0.98750  0.30100  0.77641  Biso   1.000  C
  C79      1.0000 0.98750  0.19900  0.27641  Biso   1.000  C
  C80      1.0000 0.01250  0.69900  0.22359  Biso   1.000  C
  H77      1.0000 0.96007  0.72664  0.72169  Biso   1.000  H
  H78      1.0000 0.03993  0.22664  0.77831  Biso   1.000  H
  H79      1.0000 0.03993  0.27336  0.27831  Biso   1.000  H
  H80      1.0000 0.96007  0.77336  0.22169  Biso   1.000  H
  C81      1.0000 0.08340  0.79780  0.76535  Biso   1.000  C
  C82      1.0000 0.91660  0.29780  0.73465  Biso   1.000  C
  C83      1.0000 0.91660  0.20220  0.23465  Biso   1.000  C
  C84      1.0000 0.08340  0.70220  0.26535  Biso   1.000  C
  H81      1.0000 0.07858  0.72427  0.79302  Biso   1.000  H
  H82      1.0000 0.92142  0.22427  0.70698  Biso   1.000  H
  H83      1.0000 0.92142  0.27573  0.20698  Biso   1.000  H
  H84      1.0000 0.07858  0.77573  0.29302  Biso   1.000  H
  C85      1.0000 0.16020  0.90430  0.76523  Biso   1.000  C
  C86      1.0000 0.83980  0.40430  0.73477  Biso   1.000  C
  C87      1.0000 0.83980  0.09570  0.23477  Biso   1.000  C
  C88      1.0000 0.16020  0.59570  0.26523  Biso   1.000  C
  H85      1.0000 0.20949  0.90116  0.79311  Biso   1.000  H
  H86      1.0000 0.79051  0.40116  0.70689  Biso   1.000  H
  H87      1.0000 0.79051  0.09884  0.20689  Biso   1.000  H
  H88      1.0000 0.20949  0.59884  0.29311  Biso   1.000  H
  O33      1.0000 0.62720  0.24150  0.63490  Biso   1.000  O
  O34      1.0000 0.37280  0.74150  0.86510  Biso   1.000  O
  O35      1.0000 0.37280  0.75850  0.36510  Biso   1.000  O
  O36      1.0000 0.62720  0.25850  0.13490  Biso   1.000  O
  O37      1.0000 0.68140  0.05550  0.57290  Biso   1.000  O
  O38      1.0000 0.31860  0.55550  0.92710  Biso   1.000  O
  O39      1.0000 0.31860  0.94450  0.42710  Biso   1.000  O
  O40      1.0000 0.68140  0.44450  0.07290  Biso   1.000  O
  O41      1.0000 0.77490  0.08980  0.65250  Biso   1.000  O
  O42      1.0000 0.22510  0.58980  0.84750  Biso   1.000  O
  O43      1.0000 0.22510  0.91020  0.34750  Biso   1.000  O
  O44      1.0000 0.77490  0.41020  0.15250  Biso   1.000  O
  Cl5      1.0000 0.14714  0.47606  0.41555  Biso   1.000  Cl
  Cl6      1.0000 0.85286  0.97606  0.08445  Biso   1.000  Cl
  Cl7      1.0000 0.85286  0.52394  0.58445  Biso   1.000  Cl
  Cl8      1.0000 0.14714  0.02394  0.91555  Biso   1.000  Cl
  O45      1.0000 0.08560  0.46850  0.46233  Biso   1.000  O
  O46      1.0000 0.91440  0.96850  0.03767  Biso   1.000  O
  O47      1.0000 0.91440  0.53150  0.53767  Biso   1.000  O
  O48      1.0000 0.08560  0.03150  0.96233  Biso   1.000  O
  O49      1.0000 0.24890  0.42810  0.42800  Biso   1.000  O
  O50      1.0000 0.75110  0.92810  0.07200  Biso   1.000  O
  O51      1.0000 0.75110  0.57190  0.57200  Biso   1.000  O
  O52      1.0000 0.24890  0.07190  0.92800  Biso   1.000  O
  O53      1.0000 0.14630  0.62840  0.39632  Biso   1.000  O
  O54      1.0000 0.85370  0.12840  0.10368  Biso   1.000  O
  O55      1.0000 0.85370  0.37160  0.60368  Biso   1.000  O
  O56      1.0000 0.14630  0.87160  0.89632  Biso   1.000  O
  O57      1.0000 0.10610  0.37500  0.37556  Biso   1.000  O
  O58      1.0000 0.89390  0.87500  0.12444  Biso   1.000  O
  O59      1.0000 0.89390  0.62500  0.62444  Biso   1.000  O
  O60      1.0000 0.10610  0.12500  0.87556  Biso   1.000  O
  O61      1.0000 0.94794  0.06680  0.57128  Biso   1.000  O
  O62      1.0000 0.05206  0.56680  0.92872  Biso   1.000  O
  O63      1.0000 0.05206  0.93320  0.42872  Biso   1.000  O
  O64      1.0000 0.94794  0.43320  0.07128  Biso   1.000  O
  H89      1.0000 0.95600  0.14800  0.55290  Biso   1.000  H
  H90      1.0000 0.04400  0.64800  0.94710  Biso   1.000  H
  H91      1.0000 0.04400  0.85200  0.44710  Biso   1.000  H
  H92      1.0000 0.95600  0.35200  0.05290  Biso   1.000  H
  H93      1.0000 0.88870  0.08900  0.58100  Biso   1.000  H
  H94      1.0000 0.11130  0.58900  0.91900  Biso   1.000  H
  H95      1.0000 0.11130  0.91100  0.41900  Biso   1.000  H
  H96      1.0000 0.88870  0.41100  0.08100  Biso   1.000  H
  O65      1.0000 0.96630  0.19910  0.47404  Biso   1.000  O
  O66      1.0000 0.03370  0.69910  0.02596  Biso   1.000  O
  O67      1.0000 0.03370  0.80090  0.52596  Biso   1.000  O
  O68      1.0000 0.96630  0.30090  0.97404  Biso   1.000  O
  H97      1.0000 0.00200  0.13100  0.45700  Biso   1.000  H
  H98      1.0000 0.99800  0.63100  0.04300  Biso   1.000  H
  H99      1.0000 0.99800  0.86900  0.54300  Biso   1.000  H
  H100     1.0000 0.00200  0.36900  0.95700  Biso   1.000  H
  H101     1.0000 0.00100  0.28400  0.47100  Biso   1.000  H
  H102     1.0000 0.99900  0.78400  0.02900  Biso   1.000  H
  H103     1.0000 0.99900  0.71600  0.52900  Biso   1.000  H
  H104     1.0000 0.00100  0.21600  0.97100  Biso   1.000  H
