data_image0
_cell_length_a       7.0214
_cell_length_b       18.01
_cell_length_c       19.735
_cell_angle_alpha    90
_cell_angle_beta     90
_cell_angle_gamma    90

_symmetry_space_group_name_H-M    "P 1"
_symmetry_int_tables_number       1

loop_
  _symmetry_equiv_pos_as_xyz
  'x, y, z'

loop_
  _atom_site_label
  _atom_site_occupancy
  _atom_site_fract_x
  _atom_site_fract_y
  _atom_site_fract_z
  _atom_site_thermal_displace_type
  _atom_site_B_iso_or_equiv
  _atom_site_type_symbol
  Cu1      1.0000 0.06289  0.18326  0.36018  Biso   1.000  Cu
  Cu2      1.0000 0.43711  0.81674  0.86018  Biso   1.000  Cu
  Cu3      1.0000 0.93711  0.68326  0.13982  Biso   1.000  Cu
  Cu4      1.0000 0.56289  0.31674  0.63982  Biso   1.000  Cu
  Cu5      1.0000 0.93711  0.81674  0.63982  Biso   1.000  Cu
  Cu6      1.0000 0.56289  0.18326  0.13982  Biso   1.000  Cu
  Cu7      1.0000 0.06289  0.31674  0.86018  Biso   1.000  Cu
  Cu8      1.0000 0.43711  0.68326  0.36018  Biso   1.000  Cu
  O1       1.0000 0.97540  0.19341  0.26609  Biso   1.000  O
  O2       1.0000 0.52460  0.80659  0.76609  Biso   1.000  O
  O3       1.0000 0.02460  0.69341  0.23391  Biso   1.000  O
  O4       1.0000 0.47540  0.30659  0.73391  Biso   1.000  O
  O5       1.0000 0.02460  0.80659  0.73391  Biso   1.000  O
  O6       1.0000 0.47540  0.19341  0.23391  Biso   1.000  O
  O7       1.0000 0.97540  0.30659  0.76609  Biso   1.000  O
  O8       1.0000 0.52460  0.69341  0.26609  Biso   1.000  O
  O9       1.0000 0.84950  0.12587  0.18292  Biso   1.000  O
  O10      1.0000 0.65050  0.87413  0.68292  Biso   1.000  O
  O11      1.0000 0.15050  0.62587  0.31708  Biso   1.000  O
  O12      1.0000 0.34950  0.37413  0.81708  Biso   1.000  O
  O13      1.0000 0.15050  0.87413  0.81708  Biso   1.000  O
  O14      1.0000 0.34950  0.12587  0.31708  Biso   1.000  O
  O15      1.0000 0.84950  0.37413  0.68292  Biso   1.000  O
  O16      1.0000 0.65050  0.62587  0.18292  Biso   1.000  O
  O17      1.0000 0.93030  0.09093  0.35942  Biso   1.000  O
  O18      1.0000 0.56970  0.90907  0.85942  Biso   1.000  O
  O19      1.0000 0.06970  0.59093  0.14058  Biso   1.000  O
  O20      1.0000 0.43030  0.40907  0.64058  Biso   1.000  O
  O21      1.0000 0.06970  0.90907  0.64058  Biso   1.000  O
  O22      1.0000 0.43030  0.09093  0.14058  Biso   1.000  O
  O23      1.0000 0.93030  0.40907  0.85942  Biso   1.000  O
  O24      1.0000 0.56970  0.59093  0.35942  Biso   1.000  O
  C1       1.0000 0.90230  0.13416  0.24285  Biso   1.000  C
  C2       1.0000 0.59770  0.86584  0.74285  Biso   1.000  C
  C3       1.0000 0.09770  0.63416  0.25715  Biso   1.000  C
  C4       1.0000 0.40230  0.36584  0.75715  Biso   1.000  C
  C5       1.0000 0.09770  0.86584  0.75715  Biso   1.000  C
  C6       1.0000 0.40230  0.13416  0.25715  Biso   1.000  C
  C7       1.0000 0.90230  0.36584  0.74285  Biso   1.000  C
  C8       1.0000 0.59770  0.63416  0.24285  Biso   1.000  C
  C9       1.0000 0.88280  0.07013  0.29313  Biso   1.000  C
  C10      1.0000 0.61720  0.92987  0.79313  Biso   1.000  C
  C11      1.0000 0.11720  0.57013  0.20687  Biso   1.000  C
  C12      1.0000 0.38280  0.42987  0.70687  Biso   1.000  C
  C13      1.0000 0.11720  0.92987  0.70687  Biso   1.000  C
  C14      1.0000 0.38280  0.07013  0.20687  Biso   1.000  C
  C15      1.0000 0.88280  0.42987  0.79313  Biso   1.000  C
  C16      1.0000 0.61720  0.57013  0.29313  Biso   1.000  C
  H1       1.0000 0.75261  0.05217  0.29243  Biso   1.000  H
  H2       1.0000 0.74739  0.94783  0.79243  Biso   1.000  H
  H3       1.0000 0.24739  0.55217  0.20757  Biso   1.000  H
  H4       1.0000 0.25261  0.44783  0.70757  Biso   1.000  H
  H5       1.0000 0.24739  0.94783  0.70757  Biso   1.000  H
  H6       1.0000 0.25261  0.05217  0.20757  Biso   1.000  H
  H7       1.0000 0.75261  0.44783  0.79243  Biso   1.000  H
  H8       1.0000 0.74739  0.55217  0.29243  Biso   1.000  H
  H9       1.0000 0.96503  0.02970  0.27903  Biso   1.000  H
  H10      1.0000 0.53497  0.97030  0.77903  Biso   1.000  H
  H11      1.0000 0.03497  0.52970  0.22097  Biso   1.000  H
  H12      1.0000 0.46503  0.47030  0.72097  Biso   1.000  H
  H13      1.0000 0.03497  0.97030  0.72097  Biso   1.000  H
  H14      1.0000 0.46503  0.02970  0.22097  Biso   1.000  H
  H15      1.0000 0.96503  0.47030  0.77903  Biso   1.000  H
  H16      1.0000 0.53497  0.52970  0.27903  Biso   1.000  H
  N1       1.0000 0.14910  0.28823  0.36161  Biso   1.000  N
  N2       1.0000 0.35090  0.71177  0.86161  Biso   1.000  N
  N3       1.0000 0.85090  0.78823  0.13839  Biso   1.000  N
  N4       1.0000 0.64910  0.21177  0.63839  Biso   1.000  N
  N5       1.0000 0.85090  0.71177  0.63839  Biso   1.000  N
  N6       1.0000 0.64910  0.28823  0.13839  Biso   1.000  N
  N7       1.0000 0.14910  0.21177  0.86161  Biso   1.000  N
  N8       1.0000 0.35090  0.78823  0.36161  Biso   1.000  N
  N9       1.0000 0.09160  0.30398  0.47869  Biso   1.000  N
  N10      1.0000 0.40840  0.69602  0.97869  Biso   1.000  N
  N11      1.0000 0.90840  0.80398  0.02131  Biso   1.000  N
  N12      1.0000 0.59160  0.19602  0.52131  Biso   1.000  N
  N13      1.0000 0.90840  0.69602  0.52131  Biso   1.000  N
  N14      1.0000 0.59160  0.30398  0.02131  Biso   1.000  N
  N15      1.0000 0.09160  0.19602  0.97869  Biso   1.000  N
  N16      1.0000 0.40840  0.80398  0.47869  Biso   1.000  N
  N17      1.0000 0.11390  0.17473  0.45916  Biso   1.000  N
  N18      1.0000 0.38610  0.82527  0.95916  Biso   1.000  N
  N19      1.0000 0.88610  0.67473  0.04084  Biso   1.000  N
  N20      1.0000 0.61390  0.32527  0.54084  Biso   1.000  N
  N21      1.0000 0.88610  0.82527  0.54084  Biso   1.000  N
  N22      1.0000 0.61390  0.17473  0.04084  Biso   1.000  N
  N23      1.0000 0.11390  0.32527  0.95916  Biso   1.000  N
  N24      1.0000 0.38610  0.67473  0.45916  Biso   1.000  N
  C17      1.0000 0.20470  0.31986  0.30202  Biso   1.000  C
  C18      1.0000 0.29530  0.68014  0.80202  Biso   1.000  C
  C19      1.0000 0.79530  0.81986  0.19798  Biso   1.000  C
  C20      1.0000 0.70470  0.18014  0.69798  Biso   1.000  C
  C21      1.0000 0.79530  0.68014  0.69798  Biso   1.000  C
  C22      1.0000 0.70470  0.31986  0.19798  Biso   1.000  C
  C23      1.0000 0.20470  0.18014  0.80202  Biso   1.000  C
  C24      1.0000 0.29530  0.81986  0.30202  Biso   1.000  C
  H17      1.0000 0.22214  0.28924  0.26459  Biso   1.000  H
  H18      1.0000 0.27786  0.71076  0.76459  Biso   1.000  H
  H19      1.0000 0.77786  0.78924  0.23541  Biso   1.000  H
  H20      1.0000 0.72214  0.21076  0.73541  Biso   1.000  H
  H21      1.0000 0.77786  0.71076  0.73541  Biso   1.000  H
  H22      1.0000 0.72214  0.28924  0.23541  Biso   1.000  H
  H23      1.0000 0.22214  0.21076  0.76459  Biso   1.000  H
  H24      1.0000 0.27786  0.78924  0.26459  Biso   1.000  H
  C25      1.0000 0.23590  0.39413  0.29461  Biso   1.000  C
  C26      1.0000 0.26410  0.60587  0.79461  Biso   1.000  C
  C27      1.0000 0.76410  0.89413  0.20539  Biso   1.000  C
  C28      1.0000 0.73590  0.10587  0.70539  Biso   1.000  C
  C29      1.0000 0.76410  0.60587  0.70539  Biso   1.000  C
  C30      1.0000 0.73590  0.39413  0.20539  Biso   1.000  C
  C31      1.0000 0.23590  0.10587  0.79461  Biso   1.000  C
  C32      1.0000 0.26410  0.89413  0.29461  Biso   1.000  C
  H25      1.0000 0.27746  0.41329  0.25342  Biso   1.000  H
  H26      1.0000 0.22254  0.58671  0.75342  Biso   1.000  H
  H27      1.0000 0.72254  0.91329  0.24658  Biso   1.000  H
  H28      1.0000 0.77746  0.08671  0.74658  Biso   1.000  H
  H29      1.0000 0.72254  0.58671  0.74658  Biso   1.000  H
  H30      1.0000 0.77746  0.41329  0.24658  Biso   1.000  H
  H31      1.0000 0.27746  0.08671  0.75342  Biso   1.000  H
  H32      1.0000 0.22254  0.91329  0.25342  Biso   1.000  H
  C33      1.0000 0.20440  0.44088  0.34976  Biso   1.000  C
  C34      1.0000 0.29560  0.55912  0.84976  Biso   1.000  C
  C35      1.0000 0.79560  0.94088  0.15024  Biso   1.000  C
  C36      1.0000 0.70440  0.05912  0.65024  Biso   1.000  C
  C37      1.0000 0.79560  0.55912  0.65024  Biso   1.000  C
  C38      1.0000 0.70440  0.44088  0.15024  Biso   1.000  C
  C39      1.0000 0.20440  0.05912  0.84976  Biso   1.000  C
  C40      1.0000 0.29560  0.94088  0.34976  Biso   1.000  C
  H33      1.0000 0.21910  0.49197  0.34537  Biso   1.000  H
  H34      1.0000 0.28090  0.50803  0.84537  Biso   1.000  H
  H35      1.0000 0.78090  0.99197  0.15463  Biso   1.000  H
  H36      1.0000 0.71910  0.00803  0.65463  Biso   1.000  H
  H37      1.0000 0.78090  0.50803  0.65463  Biso   1.000  H
  H38      1.0000 0.71910  0.49197  0.15463  Biso   1.000  H
  H39      1.0000 0.21910  0.00803  0.84537  Biso   1.000  H
  H40      1.0000 0.28090  0.99197  0.34537  Biso   1.000  H
  C41      1.0000 0.15160  0.41051  0.41045  Biso   1.000  C
  C42      1.0000 0.34840  0.58949  0.91045  Biso   1.000  C
  C43      1.0000 0.84840  0.91051  0.08955  Biso   1.000  C
  C44      1.0000 0.65160  0.08949  0.58955  Biso   1.000  C
  C45      1.0000 0.84840  0.58949  0.58955  Biso   1.000  C
  C46      1.0000 0.65160  0.41051  0.08955  Biso   1.000  C
  C47      1.0000 0.15160  0.08949  0.91045  Biso   1.000  C
  C48      1.0000 0.34840  0.91051  0.41045  Biso   1.000  C
  H41      1.0000 0.12947  0.44075  0.44782  Biso   1.000  H
  H42      1.0000 0.37053  0.55925  0.94782  Biso   1.000  H
  H43      1.0000 0.87053  0.94075  0.05218  Biso   1.000  H
  H44      1.0000 0.62947  0.05925  0.55218  Biso   1.000  H
  H45      1.0000 0.87053  0.55925  0.55218  Biso   1.000  H
  H46      1.0000 0.62947  0.44075  0.05218  Biso   1.000  H
  H47      1.0000 0.12947  0.05925  0.94782  Biso   1.000  H
  H48      1.0000 0.37053  0.94075  0.44782  Biso   1.000  H
  C49      1.0000 0.13100  0.33296  0.41572  Biso   1.000  C
  C50      1.0000 0.36900  0.66704  0.91572  Biso   1.000  C
  C51      1.0000 0.86900  0.83296  0.08428  Biso   1.000  C
  C52      1.0000 0.63100  0.16704  0.58428  Biso   1.000  C
  C53      1.0000 0.86900  0.66704  0.58428  Biso   1.000  C
  C54      1.0000 0.63100  0.33296  0.08428  Biso   1.000  C
  C55      1.0000 0.13100  0.16704  0.91572  Biso   1.000  C
  C56      1.0000 0.36900  0.83296  0.41572  Biso   1.000  C
  C57      1.0000 0.10760  0.23236  0.50254  Biso   1.000  C
  C58      1.0000 0.39240  0.76764  0.00254  Biso   1.000  C
  C59      1.0000 0.89240  0.73236  0.99746  Biso   1.000  C
  C60      1.0000 0.60760  0.26764  0.49746  Biso   1.000  C
  C61      1.0000 0.89240  0.76764  0.49746  Biso   1.000  C
  C62      1.0000 0.60760  0.23236  0.99746  Biso   1.000  C
  C63      1.0000 0.10760  0.26764  0.00254  Biso   1.000  C
  C64      1.0000 0.39240  0.73236  0.50254  Biso   1.000  C
  C65      1.0000 0.11480  0.22168  0.57268  Biso   1.000  C
  C66      1.0000 0.38520  0.77832  0.07268  Biso   1.000  C
  C67      1.0000 0.88520  0.72168  0.92732  Biso   1.000  C
  C68      1.0000 0.61480  0.27832  0.42732  Biso   1.000  C
  C69      1.0000 0.88520  0.77832  0.42732  Biso   1.000  C
  C70      1.0000 0.61480  0.22168  0.92732  Biso   1.000  C
  C71      1.0000 0.11480  0.27832  0.07268  Biso   1.000  C
  C72      1.0000 0.38520  0.72168  0.57268  Biso   1.000  C
  H49      1.0000 0.10459  0.26192  0.60199  Biso   1.000  H
  H50      1.0000 0.39541  0.73808  0.10199  Biso   1.000  H
  H51      1.0000 0.89541  0.76192  0.89801  Biso   1.000  H
  H52      1.0000 0.60459  0.23808  0.39801  Biso   1.000  H
  H53      1.0000 0.89541  0.73808  0.39801  Biso   1.000  H
  H54      1.0000 0.60459  0.26192  0.89801  Biso   1.000  H
  H55      1.0000 0.10459  0.23808  0.10199  Biso   1.000  H
  H56      1.0000 0.39541  0.76192  0.60199  Biso   1.000  H
  C73      1.0000 0.13710  0.15144  0.59767  Biso   1.000  C
  C74      1.0000 0.36290  0.84856  0.09767  Biso   1.000  C
  C75      1.0000 0.86290  0.65144  0.90233  Biso   1.000  C
  C76      1.0000 0.63710  0.34856  0.40233  Biso   1.000  C
  C77      1.0000 0.86290  0.84856  0.40233  Biso   1.000  C
  C78      1.0000 0.63710  0.15144  0.90233  Biso   1.000  C
  C79      1.0000 0.13710  0.34856  0.09767  Biso   1.000  C
  C80      1.0000 0.36290  0.65144  0.59767  Biso   1.000  C
  H57      1.0000 0.14264  0.14354  0.64420  Biso   1.000  H
  H58      1.0000 0.35736  0.85646  0.14420  Biso   1.000  H
  H59      1.0000 0.85736  0.64354  0.85580  Biso   1.000  H
  H60      1.0000 0.64264  0.35646  0.35580  Biso   1.000  H
  H61      1.0000 0.85736  0.85646  0.35580  Biso   1.000  H
  H62      1.0000 0.64264  0.14354  0.85580  Biso   1.000  H
  H63      1.0000 0.14264  0.35646  0.14420  Biso   1.000  H
  H64      1.0000 0.35736  0.64354  0.64420  Biso   1.000  H
  C81      1.0000 0.15140  0.09165  0.55297  Biso   1.000  C
  C82      1.0000 0.34860  0.90835  0.05297  Biso   1.000  C
  C83      1.0000 0.84860  0.59165  0.94703  Biso   1.000  C
  C84      1.0000 0.65140  0.40835  0.44703  Biso   1.000  C
  C85      1.0000 0.84860  0.90835  0.44703  Biso   1.000  C
  C86      1.0000 0.65140  0.09165  0.94703  Biso   1.000  C
  C87      1.0000 0.15140  0.40835  0.05297  Biso   1.000  C
  C88      1.0000 0.34860  0.59165  0.55297  Biso   1.000  C
  H65      1.0000 0.17013  0.04365  0.56902  Biso   1.000  H
  H66      1.0000 0.32987  0.95635  0.06902  Biso   1.000  H
  H67      1.0000 0.82987  0.54365  0.93098  Biso   1.000  H
  H68      1.0000 0.67013  0.45635  0.43098  Biso   1.000  H
  H69      1.0000 0.82987  0.95635  0.43098  Biso   1.000  H
  H70      1.0000 0.67013  0.04365  0.93098  Biso   1.000  H
  H71      1.0000 0.17013  0.45635  0.06902  Biso   1.000  H
  H72      1.0000 0.32987  0.54365  0.56902  Biso   1.000  H
  C89      1.0000 0.13720  0.10526  0.48537  Biso   1.000  C
  C90      1.0000 0.36280  0.89474  0.98537  Biso   1.000  C
  C91      1.0000 0.86280  0.60526  0.01463  Biso   1.000  C
  C92      1.0000 0.63720  0.39474  0.51463  Biso   1.000  C
  C93      1.0000 0.86280  0.89474  0.51463  Biso   1.000  C
  C94      1.0000 0.63720  0.10526  0.01463  Biso   1.000  C
  C95      1.0000 0.13720  0.39474  0.98537  Biso   1.000  C
  C96      1.0000 0.36280  0.60526  0.48537  Biso   1.000  C
  H73      1.0000 0.14366  0.06530  0.45562  Biso   1.000  H
  H74      1.0000 0.35634  0.93470  0.95562  Biso   1.000  H
  H75      1.0000 0.85634  0.56530  0.04438  Biso   1.000  H
  H76      1.0000 0.64366  0.43470  0.54438  Biso   1.000  H
  H77      1.0000 0.85634  0.93470  0.54438  Biso   1.000  H
  H78      1.0000 0.64366  0.06530  0.04438  Biso   1.000  H
  H79      1.0000 0.14366  0.43470  0.95562  Biso   1.000  H
  H80      1.0000 0.35634  0.56530  0.45562  Biso   1.000  H
  H81      1.0000 0.08800  0.33190  0.50830  Biso   1.000  H
  H82      1.0000 0.41200  0.66810  0.00830  Biso   1.000  H
  H83      1.0000 0.91200  0.83190  0.99170  Biso   1.000  H
  H84      1.0000 0.58800  0.16810  0.49170  Biso   1.000  H
  H85      1.0000 0.91200  0.66810  0.49170  Biso   1.000  H
  H86      1.0000 0.58800  0.33190  0.99170  Biso   1.000  H
  H87      1.0000 0.08800  0.16810  0.00830  Biso   1.000  H
  H88      1.0000 0.41200  0.83190  0.50830  Biso   1.000  H
  O25      1.0000 0.59860  0.08678  0.42301  Biso   1.000  O
  O26      1.0000 0.90140  0.91322  0.92301  Biso   1.000  O
  O27      1.0000 0.40140  0.58678  0.07699  Biso   1.000  O
  O28      1.0000 0.09860  0.41322  0.57699  Biso   1.000  O
  O29      1.0000 0.40140  0.91322  0.57699  Biso   1.000  O
  O30      1.0000 0.09860  0.08678  0.07699  Biso   1.000  O
  O31      1.0000 0.59860  0.41322  0.92301  Biso   1.000  O
  O32      1.0000 0.90140  0.58678  0.42301  Biso   1.000  O
  H89      1.0000 0.69800  0.08700  0.40690  Biso   1.000  H
  H90      1.0000 0.80200  0.91300  0.90690  Biso   1.000  H
  H91      1.0000 0.30200  0.58700  0.09310  Biso   1.000  H
  H92      1.0000 0.19800  0.41300  0.59310  Biso   1.000  H
  H93      1.0000 0.30200  0.91300  0.59310  Biso   1.000  H
  H94      1.0000 0.19800  0.08700  0.09310  Biso   1.000  H
  H95      1.0000 0.69800  0.41300  0.90690  Biso   1.000  H
  H96      1.0000 0.80200  0.58700  0.40690  Biso   1.000  H
  H97      1.0000 0.52400  0.09400  0.39600  Biso   1.000  H
  H98      1.0000 0.97600  0.90600  0.89600  Biso   1.000  H
  H99      1.0000 0.47600  0.59400  0.10400  Biso   1.000  H
  H100     1.0000 0.02400  0.40600  0.60400  Biso   1.000  H
  H101     1.0000 0.47600  0.90600  0.60400  Biso   1.000  H
  H102     1.0000 0.02400  0.09400  0.10400  Biso   1.000  H
  H103     1.0000 0.52400  0.40600  0.89600  Biso   1.000  H
  H104     1.0000 0.97600  0.59400  0.39600  Biso   1.000  H
