data_image0
_cell_length_a       14.567
_cell_length_b       6.97
_cell_length_c       11.051
_cell_angle_alpha    90
_cell_angle_beta     93.67
_cell_angle_gamma    90

_symmetry_space_group_name_H-M    "P 1"
_symmetry_int_tables_number       1

loop_
  _symmetry_equiv_pos_as_xyz
  'x, y, z'

loop_
  _atom_site_label
  _atom_site_occupancy
  _atom_site_fract_x
  _atom_site_fract_y
  _atom_site_fract_z
  _atom_site_thermal_displace_type
  _atom_site_B_iso_or_equiv
  _atom_site_type_symbol
  Cu1      1.0000 0.25000  0.21620  0.25000  Biso   1.000  Cu
  Cu2      1.0000 0.75000  0.71620  0.25000  Biso   1.000  Cu
  Cu3      1.0000 0.25000  0.78380  0.75000  Biso   1.000  Cu
  Cu4      1.0000 0.75000  0.28380  0.75000  Biso   1.000  Cu
  O1       1.0000 0.37730  0.32600  0.37530  Biso   1.000  O
  O2       1.0000 0.87730  0.82600  0.37530  Biso   1.000  O
  O3       1.0000 0.37730  0.67400  0.87530  Biso   1.000  O
  O4       1.0000 0.87730  0.17400  0.87530  Biso   1.000  O
  O5       1.0000 0.16450  0.43210  0.27020  Biso   1.000  O
  O6       1.0000 0.66450  0.93210  0.27020  Biso   1.000  O
  O7       1.0000 0.16450  0.56790  0.77020  Biso   1.000  O
  O8       1.0000 0.66450  0.06790  0.77020  Biso   1.000  O
  O9       1.0000 0.33350  0.02480  0.18230  Biso   1.000  O
  O10      1.0000 0.83350  0.52480  0.18230  Biso   1.000  O
  O11      1.0000 0.33350  0.97520  0.68230  Biso   1.000  O
  O12      1.0000 0.83350  0.47520  0.68230  Biso   1.000  O
  O13      1.0000 0.42680  0.98310  0.03470  Biso   1.000  O
  O14      1.0000 0.92680  0.48310  0.03470  Biso   1.000  O
  O15      1.0000 0.42680  0.01690  0.53470  Biso   1.000  O
  O16      1.0000 0.92680  0.51690  0.53470  Biso   1.000  O
  N1       1.0000 0.30360  0.40030  0.13400  Biso   1.000  N
  N2       1.0000 0.80360  0.90030  0.13400  Biso   1.000  N
  N3       1.0000 0.30360  0.59970  0.63400  Biso   1.000  N
  N4       1.0000 0.80360  0.09970  0.63400  Biso   1.000  N
  C1       1.0000 0.37510  0.51900  0.19990  Biso   1.000  C
  C2       1.0000 0.87510  0.01900  0.19990  Biso   1.000  C
  C3       1.0000 0.37510  0.48100  0.69990  Biso   1.000  C
  C4       1.0000 0.87510  0.98100  0.69990  Biso   1.000  C
  C5       1.0000 0.43660  0.40330  0.28970  Biso   1.000  C
  C6       1.0000 0.93660  0.90330  0.28970  Biso   1.000  C
  C7       1.0000 0.43660  0.59670  0.78970  Biso   1.000  C
  C8       1.0000 0.93660  0.09670  0.78970  Biso   1.000  C
  C9       1.0000 0.22850  0.51850  0.08420  Biso   1.000  C
  C10      1.0000 0.72850  0.01850  0.08420  Biso   1.000  C
  C11      1.0000 0.22850  0.48150  0.58420  Biso   1.000  C
  C12      1.0000 0.72850  0.98150  0.58420  Biso   1.000  C
  C13      1.0000 0.17110  0.58850  0.18320  Biso   1.000  C
  C14      1.0000 0.67110  0.08850  0.18320  Biso   1.000  C
  C15      1.0000 0.17110  0.41150  0.68320  Biso   1.000  C
  C16      1.0000 0.67110  0.91150  0.68320  Biso   1.000  C
  C17      1.0000 0.34760  0.28170  0.03850  Biso   1.000  C
  C18      1.0000 0.84760  0.78170  0.03850  Biso   1.000  C
  C19      1.0000 0.34760  0.71830  0.53850  Biso   1.000  C
  C20      1.0000 0.84760  0.21830  0.53850  Biso   1.000  C
  C21      1.0000 0.37170  0.08060  0.08780  Biso   1.000  C
  C22      1.0000 0.87170  0.58060  0.08780  Biso   1.000  C
  C23      1.0000 0.37170  0.91940  0.58780  Biso   1.000  C
  C24      1.0000 0.87170  0.41940  0.58780  Biso   1.000  C
  S1       1.0000 0.09970  0.07450  0.05930  Biso   1.000  S
  S2       1.0000 0.59970  0.57450  0.05930  Biso   1.000  S
  S3       1.0000 0.09970  0.92550  0.55930  Biso   1.000  S
  S4       1.0000 0.59970  0.42550  0.55930  Biso   1.000  S
  N5       1.0000 0.19770  0.05630  0.37090  Biso   1.000  N
  N6       1.0000 0.69770  0.55630  0.37090  Biso   1.000  N
  N7       1.0000 0.19770  0.94370  0.87090  Biso   1.000  N
  N8       1.0000 0.69770  0.44370  0.87090  Biso   1.000  N
  C25      1.0000 0.15690  0.99410  0.94710  Biso   1.000  C
  C26      1.0000 0.65690  0.49410  0.94710  Biso   1.000  C
  C27      1.0000 0.15690  0.00590  0.44710  Biso   1.000  C
  C28      1.0000 0.65690  0.50590  0.44710  Biso   1.000  C
  O17      1.0000 0.49510  0.88510  0.32490  Biso   1.000  O
  O18      1.0000 0.99510  0.38510  0.32490  Biso   1.000  O
  O19      1.0000 0.49510  0.11490  0.82490  Biso   1.000  O
  O20      1.0000 0.99510  0.61490  0.82490  Biso   1.000  O
  H1       1.0000 0.52400  0.92900  0.28800  Biso   1.000  H
  H2       1.0000 0.02400  0.42900  0.28800  Biso   1.000  H
  H3       1.0000 0.52400  0.07100  0.78800  Biso   1.000  H
  H4       1.0000 0.02400  0.57100  0.78800  Biso   1.000  H
  H5       1.0000 0.45200  0.95200  0.29500  Biso   1.000  H
  H6       1.0000 0.95200  0.45200  0.29500  Biso   1.000  H
  H7       1.0000 0.45200  0.04800  0.79500  Biso   1.000  H
  H8       1.0000 0.95200  0.54800  0.79500  Biso   1.000  H
  H9       1.0000 0.33900  0.26500  0.43000  Biso   1.000  H
  H10      1.0000 0.83900  0.76500  0.43000  Biso   1.000  H
  H11      1.0000 0.33900  0.73500  0.93000  Biso   1.000  H
  H12      1.0000 0.83900  0.23500  0.93000  Biso   1.000  H
  H13      1.0000 0.11500  0.44100  0.27700  Biso   1.000  H
  H14      1.0000 0.61500  0.94100  0.27700  Biso   1.000  H
  H15      1.0000 0.11500  0.55900  0.77700  Biso   1.000  H
  H16      1.0000 0.61500  0.05900  0.77700  Biso   1.000  H
  H17      1.0000 0.34400  0.59900  0.23900  Biso   1.000  H
  H18      1.0000 0.84400  0.09900  0.23900  Biso   1.000  H
  H19      1.0000 0.34400  0.40100  0.73900  Biso   1.000  H
  H20      1.0000 0.84400  0.90100  0.73900  Biso   1.000  H
  H21      1.0000 0.39600  0.60300  0.17900  Biso   1.000  H
  H22      1.0000 0.89600  0.10300  0.17900  Biso   1.000  H
  H23      1.0000 0.39600  0.39700  0.67900  Biso   1.000  H
  H24      1.0000 0.89600  0.89700  0.67900  Biso   1.000  H
  H25      1.0000 0.45300  0.28000  0.25500  Biso   1.000  H
  H26      1.0000 0.95300  0.78000  0.25500  Biso   1.000  H
  H27      1.0000 0.45300  0.72000  0.75500  Biso   1.000  H
  H28      1.0000 0.95300  0.22000  0.75500  Biso   1.000  H
  H29      1.0000 0.47900  0.47500  0.31700  Biso   1.000  H
  H30      1.0000 0.97900  0.97500  0.31700  Biso   1.000  H
  H31      1.0000 0.47900  0.52500  0.81700  Biso   1.000  H
  H32      1.0000 0.97900  0.02500  0.81700  Biso   1.000  H
  H33      1.0000 0.18400  0.45200  0.03200  Biso   1.000  H
  H34      1.0000 0.68400  0.95200  0.03200  Biso   1.000  H
  H35      1.0000 0.18400  0.54800  0.53200  Biso   1.000  H
  H36      1.0000 0.68400  0.04800  0.53200  Biso   1.000  H
  H37      1.0000 0.22800  0.59800  0.04300  Biso   1.000  H
  H38      1.0000 0.72800  0.09800  0.04300  Biso   1.000  H
  H39      1.0000 0.22800  0.40200  0.54300  Biso   1.000  H
  H40      1.0000 0.72800  0.90200  0.54300  Biso   1.000  H
  H41      1.0000 0.21400  0.66700  0.21700  Biso   1.000  H
  H42      1.0000 0.71400  0.16700  0.21700  Biso   1.000  H
  H43      1.0000 0.21400  0.33300  0.71700  Biso   1.000  H
  H44      1.0000 0.71400  0.83300  0.71700  Biso   1.000  H
  H45      1.0000 0.12700  0.62500  0.16400  Biso   1.000  H
  H46      1.0000 0.62700  0.12500  0.16400  Biso   1.000  H
  H47      1.0000 0.12700  0.37500  0.66400  Biso   1.000  H
  H48      1.0000 0.62700  0.87500  0.66400  Biso   1.000  H
  H49      1.0000 0.41200  0.32200  0.00600  Biso   1.000  H
  H50      1.0000 0.91200  0.82200  0.00600  Biso   1.000  H
  H51      1.0000 0.41200  0.67800  0.50600  Biso   1.000  H
  H52      1.0000 0.91200  0.17800  0.50600  Biso   1.000  H
  H53      1.0000 0.28800  0.25700  0.96300  Biso   1.000  H
  H54      1.0000 0.78800  0.75700  0.96300  Biso   1.000  H
  H55      1.0000 0.28800  0.74300  0.46300  Biso   1.000  H
  H56      1.0000 0.78800  0.24300  0.46300  Biso   1.000  H
