data_image0
_cell_length_a       10.9221
_cell_length_b       20.908
_cell_length_c       9.2262
_cell_angle_alpha    90
_cell_angle_beta     94.199
_cell_angle_gamma    90

_symmetry_space_group_name_H-M    "P 1"
_symmetry_int_tables_number       1

loop_
  _symmetry_equiv_pos_as_xyz
  'x, y, z'

loop_
  _atom_site_label
  _atom_site_occupancy
  _atom_site_fract_x
  _atom_site_fract_y
  _atom_site_fract_z
  _atom_site_thermal_displace_type
  _atom_site_B_iso_or_equiv
  _atom_site_type_symbol
  Cu1      1.0000 0.12912  0.50000  0.15870  Biso   1.000  Cu
  Cu2      1.0000 0.87088  0.50000  0.84130  Biso   1.000  Cu
  Cu3      1.0000 0.62912  0.00000  0.15870  Biso   1.000  Cu
  Cu4      1.0000 0.37088  0.00000  0.84130  Biso   1.000  Cu
  Br1      1.0000 0.95890  0.15900  0.24118  Biso   1.000  Br
  Br2      1.0000 0.04110  0.15900  0.75882  Biso   1.000  Br
  Br3      1.0000 0.45890  0.65900  0.24118  Biso   1.000  Br
  Br4      1.0000 0.54110  0.65900  0.75882  Biso   1.000  Br
  Br5      1.0000 0.04110  0.84100  0.75882  Biso   1.000  Br
  Br6      1.0000 0.95890  0.84100  0.24118  Biso   1.000  Br
  Br7      1.0000 0.54110  0.34100  0.75882  Biso   1.000  Br
  Br8      1.0000 0.45890  0.34100  0.24118  Biso   1.000  Br
  N1       1.0000 0.19460  0.42857  0.04670  Biso   1.000  N
  N2       1.0000 0.80540  0.42857  0.95330  Biso   1.000  N
  N3       1.0000 0.69460  0.92857  0.04670  Biso   1.000  N
  N4       1.0000 0.30540  0.92857  0.95330  Biso   1.000  N
  N5       1.0000 0.80540  0.57143  0.95330  Biso   1.000  N
  N6       1.0000 0.19460  0.57143  0.04670  Biso   1.000  N
  N7       1.0000 0.30540  0.07143  0.95330  Biso   1.000  N
  N8       1.0000 0.69460  0.07143  0.04670  Biso   1.000  N
  O1       1.0000 0.03760  0.44192  0.27020  Biso   1.000  O
  O2       1.0000 0.96240  0.44192  0.72980  Biso   1.000  O
  O3       1.0000 0.53760  0.94192  0.27020  Biso   1.000  O
  O4       1.0000 0.46240  0.94192  0.72980  Biso   1.000  O
  O5       1.0000 0.96240  0.55808  0.72980  Biso   1.000  O
  O6       1.0000 0.03760  0.55808  0.27020  Biso   1.000  O
  O7       1.0000 0.46240  0.05808  0.72980  Biso   1.000  O
  O8       1.0000 0.53760  0.05808  0.27020  Biso   1.000  O
  O9       1.0000 0.86620  0.39222  0.41510  Biso   1.000  O
  O10      1.0000 0.13380  0.39222  0.58490  Biso   1.000  O
  O11      1.0000 0.36620  0.89222  0.41510  Biso   1.000  O
  O12      1.0000 0.63380  0.89222  0.58490  Biso   1.000  O
  O13      1.0000 0.13380  0.60778  0.58490  Biso   1.000  O
  O14      1.0000 0.86620  0.60778  0.41510  Biso   1.000  O
  O15      1.0000 0.63380  0.10778  0.58490  Biso   1.000  O
  O16      1.0000 0.36620  0.10778  0.41510  Biso   1.000  O
  C1       1.0000 0.02080  0.38070  0.25400  Biso   1.000  C
  C2       1.0000 0.97920  0.38070  0.74600  Biso   1.000  C
  C3       1.0000 0.52080  0.88070  0.25400  Biso   1.000  C
  C4       1.0000 0.47920  0.88070  0.74600  Biso   1.000  C
  C5       1.0000 0.97920  0.61930  0.74600  Biso   1.000  C
  C6       1.0000 0.02080  0.61930  0.25400  Biso   1.000  C
  C7       1.0000 0.47920  0.11930  0.74600  Biso   1.000  C
  C8       1.0000 0.52080  0.11930  0.25400  Biso   1.000  C
  C9       1.0000 0.92960  0.35180  0.33430  Biso   1.000  C
  C10      1.0000 0.07040  0.35180  0.66570  Biso   1.000  C
  C11      1.0000 0.42960  0.85180  0.33430  Biso   1.000  C
  C12      1.0000 0.57040  0.85180  0.66570  Biso   1.000  C
  C13      1.0000 0.07040  0.64820  0.66570  Biso   1.000  C
  C14      1.0000 0.92960  0.64820  0.33430  Biso   1.000  C
  C15      1.0000 0.57040  0.14820  0.66570  Biso   1.000  C
  C16      1.0000 0.42960  0.14820  0.33430  Biso   1.000  C
  C17      1.0000 0.91240  0.28600  0.32850  Biso   1.000  C
  C18      1.0000 0.08760  0.28600  0.67150  Biso   1.000  C
  C19      1.0000 0.41240  0.78600  0.32850  Biso   1.000  C
  C20      1.0000 0.58760  0.78600  0.67150  Biso   1.000  C
  C21      1.0000 0.08760  0.71400  0.67150  Biso   1.000  C
  C22      1.0000 0.91240  0.71400  0.32850  Biso   1.000  C
  C23      1.0000 0.58760  0.21400  0.67150  Biso   1.000  C
  C24      1.0000 0.41240  0.21400  0.32850  Biso   1.000  C
  H1       1.0000 0.85340  0.26680  0.38180  Biso   1.000  H
  H2       1.0000 0.14660  0.26680  0.61820  Biso   1.000  H
  H3       1.0000 0.35340  0.76680  0.38180  Biso   1.000  H
  H4       1.0000 0.64660  0.76680  0.61820  Biso   1.000  H
  H5       1.0000 0.14660  0.73320  0.61820  Biso   1.000  H
  H6       1.0000 0.85340  0.73320  0.38180  Biso   1.000  H
  H7       1.0000 0.64660  0.23320  0.61820  Biso   1.000  H
  H8       1.0000 0.35340  0.23320  0.38180  Biso   1.000  H
  C25      1.0000 0.98440  0.24930  0.24220  Biso   1.000  C
  C26      1.0000 0.01560  0.24930  0.75780  Biso   1.000  C
  C27      1.0000 0.48440  0.74930  0.24220  Biso   1.000  C
  C28      1.0000 0.51560  0.74930  0.75780  Biso   1.000  C
  C29      1.0000 0.01560  0.75070  0.75780  Biso   1.000  C
  C30      1.0000 0.98440  0.75070  0.24220  Biso   1.000  C
  C31      1.0000 0.51560  0.25070  0.75780  Biso   1.000  C
  C32      1.0000 0.48440  0.25070  0.24220  Biso   1.000  C
  C33      1.0000 0.06830  0.27530  0.16050  Biso   1.000  C
  C34      1.0000 0.93170  0.27530  0.83950  Biso   1.000  C
  C35      1.0000 0.56830  0.77530  0.16050  Biso   1.000  C
  C36      1.0000 0.43170  0.77530  0.83950  Biso   1.000  C
  C37      1.0000 0.93170  0.72470  0.83950  Biso   1.000  C
  C38      1.0000 0.06830  0.72470  0.16050  Biso   1.000  C
  C39      1.0000 0.43170  0.22470  0.83950  Biso   1.000  C
  C40      1.0000 0.56830  0.22470  0.16050  Biso   1.000  C
  H9       1.0000 0.11460  0.24950  0.10340  Biso   1.000  H
  H10      1.0000 0.88540  0.24950  0.89660  Biso   1.000  H
  H11      1.0000 0.61460  0.74950  0.10340  Biso   1.000  H
  H12      1.0000 0.38540  0.74950  0.89660  Biso   1.000  H
  H13      1.0000 0.88540  0.75050  0.89660  Biso   1.000  H
  H14      1.0000 0.11460  0.75050  0.10340  Biso   1.000  H
  H15      1.0000 0.38540  0.25050  0.89660  Biso   1.000  H
  H16      1.0000 0.61460  0.25050  0.10340  Biso   1.000  H
  C41      1.0000 0.08570  0.34270  0.16210  Biso   1.000  C
  C42      1.0000 0.91430  0.34270  0.83790  Biso   1.000  C
  C43      1.0000 0.58570  0.84270  0.16210  Biso   1.000  C
  C44      1.0000 0.41430  0.84270  0.83790  Biso   1.000  C
  C45      1.0000 0.91430  0.65730  0.83790  Biso   1.000  C
  C46      1.0000 0.08570  0.65730  0.16210  Biso   1.000  C
  C47      1.0000 0.41430  0.15730  0.83790  Biso   1.000  C
  C48      1.0000 0.58570  0.15730  0.16210  Biso   1.000  C
  C49      1.0000 0.16800  0.36950  0.06530  Biso   1.000  C
  C50      1.0000 0.83200  0.36950  0.93470  Biso   1.000  C
  C51      1.0000 0.66800  0.86950  0.06530  Biso   1.000  C
  C52      1.0000 0.33200  0.86950  0.93470  Biso   1.000  C
  C53      1.0000 0.83200  0.63050  0.93470  Biso   1.000  C
  C54      1.0000 0.16800  0.63050  0.06530  Biso   1.000  C
  C55      1.0000 0.33200  0.13050  0.93470  Biso   1.000  C
  C56      1.0000 0.66800  0.13050  0.06530  Biso   1.000  C
  H17      1.0000 0.20740  0.34040  0.00830  Biso   1.000  H
  H18      1.0000 0.79260  0.34040  0.99170  Biso   1.000  H
  H19      1.0000 0.70740  0.84040  0.00830  Biso   1.000  H
  H20      1.0000 0.29260  0.84040  0.99170  Biso   1.000  H
  H21      1.0000 0.79260  0.65960  0.99170  Biso   1.000  H
  H22      1.0000 0.20740  0.65960  0.00830  Biso   1.000  H
  H23      1.0000 0.29260  0.15960  0.99170  Biso   1.000  H
  H24      1.0000 0.70740  0.15960  0.00830  Biso   1.000  H
  C57      1.0000 0.28760  0.44000  0.94020  Biso   1.000  C
  C58      1.0000 0.71240  0.44000  0.05980  Biso   1.000  C
  C59      1.0000 0.78760  0.94000  0.94020  Biso   1.000  C
  C60      1.0000 0.21240  0.94000  0.05980  Biso   1.000  C
  C61      1.0000 0.71240  0.56000  0.05980  Biso   1.000  C
  C62      1.0000 0.28760  0.56000  0.94020  Biso   1.000  C
  C63      1.0000 0.21240  0.06000  0.05980  Biso   1.000  C
  C64      1.0000 0.78760  0.06000  0.94020  Biso   1.000  C
  H25      1.0000 0.36830  0.44090  0.99150  Biso   1.000  H
  H26      1.0000 0.63170  0.44090  0.00850  Biso   1.000  H
  H27      1.0000 0.86830  0.94090  0.99150  Biso   1.000  H
  H28      1.0000 0.13170  0.94090  0.00850  Biso   1.000  H
  H29      1.0000 0.63170  0.55910  0.00850  Biso   1.000  H
  H30      1.0000 0.36830  0.55910  0.99150  Biso   1.000  H
  H31      1.0000 0.13170  0.05910  0.00850  Biso   1.000  H
  H32      1.0000 0.86830  0.05910  0.99150  Biso   1.000  H
  H33      1.0000 0.28580  0.40450  0.87230  Biso   1.000  H
  H34      1.0000 0.71420  0.40450  0.12770  Biso   1.000  H
  H35      1.0000 0.78580  0.90450  0.87230  Biso   1.000  H
  H36      1.0000 0.21420  0.90450  0.12770  Biso   1.000  H
  H37      1.0000 0.71420  0.59550  0.12770  Biso   1.000  H
  H38      1.0000 0.28580  0.59550  0.87230  Biso   1.000  H
  H39      1.0000 0.21420  0.09550  0.12770  Biso   1.000  H
  H40      1.0000 0.78580  0.09550  0.87230  Biso   1.000  H
  C65      1.0000 0.26930  0.50000  0.85750  Biso   1.000  C
  C66      1.0000 0.73070  0.50000  0.14250  Biso   1.000  C
  C67      1.0000 0.76930  0.00000  0.85750  Biso   1.000  C
  C68      1.0000 0.23070  0.00000  0.14250  Biso   1.000  C
  H41      1.0000 0.32500  0.50000  0.78030  Biso   1.000  H
  H42      1.0000 0.67500  0.50000  0.21970  Biso   1.000  H
  H43      1.0000 0.82500  0.00000  0.78030  Biso   1.000  H
  H44      1.0000 0.17500  0.00000  0.21970  Biso   1.000  H
  H45      1.0000 0.18640  0.50000  0.81190  Biso   1.000  H
  H46      1.0000 0.81360  0.50000  0.18810  Biso   1.000  H
  H47      1.0000 0.68640  0.00000  0.81190  Biso   1.000  H
  H48      1.0000 0.31360  0.00000  0.18810  Biso   1.000  H
  C69      1.0000 0.76350  0.36650  0.48450  Biso   1.000  C
  C70      1.0000 0.23650  0.36650  0.51550  Biso   1.000  C
  C71      1.0000 0.26350  0.86650  0.48450  Biso   1.000  C
  C72      1.0000 0.73650  0.86650  0.51550  Biso   1.000  C
  C73      1.0000 0.23650  0.63350  0.51550  Biso   1.000  C
  C74      1.0000 0.76350  0.63350  0.48450  Biso   1.000  C
  C75      1.0000 0.73650  0.13350  0.51550  Biso   1.000  C
  C76      1.0000 0.26350  0.13350  0.48450  Biso   1.000  C
  H49      1.0000 0.70540  0.34880  0.41230  Biso   1.000  H
  H50      1.0000 0.29460  0.34880  0.58770  Biso   1.000  H
  H51      1.0000 0.20540  0.84880  0.41230  Biso   1.000  H
  H52      1.0000 0.79460  0.84880  0.58770  Biso   1.000  H
  H53      1.0000 0.29460  0.65120  0.58770  Biso   1.000  H
  H54      1.0000 0.70540  0.65120  0.41230  Biso   1.000  H
  H55      1.0000 0.79460  0.15120  0.58770  Biso   1.000  H
  H56      1.0000 0.20540  0.15120  0.41230  Biso   1.000  H
  H57      1.0000 0.72490  0.40000  0.53590  Biso   1.000  H
  H58      1.0000 0.27510  0.40000  0.46410  Biso   1.000  H
  H59      1.0000 0.22490  0.90000  0.53590  Biso   1.000  H
  H60      1.0000 0.77510  0.90000  0.46410  Biso   1.000  H
  H61      1.0000 0.27510  0.60000  0.46410  Biso   1.000  H
  H62      1.0000 0.72490  0.60000  0.53590  Biso   1.000  H
  H63      1.0000 0.77510  0.10000  0.46410  Biso   1.000  H
  H64      1.0000 0.22490  0.10000  0.53590  Biso   1.000  H
  H65      1.0000 0.79140  0.33360  0.55160  Biso   1.000  H
  H66      1.0000 0.20860  0.33360  0.44840  Biso   1.000  H
  H67      1.0000 0.29140  0.83360  0.55160  Biso   1.000  H
  H68      1.0000 0.70860  0.83360  0.44840  Biso   1.000  H
  H69      1.0000 0.20860  0.66640  0.44840  Biso   1.000  H
  H70      1.0000 0.79140  0.66640  0.55160  Biso   1.000  H
  H71      1.0000 0.70860  0.16640  0.44840  Biso   1.000  H
  H72      1.0000 0.29140  0.16640  0.55160  Biso   1.000  H
  Na1      1.0000 0.00000  0.50000  0.50000  Biso   1.000  Na
  Na2      1.0000 0.50000  0.00000  0.50000  Biso   1.000  Na
  C77      1.0000 0.42670  0.50000  0.39920  Biso   1.000  C
  C78      1.0000 0.57330  0.50000  0.60080  Biso   1.000  C
  C79      1.0000 0.92670  0.00000  0.39920  Biso   1.000  C
  C80      1.0000 0.07330  0.00000  0.60080  Biso   1.000  C
  N9       1.0000 0.54100  0.50000  0.45390  Biso   1.000  N
  N10      1.0000 0.45900  0.50000  0.54610  Biso   1.000  N
  N11      1.0000 0.04100  0.00000  0.45390  Biso   1.000  N
  N12      1.0000 0.95900  0.00000  0.54610  Biso   1.000  N
  N13      1.0000 0.33830  0.50000  0.32220  Biso   1.000  N
  N14      1.0000 0.66170  0.50000  0.67780  Biso   1.000  N
  N15      1.0000 0.83830  0.00000  0.32220  Biso   1.000  N
  N16      1.0000 0.16170  0.00000  0.67780  Biso   1.000  N
  N17      1.0000 0.39500  0.50000  0.28800  Biso   1.000  N
  N18      1.0000 0.60500  0.50000  0.71200  Biso   1.000  N
  N19      1.0000 0.89500  0.00000  0.28800  Biso   1.000  N
  N20      1.0000 0.10500  0.00000  0.71200  Biso   1.000  N
