data_image0
_cell_length_a       27.756
_cell_length_b       11.3675
_cell_length_c       22.7132
_cell_angle_alpha    90
_cell_angle_beta     112.999
_cell_angle_gamma    90

_symmetry_space_group_name_H-M    "P 1"
_symmetry_int_tables_number       1

loop_
  _symmetry_equiv_pos_as_xyz
  'x, y, z'

loop_
  _atom_site_label
  _atom_site_occupancy
  _atom_site_fract_x
  _atom_site_fract_y
  _atom_site_fract_z
  _atom_site_thermal_displace_type
  _atom_site_B_iso_or_equiv
  _atom_site_type_symbol
  C1       1.0000 0.08450  0.28610  0.07950  Biso   1.000  C
  C2       1.0000 0.91550  0.78610  0.42050  Biso   1.000  C
  C3       1.0000 0.91550  0.71390  0.92050  Biso   1.000  C
  C4       1.0000 0.08450  0.21390  0.57950  Biso   1.000  C
  H1       1.0000 0.11510  0.27110  0.11500  Biso   1.000  H
  H2       1.0000 0.88490  0.77110  0.38500  Biso   1.000  H
  H3       1.0000 0.88490  0.72890  0.88500  Biso   1.000  H
  H4       1.0000 0.11510  0.22890  0.61500  Biso   1.000  H
  C5       1.0000 0.08370  0.26310  0.01820  Biso   1.000  C
  C6       1.0000 0.91630  0.76310  0.48180  Biso   1.000  C
  C7       1.0000 0.91630  0.73690  0.98180  Biso   1.000  C
  C8       1.0000 0.08370  0.23690  0.51820  Biso   1.000  C
  H5       1.0000 0.11300  0.23180  0.01370  Biso   1.000  H
  H6       1.0000 0.88700  0.73180  0.48630  Biso   1.000  H
  H7       1.0000 0.88700  0.76820  0.98630  Biso   1.000  H
  H8       1.0000 0.11300  0.26820  0.51370  Biso   1.000  H
  C9       1.0000 0.04000  0.28670  0.96590  Biso   1.000  C
  C10      1.0000 0.96000  0.78670  0.53410  Biso   1.000  C
  C11      1.0000 0.96000  0.71330  0.03410  Biso   1.000  C
  C12      1.0000 0.04000  0.21330  0.46590  Biso   1.000  C
  H9       1.0000 0.03970  0.27350  0.92530  Biso   1.000  H
  H10      1.0000 0.96030  0.77350  0.57470  Biso   1.000  H
  H11      1.0000 0.96030  0.72650  0.07470  Biso   1.000  H
  H12      1.0000 0.03970  0.22650  0.42530  Biso   1.000  H
  C13      1.0000 0.99560  0.33080  0.97250  Biso   1.000  C
  C14      1.0000 0.00440  0.83080  0.52750  Biso   1.000  C
  C15      1.0000 0.00440  0.66920  0.02750  Biso   1.000  C
  C16      1.0000 0.99560  0.16920  0.47250  Biso   1.000  C
  C17      1.0000 0.94740  0.35770  0.92080  Biso   1.000  C
  C18      1.0000 0.05260  0.85770  0.57920  Biso   1.000  C
  C19      1.0000 0.05260  0.64230  0.07920  Biso   1.000  C
  C20      1.0000 0.94740  0.14230  0.42080  Biso   1.000  C
  H13      1.0000 0.94500  0.34980  0.87900  Biso   1.000  H
  H14      1.0000 0.05500  0.84980  0.62100  Biso   1.000  H
  H15      1.0000 0.05500  0.65020  0.12100  Biso   1.000  H
  H16      1.0000 0.94500  0.15020  0.37900  Biso   1.000  H
  C21      1.0000 0.90560  0.39400  0.93100  Biso   1.000  C
  C22      1.0000 0.09440  0.89400  0.56900  Biso   1.000  C
  C23      1.0000 0.09440  0.60600  0.06900  Biso   1.000  C
  C24      1.0000 0.90560  0.10600  0.43100  Biso   1.000  C
  H17      1.0000 0.87450  0.40790  0.89610  Biso   1.000  H
  H18      1.0000 0.12550  0.90790  0.60390  Biso   1.000  H
  H19      1.0000 0.12550  0.59210  0.10390  Biso   1.000  H
  H20      1.0000 0.87450  0.09210  0.39610  Biso   1.000  H
  C25      1.0000 0.90740  0.41240  0.99460  Biso   1.000  C
  C26      1.0000 0.09260  0.91240  0.50540  Biso   1.000  C
  C27      1.0000 0.09260  0.58760  0.00540  Biso   1.000  C
  C28      1.0000 0.90740  0.08760  0.49460  Biso   1.000  C
  C29      1.0000 0.86550  0.44680  0.00930  Biso   1.000  C
  C30      1.0000 0.13450  0.94680  0.49070  Biso   1.000  C
  C31      1.0000 0.13450  0.55320  0.99070  Biso   1.000  C
  C32      1.0000 0.86550  0.05320  0.50930  Biso   1.000  C
  H21      1.0000 0.83320  0.46320  0.97690  Biso   1.000  H
  H22      1.0000 0.16680  0.96320  0.52310  Biso   1.000  H
  H23      1.0000 0.16680  0.53680  0.02310  Biso   1.000  H
  H24      1.0000 0.83320  0.03680  0.47690  Biso   1.000  H
  C33      1.0000 0.87210  0.45640  0.07170  Biso   1.000  C
  C34      1.0000 0.12790  0.95640  0.42830  Biso   1.000  C
  C35      1.0000 0.12790  0.54360  0.92830  Biso   1.000  C
  C36      1.0000 0.87210  0.04360  0.57170  Biso   1.000  C
  H25      1.0000 0.84430  0.47840  0.08240  Biso   1.000  H
  H26      1.0000 0.15570  0.97840  0.41760  Biso   1.000  H
  H27      1.0000 0.15570  0.52160  0.91760  Biso   1.000  H
  H28      1.0000 0.84430  0.02160  0.58240  Biso   1.000  H
  C37      1.0000 0.92100  0.43290  0.11940  Biso   1.000  C
  C38      1.0000 0.07900  0.93290  0.38060  Biso   1.000  C
  C39      1.0000 0.07900  0.56710  0.88060  Biso   1.000  C
  C40      1.0000 0.92100  0.06710  0.61940  Biso   1.000  C
  H29      1.0000 0.92440  0.43700  0.16170  Biso   1.000  H
  H30      1.0000 0.07560  0.93700  0.33830  Biso   1.000  H
  H31      1.0000 0.07560  0.56300  0.83830  Biso   1.000  H
  H32      1.0000 0.92440  0.06300  0.66170  Biso   1.000  H
  C41      1.0000 0.95570  0.39000  0.04590  Biso   1.000  C
  C42      1.0000 0.04430  0.89000  0.45410  Biso   1.000  C
  C43      1.0000 0.04430  0.61000  0.95410  Biso   1.000  C
  C44      1.0000 0.95570  0.11000  0.54590  Biso   1.000  C
  C45      1.0000 0.99960  0.34960  0.03550  Biso   1.000  C
  C46      1.0000 0.00040  0.84960  0.46450  Biso   1.000  C
  C47      1.0000 0.00040  0.65040  0.96450  Biso   1.000  C
  C48      1.0000 0.99960  0.15040  0.53550  Biso   1.000  C
  C49      1.0000 0.05620  0.01950  0.22000  Biso   1.000  C
  C50      1.0000 0.94380  0.51950  0.28000  Biso   1.000  C
  C51      1.0000 0.94380  0.98050  0.78000  Biso   1.000  C
  C52      1.0000 0.05620  0.48050  0.72000  Biso   1.000  C
  C53      1.0000 0.10490  0.06230  0.25560  Biso   1.000  C
  C54      1.0000 0.89510  0.56230  0.24440  Biso   1.000  C
  C55      1.0000 0.89510  0.93770  0.74440  Biso   1.000  C
  C56      1.0000 0.10490  0.43770  0.75560  Biso   1.000  C
  H33      1.0000 0.10920  0.14200  0.26570  Biso   1.000  H
  H34      1.0000 0.89080  0.64200  0.23430  Biso   1.000  H
  H35      1.0000 0.89080  0.85800  0.73430  Biso   1.000  H
  H36      1.0000 0.10920  0.35800  0.76570  Biso   1.000  H
  C57      1.0000 0.14770  0.98840  0.27670  Biso   1.000  C
  C58      1.0000 0.85230  0.48840  0.22330  Biso   1.000  C
  C59      1.0000 0.85230  0.01160  0.72330  Biso   1.000  C
  C60      1.0000 0.14770  0.51160  0.77670  Biso   1.000  C
  H37      1.0000 0.18060  0.01840  0.30160  Biso   1.000  H
  H38      1.0000 0.81940  0.51840  0.19840  Biso   1.000  H
  H39      1.0000 0.81940  0.98160  0.69840  Biso   1.000  H
  H40      1.0000 0.18060  0.48160  0.80160  Biso   1.000  H
  C61      1.0000 0.14250  0.87300  0.26160  Biso   1.000  C
  C62      1.0000 0.85750  0.37300  0.23840  Biso   1.000  C
  C63      1.0000 0.85750  0.12700  0.73840  Biso   1.000  C
  C64      1.0000 0.14250  0.62700  0.76160  Biso   1.000  C
  H41      1.0000 0.17180  0.82440  0.27600  Biso   1.000  H
  H42      1.0000 0.82820  0.32440  0.22400  Biso   1.000  H
  H43      1.0000 0.82820  0.17560  0.72400  Biso   1.000  H
  H44      1.0000 0.17180  0.67560  0.77600  Biso   1.000  H
  C65      1.0000 0.09520  0.82720  0.22570  Biso   1.000  C
  C66      1.0000 0.90480  0.32720  0.27430  Biso   1.000  C
  C67      1.0000 0.90480  0.17280  0.77430  Biso   1.000  C
  C68      1.0000 0.09520  0.67280  0.72570  Biso   1.000  C
  H45      1.0000 0.09200  0.74760  0.21550  Biso   1.000  H
  H46      1.0000 0.90800  0.24760  0.28450  Biso   1.000  H
  H47      1.0000 0.90800  0.25240  0.78450  Biso   1.000  H
  H48      1.0000 0.09200  0.75240  0.71550  Biso   1.000  H
  C69      1.0000 0.05090  0.90040  0.20360  Biso   1.000  C
  C70      1.0000 0.94910  0.40040  0.29640  Biso   1.000  C
  C71      1.0000 0.94910  0.09960  0.79640  Biso   1.000  C
  C72      1.0000 0.05090  0.59960  0.70360  Biso   1.000  C
  H49      1.0000 0.01830  0.86970  0.17830  Biso   1.000  H
  H50      1.0000 0.98170  0.36970  0.32170  Biso   1.000  H
  H51      1.0000 0.98170  0.13030  0.82170  Biso   1.000  H
  H52      1.0000 0.01830  0.63030  0.67830  Biso   1.000  H
  C73      1.0000 0.96500  0.08380  0.14080  Biso   1.000  C
  C74      1.0000 0.03500  0.58380  0.35920  Biso   1.000  C
  C75      1.0000 0.03500  0.91620  0.85920  Biso   1.000  C
  C76      1.0000 0.96500  0.41620  0.64080  Biso   1.000  C
  C77      1.0000 0.91300  0.09970  0.13090  Biso   1.000  C
  C78      1.0000 0.08700  0.59970  0.36910  Biso   1.000  C
  C79      1.0000 0.08700  0.90030  0.86910  Biso   1.000  C
  C80      1.0000 0.91300  0.40030  0.63090  Biso   1.000  C
  H53      1.0000 0.90380  0.11080  0.16570  Biso   1.000  H
  H54      1.0000 0.09620  0.61080  0.33430  Biso   1.000  H
  H55      1.0000 0.09620  0.88920  0.83430  Biso   1.000  H
  H56      1.0000 0.90380  0.38920  0.66570  Biso   1.000  H
  C81      1.0000 0.87420  0.09920  0.06920  Biso   1.000  C
  C82      1.0000 0.12580  0.59920  0.43080  Biso   1.000  C
  C83      1.0000 0.12580  0.90080  0.93080  Biso   1.000  C
  C84      1.0000 0.87420  0.40080  0.56920  Biso   1.000  C
  H57      1.0000 0.83940  0.11130  0.06310  Biso   1.000  H
  H58      1.0000 0.16060  0.61130  0.43690  Biso   1.000  H
  H59      1.0000 0.16060  0.88870  0.93690  Biso   1.000  H
  H60      1.0000 0.83940  0.38870  0.56310  Biso   1.000  H
  C85      1.0000 0.88700  0.08110  0.01790  Biso   1.000  C
  C86      1.0000 0.11300  0.58110  0.48210  Biso   1.000  C
  C87      1.0000 0.11300  0.91890  0.98210  Biso   1.000  C
  C88      1.0000 0.88700  0.41890  0.51790  Biso   1.000  C
  H61      1.0000 0.86090  0.08030  0.97690  Biso   1.000  H
  H62      1.0000 0.13910  0.58030  0.52310  Biso   1.000  H
  H63      1.0000 0.13910  0.91970  0.02310  Biso   1.000  H
  H64      1.0000 0.86090  0.41970  0.47690  Biso   1.000  H
  C89      1.0000 0.93710  0.06440  0.02620  Biso   1.000  C
  C90      1.0000 0.06290  0.56440  0.47380  Biso   1.000  C
  C91      1.0000 0.06290  0.93560  0.97380  Biso   1.000  C
  C92      1.0000 0.93710  0.43560  0.52620  Biso   1.000  C
  H65      1.0000 0.94580  0.05300  0.99100  Biso   1.000  H
  H66      1.0000 0.05420  0.55300  0.50900  Biso   1.000  H
  H67      1.0000 0.05420  0.94700  0.00900  Biso   1.000  H
  H68      1.0000 0.94580  0.44700  0.49100  Biso   1.000  H
  C93      1.0000 0.97610  0.06430  0.08740  Biso   1.000  C
  C94      1.0000 0.02390  0.56430  0.41260  Biso   1.000  C
  C95      1.0000 0.02390  0.93570  0.91260  Biso   1.000  C
  C96      1.0000 0.97610  0.43570  0.58740  Biso   1.000  C
  H69      1.0000 0.01050  0.05060  0.09260  Biso   1.000  H
  H70      1.0000 0.98950  0.55060  0.40740  Biso   1.000  H
  H71      1.0000 0.98950  0.94940  0.90740  Biso   1.000  H
  H72      1.0000 0.01050  0.44940  0.59260  Biso   1.000  H
  C97      1.0000 0.21330  0.32640  0.21840  Biso   1.000  C
  C98      1.0000 0.78670  0.82640  0.28160  Biso   1.000  C
  C99      1.0000 0.78670  0.67360  0.78160  Biso   1.000  C
  C100     1.0000 0.21330  0.17360  0.71840  Biso   1.000  C
  C101     1.0000 0.22420  0.36880  0.16810  Biso   1.000  C
  C102     1.0000 0.77580  0.86880  0.33190  Biso   1.000  C
  C103     1.0000 0.77580  0.63120  0.83190  Biso   1.000  C
  C104     1.0000 0.22420  0.13120  0.66810  Biso   1.000  C
  H73      1.0000 0.22930  0.44920  0.16550  Biso   1.000  H
  H74      1.0000 0.77070  0.94920  0.33450  Biso   1.000  H
  H75      1.0000 0.77070  0.55080  0.83450  Biso   1.000  H
  H76      1.0000 0.22930  0.05080  0.66550  Biso   1.000  H
  C105     1.0000 0.22770  0.29660  0.12190  Biso   1.000  C
  C106     1.0000 0.77230  0.79660  0.37810  Biso   1.000  C
  C107     1.0000 0.77230  0.70340  0.87810  Biso   1.000  C
  C108     1.0000 0.22770  0.20340  0.62190  Biso   1.000  C
  H77      1.0000 0.23390  0.32820  0.08770  Biso   1.000  H
  H78      1.0000 0.76610  0.82820  0.41230  Biso   1.000  H
  H79      1.0000 0.76610  0.67180  0.91230  Biso   1.000  H
  H80      1.0000 0.23390  0.17180  0.58770  Biso   1.000  H
  C109     1.0000 0.22220  0.17700  0.12600  Biso   1.000  C
  C110     1.0000 0.77780  0.67700  0.37400  Biso   1.000  C
  C111     1.0000 0.77780  0.82300  0.87400  Biso   1.000  C
  C112     1.0000 0.22220  0.32300  0.62600  Biso   1.000  C
  H81      1.0000 0.22450  0.12700  0.09480  Biso   1.000  H
  H82      1.0000 0.77550  0.62700  0.40520  Biso   1.000  H
  H83      1.0000 0.77550  0.87300  0.90520  Biso   1.000  H
  H84      1.0000 0.22450  0.37300  0.59480  Biso   1.000  H
  C113     1.0000 0.21300  0.13290  0.17660  Biso   1.000  C
  C114     1.0000 0.78700  0.63290  0.32340  Biso   1.000  C
  C115     1.0000 0.78700  0.86710  0.82340  Biso   1.000  C
  C116     1.0000 0.21300  0.36710  0.67660  Biso   1.000  C
  H85      1.0000 0.21020  0.05200  0.18060  Biso   1.000  H
  H86      1.0000 0.78980  0.55200  0.31940  Biso   1.000  H
  H87      1.0000 0.78980  0.94800  0.81940  Biso   1.000  H
  H88      1.0000 0.21020  0.44800  0.68060  Biso   1.000  H
  C117     1.0000 0.20800  0.20650  0.22140  Biso   1.000  C
  C118     1.0000 0.79200  0.70650  0.27860  Biso   1.000  C
  C119     1.0000 0.79200  0.79350  0.77860  Biso   1.000  C
  C120     1.0000 0.20800  0.29350  0.72140  Biso   1.000  C
  H89      1.0000 0.20070  0.17470  0.25480  Biso   1.000  H
  H90      1.0000 0.79930  0.67470  0.24520  Biso   1.000  H
  H91      1.0000 0.79930  0.82530  0.74520  Biso   1.000  H
  H92      1.0000 0.20070  0.32530  0.75480  Biso   1.000  H
  C121     1.0000 0.17720  0.34570  0.35570  Biso   1.000  C
  C122     1.0000 0.82280  0.84570  0.14430  Biso   1.000  C
  C123     1.0000 0.82280  0.65430  0.64430  Biso   1.000  C
  C124     1.0000 0.17720  0.15430  0.85570  Biso   1.000  C
  H93      1.0000 0.14290  0.37020  0.33260  Biso   1.000  H
  H94      1.0000 0.85710  0.87020  0.16740  Biso   1.000  H
  H95      1.0000 0.85710  0.62980  0.66740  Biso   1.000  H
  H96      1.0000 0.14290  0.12980  0.83260  Biso   1.000  H
  C125     1.0000 0.21330  0.35820  0.32910  Biso   1.000  C
  C126     1.0000 0.78670  0.85820  0.17090  Biso   1.000  C
  C127     1.0000 0.78670  0.64180  0.67090  Biso   1.000  C
  C128     1.0000 0.21330  0.14180  0.82910  Biso   1.000  C
  C129     1.0000 0.26440  0.32170  0.36590  Biso   1.000  C
  C130     1.0000 0.73560  0.82170  0.13410  Biso   1.000  C
  C131     1.0000 0.73560  0.67830  0.63410  Biso   1.000  C
  C132     1.0000 0.26440  0.17830  0.86590  Biso   1.000  C
  H97      1.0000 0.29030  0.32960  0.34970  Biso   1.000  H
  H98      1.0000 0.70970  0.82960  0.15030  Biso   1.000  H
  H99      1.0000 0.70970  0.67040  0.65030  Biso   1.000  H
  H100     1.0000 0.29030  0.17040  0.84970  Biso   1.000  H
  C133     1.0000 0.27700  0.27470  0.42530  Biso   1.000  C
  C134     1.0000 0.72300  0.77470  0.07470  Biso   1.000  C
  C135     1.0000 0.72300  0.72530  0.57470  Biso   1.000  C
  C136     1.0000 0.27700  0.22530  0.92530  Biso   1.000  C
  H101     1.0000 0.31120  0.25050  0.44870  Biso   1.000  H
  H102     1.0000 0.68880  0.75050  0.05130  Biso   1.000  H
  H103     1.0000 0.68880  0.74950  0.55130  Biso   1.000  H
  H104     1.0000 0.31120  0.24950  0.94870  Biso   1.000  H
  C137     1.0000 0.24140  0.26270  0.45050  Biso   1.000  C
  C138     1.0000 0.75860  0.76270  0.04950  Biso   1.000  C
  C139     1.0000 0.75860  0.73730  0.54950  Biso   1.000  C
  C140     1.0000 0.24140  0.23730  0.95050  Biso   1.000  C
  H105     1.0000 0.25080  0.23100  0.49120  Biso   1.000  H
  H106     1.0000 0.74920  0.73100  0.00880  Biso   1.000  H
  H107     1.0000 0.74920  0.76900  0.50880  Biso   1.000  H
  H108     1.0000 0.25080  0.26900  0.99120  Biso   1.000  H
  C141     1.0000 0.19000  0.29770  0.41590  Biso   1.000  C
  C142     1.0000 0.81000  0.79770  0.08410  Biso   1.000  C
  C143     1.0000 0.81000  0.70230  0.58410  Biso   1.000  C
  C144     1.0000 0.19000  0.20230  0.91590  Biso   1.000  C
  H109     1.0000 0.16470  0.28890  0.43290  Biso   1.000  H
  H110     1.0000 0.83530  0.78890  0.06710  Biso   1.000  H
  H111     1.0000 0.83530  0.71110  0.56710  Biso   1.000  H
  H112     1.0000 0.16470  0.21110  0.93290  Biso   1.000  H
  C145     1.0000 0.20190  0.41210  0.26370  Biso   1.000  C
  C146     1.0000 0.79810  0.91210  0.23630  Biso   1.000  C
  C147     1.0000 0.79810  0.58790  0.73630  Biso   1.000  C
  C148     1.0000 0.20190  0.08790  0.76370  Biso   1.000  C
  C149     1.0000 0.14350  0.44550  0.23050  Biso   1.000  C
  C150     1.0000 0.85650  0.94550  0.26950  Biso   1.000  C
  C151     1.0000 0.85650  0.55450  0.76950  Biso   1.000  C
  C152     1.0000 0.14350  0.05450  0.73050  Biso   1.000  C
  C153     1.0000 0.00760  0.09400  0.20650  Biso   1.000  C
  C154     1.0000 0.99240  0.59400  0.29350  Biso   1.000  C
  C155     1.0000 0.99240  0.90600  0.79350  Biso   1.000  C
  C156     1.0000 0.00760  0.40600  0.70650  Biso   1.000  C
  C157     1.0000 0.98940  0.05780  0.26120  Biso   1.000  C
  C158     1.0000 0.01060  0.55780  0.23880  Biso   1.000  C
  C159     1.0000 0.01060  0.94220  0.73880  Biso   1.000  C
  C160     1.0000 0.98940  0.44220  0.76120  Biso   1.000  C
  C161     1.0000 0.41390  0.71720  0.99280  Biso   1.000  C
  C162     1.0000 0.58610  0.21720  0.50720  Biso   1.000  C
  C163     1.0000 0.58610  0.28280  0.00720  Biso   1.000  C
  C164     1.0000 0.41390  0.78280  0.49280  Biso   1.000  C
  H113     1.0000 0.38360  0.73760  0.99870  Biso   1.000  H
  H114     1.0000 0.61640  0.23760  0.50130  Biso   1.000  H
  H115     1.0000 0.61640  0.26240  0.00130  Biso   1.000  H
  H116     1.0000 0.38360  0.76240  0.49870  Biso   1.000  H
  C165     1.0000 0.41400  0.72050  0.93130  Biso   1.000  C
  C166     1.0000 0.58600  0.22050  0.56870  Biso   1.000  C
  C167     1.0000 0.58600  0.27950  0.06870  Biso   1.000  C
  C168     1.0000 0.41400  0.77950  0.43130  Biso   1.000  C
  H117     1.0000 0.38420  0.74480  0.89690  Biso   1.000  H
  H118     1.0000 0.61580  0.24480  0.60310  Biso   1.000  H
  H119     1.0000 0.61580  0.25520  0.10310  Biso   1.000  H
  H120     1.0000 0.38420  0.75520  0.39690  Biso   1.000  H
  C169     1.0000 0.45750  0.68810  0.92170  Biso   1.000  C
  C170     1.0000 0.54250  0.18810  0.57830  Biso   1.000  C
  C171     1.0000 0.54250  0.31190  0.07830  Biso   1.000  C
  C172     1.0000 0.45750  0.81190  0.42170  Biso   1.000  C
  H121     1.0000 0.45700  0.68740  0.88060  Biso   1.000  H
  H122     1.0000 0.54300  0.18740  0.61940  Biso   1.000  H
  H123     1.0000 0.54300  0.31260  0.11940  Biso   1.000  H
  H124     1.0000 0.45700  0.81260  0.38060  Biso   1.000  H
  C173     1.0000 0.50230  0.65630  0.97300  Biso   1.000  C
  C174     1.0000 0.49770  0.15630  0.52700  Biso   1.000  C
  C175     1.0000 0.49770  0.34370  0.02700  Biso   1.000  C
  C176     1.0000 0.50230  0.84370  0.47300  Biso   1.000  C
  C177     1.0000 0.55140  0.62390  0.96950  Biso   1.000  C
  C178     1.0000 0.44860  0.12390  0.53050  Biso   1.000  C
  C179     1.0000 0.44860  0.37610  0.03050  Biso   1.000  C
  C180     1.0000 0.55140  0.87610  0.46950  Biso   1.000  C
  H125     1.0000 0.55350  0.61980  0.92960  Biso   1.000  H
  H126     1.0000 0.44650  0.11980  0.57040  Biso   1.000  H
  H127     1.0000 0.44650  0.38020  0.07040  Biso   1.000  H
  H128     1.0000 0.55350  0.88020  0.42960  Biso   1.000  H
  C181     1.0000 0.59330  0.60000  0.02110  Biso   1.000  C
  C182     1.0000 0.40670  0.10000  0.47890  Biso   1.000  C
  C183     1.0000 0.40670  0.40000  0.97890  Biso   1.000  C
  C184     1.0000 0.59330  0.90000  0.52110  Biso   1.000  C
  H129     1.0000 0.62390  0.57740  0.01670  Biso   1.000  H
  H130     1.0000 0.37610  0.07740  0.48330  Biso   1.000  H
  H131     1.0000 0.37610  0.42260  0.98330  Biso   1.000  H
  H132     1.0000 0.62390  0.92260  0.51670  Biso   1.000  H
  C185     1.0000 0.59300  0.60790  0.08450  Biso   1.000  C
  C186     1.0000 0.40700  0.10790  0.41550  Biso   1.000  C
  C187     1.0000 0.40700  0.39210  0.91550  Biso   1.000  C
  C188     1.0000 0.59300  0.89210  0.58450  Biso   1.000  C
  C189     1.0000 0.63660  0.58890  0.14170  Biso   1.000  C
  C190     1.0000 0.36340  0.08890  0.35830  Biso   1.000  C
  C191     1.0000 0.36340  0.41110  0.85830  Biso   1.000  C
  C192     1.0000 0.63660  0.91110  0.64170  Biso   1.000  C
  H133     1.0000 0.66890  0.57000  0.14070  Biso   1.000  H
  H134     1.0000 0.33110  0.07000  0.35930  Biso   1.000  H
  H135     1.0000 0.33110  0.43000  0.85930  Biso   1.000  H
  H136     1.0000 0.66890  0.93000  0.64070  Biso   1.000  H
  C193     1.0000 0.63160  0.59810  0.19820  Biso   1.000  C
  C194     1.0000 0.36840  0.09810  0.30180  Biso   1.000  C
  C195     1.0000 0.36840  0.40190  0.80180  Biso   1.000  C
  C196     1.0000 0.63160  0.90190  0.69820  Biso   1.000  C
  H137     1.0000 0.66060  0.59010  0.23650  Biso   1.000  H
  H138     1.0000 0.33940  0.09010  0.26350  Biso   1.000  H
  H139     1.0000 0.33940  0.40990  0.76350  Biso   1.000  H
  H140     1.0000 0.66060  0.90990  0.73650  Biso   1.000  H
  C197     1.0000 0.58160  0.62020  0.19820  Biso   1.000  C
  C198     1.0000 0.41840  0.12020  0.30180  Biso   1.000  C
  C199     1.0000 0.41840  0.37980  0.80180  Biso   1.000  C
  C200     1.0000 0.58160  0.87980  0.69820  Biso   1.000  C
  H141     1.0000 0.57860  0.62270  0.23750  Biso   1.000  H
  H142     1.0000 0.42140  0.12270  0.26250  Biso   1.000  H
  H143     1.0000 0.42140  0.37730  0.76250  Biso   1.000  H
  H144     1.0000 0.57860  0.87730  0.73750  Biso   1.000  H
  C201     1.0000 0.54600  0.63220  0.08870  Biso   1.000  C
  C202     1.0000 0.45400  0.13220  0.41130  Biso   1.000  C
  C203     1.0000 0.45400  0.36780  0.91130  Biso   1.000  C
  C204     1.0000 0.54600  0.86780  0.58870  Biso   1.000  C
  C205     1.0000 0.49940  0.65970  0.03340  Biso   1.000  C
  C206     1.0000 0.50060  0.15970  0.46660  Biso   1.000  C
  C207     1.0000 0.50060  0.34030  0.96660  Biso   1.000  C
  C208     1.0000 0.49940  0.84030  0.53340  Biso   1.000  C
  C209     1.0000 0.28600  0.68360  0.01110  Biso   1.000  C
  C210     1.0000 0.71400  0.18360  0.48890  Biso   1.000  C
  C211     1.0000 0.71400  0.31640  0.98890  Biso   1.000  C
  C212     1.0000 0.28600  0.81640  0.51110  Biso   1.000  C
  C213     1.0000 0.28830  0.80360  0.00720  Biso   1.000  C
  C214     1.0000 0.71170  0.30360  0.49280  Biso   1.000  C
  C215     1.0000 0.71170  0.19640  0.99280  Biso   1.000  C
  C216     1.0000 0.28830  0.69640  0.50720  Biso   1.000  C
  H145     1.0000 0.29510  0.84930  0.04350  Biso   1.000  H
  H146     1.0000 0.70490  0.34930  0.45650  Biso   1.000  H
  H147     1.0000 0.70490  0.15070  0.95650  Biso   1.000  H
  H148     1.0000 0.29510  0.65070  0.54350  Biso   1.000  H
  C217     1.0000 0.28070  0.85780  0.94900  Biso   1.000  C
  C218     1.0000 0.71930  0.35780  0.55100  Biso   1.000  C
  C219     1.0000 0.71930  0.14220  0.05100  Biso   1.000  C
  C220     1.0000 0.28070  0.64220  0.44900  Biso   1.000  C
  H149     1.0000 0.28210  0.93930  0.94690  Biso   1.000  H
  H150     1.0000 0.71790  0.43930  0.55310  Biso   1.000  H
  H151     1.0000 0.71790  0.06070  0.05310  Biso   1.000  H
  H152     1.0000 0.28210  0.56070  0.44690  Biso   1.000  H
  C221     1.0000 0.27100  0.79190  0.89520  Biso   1.000  C
  C222     1.0000 0.72900  0.29190  0.60480  Biso   1.000  C
  C223     1.0000 0.72900  0.20810  0.10480  Biso   1.000  C
  C224     1.0000 0.27100  0.70810  0.39520  Biso   1.000  C
  H153     1.0000 0.26570  0.82810  0.85650  Biso   1.000  H
  H154     1.0000 0.73430  0.32810  0.64350  Biso   1.000  H
  H155     1.0000 0.73430  0.17190  0.14350  Biso   1.000  H
  H156     1.0000 0.26570  0.67190  0.35650  Biso   1.000  H
  C225     1.0000 0.26910  0.67250  0.89910  Biso   1.000  C
  C226     1.0000 0.73090  0.17250  0.60090  Biso   1.000  C
  C227     1.0000 0.73090  0.32750  0.10090  Biso   1.000  C
  C228     1.0000 0.26910  0.82750  0.39910  Biso   1.000  C
  H157     1.0000 0.26330  0.62720  0.86290  Biso   1.000  H
  H158     1.0000 0.73670  0.12720  0.63710  Biso   1.000  H
  H159     1.0000 0.73670  0.37280  0.13710  Biso   1.000  H
  H160     1.0000 0.26330  0.87280  0.36290  Biso   1.000  H
  C229     1.0000 0.27540  0.61830  0.95520  Biso   1.000  C
  C230     1.0000 0.72460  0.11830  0.54480  Biso   1.000  C
  C231     1.0000 0.72460  0.38170  0.04480  Biso   1.000  C
  C232     1.0000 0.27540  0.88170  0.45520  Biso   1.000  C
  H161     1.0000 0.27260  0.53690  0.95640  Biso   1.000  H
  H162     1.0000 0.72740  0.03690  0.54360  Biso   1.000  H
  H163     1.0000 0.72740  0.46310  0.04360  Biso   1.000  H
  H164     1.0000 0.27260  0.96310  0.45640  Biso   1.000  H
  C233     1.0000 0.28740  0.69040  0.12420  Biso   1.000  C
  C234     1.0000 0.71260  0.19040  0.37580  Biso   1.000  C
  C235     1.0000 0.71260  0.30960  0.87580  Biso   1.000  C
  C236     1.0000 0.28740  0.80960  0.62420  Biso   1.000  C
  C237     1.0000 0.23700  0.73520  0.10840  Biso   1.000  C
  C238     1.0000 0.76300  0.23520  0.39160  Biso   1.000  C
  C239     1.0000 0.76300  0.26480  0.89160  Biso   1.000  C
  C240     1.0000 0.23700  0.76480  0.60840  Biso   1.000  C
  H165     1.0000 0.21210  0.72670  0.06700  Biso   1.000  H
  H166     1.0000 0.78790  0.22670  0.43300  Biso   1.000  H
  H167     1.0000 0.78790  0.27330  0.93300  Biso   1.000  H
  H168     1.0000 0.21210  0.77330  0.56700  Biso   1.000  H
  C241     1.0000 0.22390  0.79200  0.15400  Biso   1.000  C
  C242     1.0000 0.77610  0.29200  0.34600  Biso   1.000  C
  C243     1.0000 0.77610  0.20800  0.84600  Biso   1.000  C
  C244     1.0000 0.22390  0.70800  0.65400  Biso   1.000  C
  H169     1.0000 0.19050  0.82270  0.14290  Biso   1.000  H
  H170     1.0000 0.80950  0.32270  0.35710  Biso   1.000  H
  H171     1.0000 0.80950  0.17730  0.85710  Biso   1.000  H
  H172     1.0000 0.19050  0.67730  0.64290  Biso   1.000  H
  C245     1.0000 0.25960  0.80280  0.21450  Biso   1.000  C
  C246     1.0000 0.74040  0.30280  0.28550  Biso   1.000  C
  C247     1.0000 0.74040  0.19720  0.78550  Biso   1.000  C
  C248     1.0000 0.25960  0.69720  0.71450  Biso   1.000  C
  H173     1.0000 0.25060  0.84050  0.24510  Biso   1.000  H
  H174     1.0000 0.74940  0.34050  0.25490  Biso   1.000  H
  H175     1.0000 0.74940  0.15950  0.75490  Biso   1.000  H
  H176     1.0000 0.25060  0.65950  0.74510  Biso   1.000  H
  C249     1.0000 0.30920  0.75820  0.23100  Biso   1.000  C
  C250     1.0000 0.69080  0.25820  0.26900  Biso   1.000  C
  C251     1.0000 0.69080  0.24180  0.76900  Biso   1.000  C
  C252     1.0000 0.30920  0.74180  0.73100  Biso   1.000  C
  H177     1.0000 0.33350  0.76640  0.27270  Biso   1.000  H
  H178     1.0000 0.66650  0.26640  0.22730  Biso   1.000  H
  H179     1.0000 0.66650  0.23360  0.72730  Biso   1.000  H
  H180     1.0000 0.33350  0.73360  0.77270  Biso   1.000  H
  C253     1.0000 0.32340  0.70090  0.18600  Biso   1.000  C
  C254     1.0000 0.67660  0.20090  0.31400  Biso   1.000  C
  C255     1.0000 0.67660  0.29910  0.81400  Biso   1.000  C
  C256     1.0000 0.32340  0.79910  0.68600  Biso   1.000  C
  H181     1.0000 0.35690  0.67010  0.19760  Biso   1.000  H
  H182     1.0000 0.64310  0.17010  0.30240  Biso   1.000  H
  H183     1.0000 0.64310  0.32990  0.80240  Biso   1.000  H
  H184     1.0000 0.35690  0.82990  0.69760  Biso   1.000  H
  C257     1.0000 0.53390  0.95700  0.17390  Biso   1.000  C
  C258     1.0000 0.46610  0.45700  0.32610  Biso   1.000  C
  C259     1.0000 0.46610  0.04300  0.82610  Biso   1.000  C
  C260     1.0000 0.53390  0.54300  0.67390  Biso   1.000  C
  C261     1.0000 0.58670  0.95880  0.21140  Biso   1.000  C
  C262     1.0000 0.41330  0.45880  0.28860  Biso   1.000  C
  C263     1.0000 0.41330  0.04120  0.78860  Biso   1.000  C
  C264     1.0000 0.58670  0.54120  0.71140  Biso   1.000  C
  H185     1.0000 0.59730  0.95680  0.25560  Biso   1.000  H
  H186     1.0000 0.40270  0.45680  0.24440  Biso   1.000  H
  H187     1.0000 0.40270  0.04320  0.74440  Biso   1.000  H
  H188     1.0000 0.59730  0.54320  0.75560  Biso   1.000  H
  C265     1.0000 0.62390  0.96330  0.18630  Biso   1.000  C
  C266     1.0000 0.37610  0.46330  0.31370  Biso   1.000  C
  C267     1.0000 0.37610  0.03670  0.81370  Biso   1.000  C
  C268     1.0000 0.62390  0.53670  0.68630  Biso   1.000  C
  H189     1.0000 0.65910  0.96610  0.21310  Biso   1.000  H
  H190     1.0000 0.34090  0.46610  0.28690  Biso   1.000  H
  H191     1.0000 0.34090  0.03390  0.78690  Biso   1.000  H
  H192     1.0000 0.65910  0.53390  0.71310  Biso   1.000  H
  C269     1.0000 0.60870  0.96370  0.12040  Biso   1.000  C
  C270     1.0000 0.39130  0.46370  0.37960  Biso   1.000  C
  C271     1.0000 0.39130  0.03630  0.87960  Biso   1.000  C
  C272     1.0000 0.60870  0.53630  0.62040  Biso   1.000  C
  H193     1.0000 0.63380  0.96590  0.10270  Biso   1.000  H
  H194     1.0000 0.36620  0.46590  0.39730  Biso   1.000  H
  H195     1.0000 0.36620  0.03410  0.89730  Biso   1.000  H
  H196     1.0000 0.63380  0.53410  0.60270  Biso   1.000  H
  C273     1.0000 0.55760  0.96090  0.08240  Biso   1.000  C
  C274     1.0000 0.44240  0.46090  0.41760  Biso   1.000  C
  C275     1.0000 0.44240  0.03910  0.91760  Biso   1.000  C
  C276     1.0000 0.55760  0.53910  0.58240  Biso   1.000  C
  H197     1.0000 0.54760  0.96010  0.03820  Biso   1.000  H
  H198     1.0000 0.45240  0.46010  0.46180  Biso   1.000  H
  H199     1.0000 0.45240  0.03990  0.96180  Biso   1.000  H
  H200     1.0000 0.54760  0.53990  0.53820  Biso   1.000  H
  C277     1.0000 0.51990  0.95920  0.10740  Biso   1.000  C
  C278     1.0000 0.48010  0.45920  0.39260  Biso   1.000  C
  C279     1.0000 0.48010  0.04080  0.89260  Biso   1.000  C
  C280     1.0000 0.51990  0.54080  0.60740  Biso   1.000  C
  H201     1.0000 0.48480  0.95940  0.08000  Biso   1.000  H
  H202     1.0000 0.51520  0.45940  0.42000  Biso   1.000  H
  H203     1.0000 0.51520  0.04060  0.92000  Biso   1.000  H
  H204     1.0000 0.48480  0.54060  0.58000  Biso   1.000  H
  C281     1.0000 0.44160  0.01130  0.16450  Biso   1.000  C
  C282     1.0000 0.55840  0.51130  0.33550  Biso   1.000  C
  C283     1.0000 0.55840  0.98870  0.83550  Biso   1.000  C
  C284     1.0000 0.44160  0.48870  0.66450  Biso   1.000  C
  C285     1.0000 0.44410  0.12950  0.15070  Biso   1.000  C
  C286     1.0000 0.55590  0.62950  0.34930  Biso   1.000  C
  C287     1.0000 0.55590  0.87050  0.84930  Biso   1.000  C
  C288     1.0000 0.44410  0.37050  0.65070  Biso   1.000  C
  H205     1.0000 0.47620  0.16280  0.15640  Biso   1.000  H
  H206     1.0000 0.52380  0.66280  0.34360  Biso   1.000  H
  H207     1.0000 0.52380  0.83720  0.84360  Biso   1.000  H
  H208     1.0000 0.47620  0.33720  0.65640  Biso   1.000  H
  C289     1.0000 0.39990  0.19770  0.12890  Biso   1.000  C
  C290     1.0000 0.60010  0.69770  0.37110  Biso   1.000  C
  C291     1.0000 0.60010  0.80230  0.87110  Biso   1.000  C
  C292     1.0000 0.39990  0.30230  0.62890  Biso   1.000  C
  H209     1.0000 0.40210  0.27710  0.12040  Biso   1.000  H
  H210     1.0000 0.59790  0.77710  0.37960  Biso   1.000  H
  H211     1.0000 0.59790  0.72290  0.87960  Biso   1.000  H
  H212     1.0000 0.40210  0.22290  0.62040  Biso   1.000  H
  C293     1.0000 0.35230  0.14840  0.11960  Biso   1.000  C
  C294     1.0000 0.64770  0.64840  0.38040  Biso   1.000  C
  C295     1.0000 0.64770  0.85160  0.88040  Biso   1.000  C
  C296     1.0000 0.35230  0.35160  0.61960  Biso   1.000  C
  H213     1.0000 0.32220  0.19420  0.10430  Biso   1.000  H
  H214     1.0000 0.67780  0.69420  0.39570  Biso   1.000  H
  H215     1.0000 0.67780  0.80580  0.89570  Biso   1.000  H
  H216     1.0000 0.32220  0.30580  0.60430  Biso   1.000  H
  C297     1.0000 0.34930  0.03110  0.13280  Biso   1.000  C
  C298     1.0000 0.65070  0.53110  0.36720  Biso   1.000  C
  C299     1.0000 0.65070  0.96890  0.86720  Biso   1.000  C
  C300     1.0000 0.34930  0.46890  0.63280  Biso   1.000  C
  H217     1.0000 0.31720  0.99740  0.12710  Biso   1.000  H
  H218     1.0000 0.68280  0.49740  0.37290  Biso   1.000  H
  H219     1.0000 0.68280  0.00260  0.87290  Biso   1.000  H
  H220     1.0000 0.31720  0.50260  0.62710  Biso   1.000  H
  C301     1.0000 0.39430  0.96420  0.15450  Biso   1.000  C
  C302     1.0000 0.60570  0.46420  0.34550  Biso   1.000  C
  C303     1.0000 0.60570  0.03580  0.84550  Biso   1.000  C
  C304     1.0000 0.39430  0.53580  0.65450  Biso   1.000  C
  H221     1.0000 0.39200  0.88450  0.16250  Biso   1.000  H
  H222     1.0000 0.60800  0.38450  0.33750  Biso   1.000  H
  H223     1.0000 0.60800  0.11550  0.83750  Biso   1.000  H
  H224     1.0000 0.39200  0.61550  0.66250  Biso   1.000  H
  C305     1.0000 0.29990  0.61950  0.07370  Biso   1.000  C
  C306     1.0000 0.70010  0.11950  0.42630  Biso   1.000  C
  C307     1.0000 0.70010  0.38050  0.92630  Biso   1.000  C
  C308     1.0000 0.29990  0.88050  0.57370  Biso   1.000  C
  C309     1.0000 0.35880  0.59050  0.09730  Biso   1.000  C
  C310     1.0000 0.64120  0.09050  0.40270  Biso   1.000  C
  C311     1.0000 0.64120  0.40950  0.90270  Biso   1.000  C
  C312     1.0000 0.35880  0.90950  0.59730  Biso   1.000  C
  C313     1.0000 0.49170  0.94230  0.19950  Biso   1.000  C
  C314     1.0000 0.50830  0.44230  0.30050  Biso   1.000  C
  C315     1.0000 0.50830  0.05770  0.80050  Biso   1.000  C
  C316     1.0000 0.49170  0.55770  0.69950  Biso   1.000  C
  C317     1.0000 0.51000  0.97960  0.27120  Biso   1.000  C
  C318     1.0000 0.49000  0.47960  0.22880  Biso   1.000  C
  C319     1.0000 0.49000  0.02040  0.72880  Biso   1.000  C
  C320     1.0000 0.51000  0.52040  0.77120  Biso   1.000  C
  Cu1      1.0000 0.03737  0.38330  0.16905  Biso   1.000  Cu
  Cu2      1.0000 0.96263  0.88330  0.33095  Biso   1.000  Cu
  Cu3      1.0000 0.96263  0.61670  0.83095  Biso   1.000  Cu
  Cu4      1.0000 0.03737  0.11670  0.66905  Biso   1.000  Cu
  Cu5      1.0000 0.46385  0.65350  0.13397  Biso   1.000  Cu
  Cu6      1.0000 0.53615  0.15350  0.36603  Biso   1.000  Cu
  Cu7      1.0000 0.53615  0.34650  0.86603  Biso   1.000  Cu
  Cu8      1.0000 0.46385  0.84650  0.63397  Biso   1.000  Cu
  N1       1.0000 0.04370  0.32780  0.08840  Biso   1.000  N
  N2       1.0000 0.95630  0.82780  0.41160  Biso   1.000  N
  N3       1.0000 0.95630  0.67220  0.91160  Biso   1.000  N
  N4       1.0000 0.04370  0.17220  0.58840  Biso   1.000  N
  N5       1.0000 0.96210  0.40560  0.10860  Biso   1.000  N
  N6       1.0000 0.03790  0.90560  0.39140  Biso   1.000  N
  N7       1.0000 0.03790  0.59440  0.89140  Biso   1.000  N
  N8       1.0000 0.96210  0.09440  0.60860  Biso   1.000  N
  N9       1.0000 0.45670  0.68510  0.04340  Biso   1.000  N
  N10      1.0000 0.54330  0.18510  0.45660  Biso   1.000  N
  N11      1.0000 0.54330  0.31490  0.95660  Biso   1.000  N
  N12      1.0000 0.45670  0.81490  0.54340  Biso   1.000  N
  N13      1.0000 0.53880  0.63760  0.14650  Biso   1.000  N
  N14      1.0000 0.46120  0.13760  0.35350  Biso   1.000  N
  N15      1.0000 0.46120  0.36240  0.85350  Biso   1.000  N
  N16      1.0000 0.53880  0.86240  0.64650  Biso   1.000  N
  O1       1.0000 0.11100  0.36390  0.21400  Biso   1.000  O
  O2       1.0000 0.88900  0.86390  0.28600  Biso   1.000  O
  O3       1.0000 0.88900  0.63610  0.78600  Biso   1.000  O
  O4       1.0000 0.11100  0.13610  0.71400  Biso   1.000  O
  O5       1.0000 0.13520  0.55260  0.22170  Biso   1.000  O
  O6       1.0000 0.86480  0.05260  0.27830  Biso   1.000  O
  O7       1.0000 0.86480  0.44740  0.77830  Biso   1.000  O
  O8       1.0000 0.13520  0.94740  0.72170  Biso   1.000  O
  O9       1.0000 0.23340  0.51450  0.27240  Biso   1.000  O
  O10      1.0000 0.76660  0.01450  0.22760  Biso   1.000  O
  O11      1.0000 0.76660  0.48550  0.72760  Biso   1.000  O
  O12      1.0000 0.23340  0.98550  0.77240  Biso   1.000  O
  H225     1.0000 0.22770  0.54490  0.23760  Biso   1.000  H
  H226     1.0000 0.77230  0.04490  0.26240  Biso   1.000  H
  H227     1.0000 0.77230  0.45510  0.76240  Biso   1.000  H
  H228     1.0000 0.22770  0.95510  0.73760  Biso   1.000  H
  O13      1.0000 0.02090  0.21560  0.21610  Biso   1.000  O
  O14      1.0000 0.97910  0.71560  0.28390  Biso   1.000  O
  O15      1.0000 0.97910  0.78440  0.78390  Biso   1.000  O
  O16      1.0000 0.02090  0.28440  0.71610  Biso   1.000  O
  O17      1.0000 0.99630  0.13200  0.30430  Biso   1.000  O
  O18      1.0000 0.00370  0.63200  0.19570  Biso   1.000  O
  O19      1.0000 0.00370  0.86800  0.69570  Biso   1.000  O
  O20      1.0000 0.99630  0.36800  0.80430  Biso   1.000  O
  O21      1.0000 0.97170  0.95540  0.25900  Biso   1.000  O
  O22      1.0000 0.02830  0.45540  0.24100  Biso   1.000  O
  O23      1.0000 0.02830  0.04460  0.74100  Biso   1.000  O
  O24      1.0000 0.97170  0.54460  0.75900  Biso   1.000  O
  O25      1.0000 0.39060  0.67290  0.10930  Biso   1.000  O
  O26      1.0000 0.60940  0.17290  0.39070  Biso   1.000  O
  O27      1.0000 0.60940  0.32710  0.89070  Biso   1.000  O
  O28      1.0000 0.39060  0.82710  0.60930  Biso   1.000  O
  O29      1.0000 0.36890  0.48330  0.09940  Biso   1.000  O
  O30      1.0000 0.63110  0.98330  0.40060  Biso   1.000  O
  O31      1.0000 0.63110  0.51670  0.90060  Biso   1.000  O
  O32      1.0000 0.36890  0.01670  0.59940  Biso   1.000  O
  O33      1.0000 0.27080  0.51240  0.06180  Biso   1.000  O
  O34      1.0000 0.72920  0.01240  0.43820  Biso   1.000  O
  O35      1.0000 0.72920  0.48760  0.93820  Biso   1.000  O
  O36      1.0000 0.27080  0.98760  0.56180  Biso   1.000  O
  H229     1.0000 0.27800  0.47660  0.09550  Biso   1.000  H
  H230     1.0000 0.72200  0.97660  0.40450  Biso   1.000  H
  H231     1.0000 0.72200  0.52340  0.90450  Biso   1.000  H
  H232     1.0000 0.27800  0.02340  0.59550  Biso   1.000  H
  O37      1.0000 0.48080  0.81820  0.19800  Biso   1.000  O
  O38      1.0000 0.51920  0.31820  0.30200  Biso   1.000  O
  O39      1.0000 0.51920  0.18180  0.80200  Biso   1.000  O
  O40      1.0000 0.48080  0.68180  0.69800  Biso   1.000  O
  O41      1.0000 0.50420  0.90610  0.30840  Biso   1.000  O
  O42      1.0000 0.49580  0.40610  0.19160  Biso   1.000  O
  O43      1.0000 0.49580  0.09390  0.69160  Biso   1.000  O
  O44      1.0000 0.50420  0.59390  0.80840  Biso   1.000  O
  O45      1.0000 0.52590  0.08440  0.28400  Biso   1.000  O
  O46      1.0000 0.47410  0.58440  0.21600  Biso   1.000  O
  O47      1.0000 0.47410  0.91560  0.71600  Biso   1.000  O
  O48      1.0000 0.52590  0.41560  0.78400  Biso   1.000  O
