data_image0
_cell_length_a       22.073
_cell_length_b       12.689
_cell_length_c       11.592
_cell_angle_alpha    90
_cell_angle_beta     90
_cell_angle_gamma    90

_symmetry_space_group_name_H-M    "P 1"
_symmetry_int_tables_number       1

loop_
  _symmetry_equiv_pos_as_xyz
  'x, y, z'

loop_
  _atom_site_label
  _atom_site_occupancy
  _atom_site_fract_x
  _atom_site_fract_y
  _atom_site_fract_z
  _atom_site_thermal_displace_type
  _atom_site_B_iso_or_equiv
  _atom_site_type_symbol
  Cu1      1.0000 0.00000  0.16030  0.13701  Biso   1.000  Cu
  Cu2      1.0000 0.50000  0.66030  0.13701  Biso   1.000  Cu
  Cu3      1.0000 0.00000  0.83970  0.63701  Biso   1.000  Cu
  Cu4      1.0000 0.00000  0.16030  0.36299  Biso   1.000  Cu
  Cu5      1.0000 0.00000  0.83970  0.86299  Biso   1.000  Cu
  Cu6      1.0000 0.50000  0.33970  0.63701  Biso   1.000  Cu
  Cu7      1.0000 0.50000  0.66030  0.36299  Biso   1.000  Cu
  Cu8      1.0000 0.50000  0.33970  0.86299  Biso   1.000  Cu
  S1       1.0000 0.25990  0.65855  0.25000  Biso   1.000  S
  S2       1.0000 0.75990  0.15855  0.25000  Biso   1.000  S
  S3       1.0000 0.74010  0.34145  0.75000  Biso   1.000  S
  S4       1.0000 0.74010  0.65855  0.25000  Biso   1.000  S
  S5       1.0000 0.25990  0.34145  0.75000  Biso   1.000  S
  S6       1.0000 0.24010  0.84145  0.75000  Biso   1.000  S
  S7       1.0000 0.24010  0.15855  0.25000  Biso   1.000  S
  S8       1.0000 0.75990  0.84145  0.75000  Biso   1.000  S
  O1       1.0000 0.06244  0.26810  0.15360  Biso   1.000  O
  O2       1.0000 0.56244  0.76810  0.15360  Biso   1.000  O
  O3       1.0000 0.93756  0.73190  0.65360  Biso   1.000  O
  O4       1.0000 0.93756  0.26810  0.34640  Biso   1.000  O
  O5       1.0000 0.06244  0.73190  0.84640  Biso   1.000  O
  O6       1.0000 0.43756  0.23190  0.65360  Biso   1.000  O
  O7       1.0000 0.43756  0.76810  0.34640  Biso   1.000  O
  O8       1.0000 0.56244  0.23190  0.84640  Biso   1.000  O
  O9       1.0000 0.93756  0.73190  0.84640  Biso   1.000  O
  O10      1.0000 0.43756  0.23190  0.84640  Biso   1.000  O
  O11      1.0000 0.06244  0.26810  0.34640  Biso   1.000  O
  O12      1.0000 0.06244  0.73190  0.65360  Biso   1.000  O
  O13      1.0000 0.93756  0.26810  0.15360  Biso   1.000  O
  O14      1.0000 0.56244  0.76810  0.34640  Biso   1.000  O
  O15      1.0000 0.56244  0.23190  0.65360  Biso   1.000  O
  O16      1.0000 0.43756  0.76810  0.15360  Biso   1.000  O
  O17      1.0000 0.29230  0.65800  0.35720  Biso   1.000  O
  O18      1.0000 0.79230  0.15800  0.35720  Biso   1.000  O
  O19      1.0000 0.70770  0.34200  0.85720  Biso   1.000  O
  O20      1.0000 0.70770  0.65800  0.14280  Biso   1.000  O
  O21      1.0000 0.29230  0.34200  0.64280  Biso   1.000  O
  O22      1.0000 0.20770  0.84200  0.85720  Biso   1.000  O
  O23      1.0000 0.20770  0.15800  0.14280  Biso   1.000  O
  O24      1.0000 0.79230  0.84200  0.64280  Biso   1.000  O
  O25      1.0000 0.70770  0.34200  0.64280  Biso   1.000  O
  O26      1.0000 0.20770  0.84200  0.64280  Biso   1.000  O
  O27      1.0000 0.29230  0.65800  0.14280  Biso   1.000  O
  O28      1.0000 0.29230  0.34200  0.85720  Biso   1.000  O
  O29      1.0000 0.70770  0.65800  0.35720  Biso   1.000  O
  O30      1.0000 0.79230  0.15800  0.14280  Biso   1.000  O
  O31      1.0000 0.79230  0.84200  0.85720  Biso   1.000  O
  O32      1.0000 0.20770  0.15800  0.35720  Biso   1.000  O
  O33      1.0000 0.06253  0.04930  0.15340  Biso   1.000  O
  O34      1.0000 0.56253  0.54930  0.15340  Biso   1.000  O
  O35      1.0000 0.93747  0.95070  0.65340  Biso   1.000  O
  O36      1.0000 0.93747  0.04930  0.34660  Biso   1.000  O
  O37      1.0000 0.06253  0.95070  0.84660  Biso   1.000  O
  O38      1.0000 0.43747  0.45070  0.65340  Biso   1.000  O
  O39      1.0000 0.43747  0.54930  0.34660  Biso   1.000  O
  O40      1.0000 0.56253  0.45070  0.84660  Biso   1.000  O
  O41      1.0000 0.93747  0.95070  0.84660  Biso   1.000  O
  O42      1.0000 0.43747  0.45070  0.84660  Biso   1.000  O
  O43      1.0000 0.06253  0.04930  0.34660  Biso   1.000  O
  O44      1.0000 0.06253  0.95070  0.65340  Biso   1.000  O
  O45      1.0000 0.93747  0.04930  0.15340  Biso   1.000  O
  O46      1.0000 0.56253  0.54930  0.34660  Biso   1.000  O
  O47      1.0000 0.56253  0.45070  0.65340  Biso   1.000  O
  O48      1.0000 0.43747  0.54930  0.15340  Biso   1.000  O
  O49      1.0000 0.00000  0.13820  0.95290  Biso   1.000  O
  O50      1.0000 0.50000  0.63820  0.95290  Biso   1.000  O
  O51      1.0000 0.00000  0.86180  0.45290  Biso   1.000  O
  O52      1.0000 0.00000  0.13820  0.54710  Biso   1.000  O
  O53      1.0000 0.00000  0.86180  0.04710  Biso   1.000  O
  O54      1.0000 0.50000  0.36180  0.45290  Biso   1.000  O
  O55      1.0000 0.50000  0.63820  0.54710  Biso   1.000  O
  O56      1.0000 0.50000  0.36180  0.04710  Biso   1.000  O
  H1       1.0000 0.00000  0.19020  0.90670  Biso   1.000  H
  H2       1.0000 0.50000  0.69020  0.90670  Biso   1.000  H
  H3       1.0000 0.00000  0.80980  0.40670  Biso   1.000  H
  H4       1.0000 0.00000  0.19020  0.59330  Biso   1.000  H
  H5       1.0000 0.00000  0.80980  0.09330  Biso   1.000  H
  H6       1.0000 0.50000  0.30980  0.40670  Biso   1.000  H
  H7       1.0000 0.50000  0.69020  0.59330  Biso   1.000  H
  H8       1.0000 0.50000  0.30980  0.09330  Biso   1.000  H
  H9       1.0000 0.01980  0.08400  0.93160  Biso   1.000  H
  H10      1.0000 0.51980  0.58400  0.93160  Biso   1.000  H
  H11      1.0000 0.98020  0.91600  0.43160  Biso   1.000  H
  H12      1.0000 0.98020  0.08400  0.56840  Biso   1.000  H
  H13      1.0000 0.01980  0.91600  0.06840  Biso   1.000  H
  H14      1.0000 0.48020  0.41600  0.43160  Biso   1.000  H
  H15      1.0000 0.48020  0.58400  0.56840  Biso   1.000  H
  H16      1.0000 0.51980  0.41600  0.06840  Biso   1.000  H
  H17      1.0000 0.98020  0.91600  0.06840  Biso   1.000  H
  H18      1.0000 0.48020  0.41600  0.06840  Biso   1.000  H
  H19      1.0000 0.01980  0.08400  0.56840  Biso   1.000  H
  H20      1.0000 0.01980  0.91600  0.43160  Biso   1.000  H
  H21      1.0000 0.98020  0.08400  0.93160  Biso   1.000  H
  H22      1.0000 0.51980  0.58400  0.56840  Biso   1.000  H
  H23      1.0000 0.51980  0.41600  0.43160  Biso   1.000  H
  H24      1.0000 0.48020  0.58400  0.93160  Biso   1.000  H
  C1       1.0000 0.08090  0.29930  0.25000  Biso   1.000  C
  C2       1.0000 0.58090  0.79930  0.25000  Biso   1.000  C
  C3       1.0000 0.91910  0.70070  0.75000  Biso   1.000  C
  C4       1.0000 0.91910  0.29930  0.25000  Biso   1.000  C
  C5       1.0000 0.08090  0.70070  0.75000  Biso   1.000  C
  C6       1.0000 0.41910  0.20070  0.75000  Biso   1.000  C
  C7       1.0000 0.41910  0.79930  0.25000  Biso   1.000  C
  C8       1.0000 0.58090  0.20070  0.75000  Biso   1.000  C
  C9       1.0000 0.12810  0.38500  0.25000  Biso   1.000  C
  C10      1.0000 0.62810  0.88500  0.25000  Biso   1.000  C
  C11      1.0000 0.87190  0.61500  0.75000  Biso   1.000  C
  C12      1.0000 0.87190  0.38500  0.25000  Biso   1.000  C
  C13      1.0000 0.12810  0.61500  0.75000  Biso   1.000  C
  C14      1.0000 0.37190  0.11500  0.75000  Biso   1.000  C
  C15      1.0000 0.37190  0.88500  0.25000  Biso   1.000  C
  C16      1.0000 0.62810  0.11500  0.75000  Biso   1.000  C
  C17      1.0000 0.14940  0.42550  0.14930  Biso   1.000  C
  C18      1.0000 0.64940  0.92550  0.14930  Biso   1.000  C
  C19      1.0000 0.85060  0.57450  0.64930  Biso   1.000  C
  C20      1.0000 0.85060  0.42550  0.35070  Biso   1.000  C
  C21      1.0000 0.14940  0.57450  0.85070  Biso   1.000  C
  C22      1.0000 0.35060  0.07450  0.64930  Biso   1.000  C
  C23      1.0000 0.35060  0.92550  0.35070  Biso   1.000  C
  C24      1.0000 0.64940  0.07450  0.85070  Biso   1.000  C
  C25      1.0000 0.85060  0.57450  0.85070  Biso   1.000  C
  C26      1.0000 0.35060  0.07450  0.85070  Biso   1.000  C
  C27      1.0000 0.14940  0.42550  0.35070  Biso   1.000  C
  C28      1.0000 0.14940  0.57450  0.64930  Biso   1.000  C
  C29      1.0000 0.85060  0.42550  0.14930  Biso   1.000  C
  C30      1.0000 0.64940  0.92550  0.35070  Biso   1.000  C
  C31      1.0000 0.64940  0.07450  0.64930  Biso   1.000  C
  C32      1.0000 0.35060  0.92550  0.14930  Biso   1.000  C
  H25      1.0000 0.13630  0.39730  0.07970  Biso   1.000  H
  H26      1.0000 0.63630  0.89730  0.07970  Biso   1.000  H
  H27      1.0000 0.86370  0.60270  0.57970  Biso   1.000  H
  H28      1.0000 0.86370  0.39730  0.42030  Biso   1.000  H
  H29      1.0000 0.13630  0.60270  0.92030  Biso   1.000  H
  H30      1.0000 0.36370  0.10270  0.57970  Biso   1.000  H
  H31      1.0000 0.36370  0.89730  0.42030  Biso   1.000  H
  H32      1.0000 0.63630  0.10270  0.92030  Biso   1.000  H
  H33      1.0000 0.86370  0.60270  0.92030  Biso   1.000  H
  H34      1.0000 0.36370  0.10270  0.92030  Biso   1.000  H
  H35      1.0000 0.13630  0.39730  0.42030  Biso   1.000  H
  H36      1.0000 0.13630  0.60270  0.57970  Biso   1.000  H
  H37      1.0000 0.86370  0.39730  0.07970  Biso   1.000  H
  H38      1.0000 0.63630  0.89730  0.42030  Biso   1.000  H
  H39      1.0000 0.63630  0.10270  0.57970  Biso   1.000  H
  H40      1.0000 0.36370  0.89730  0.07970  Biso   1.000  H
  C33      1.0000 0.19020  0.50760  0.14870  Biso   1.000  C
  C34      1.0000 0.69020  0.00760  0.14870  Biso   1.000  C
  C35      1.0000 0.80980  0.49240  0.64870  Biso   1.000  C
  C36      1.0000 0.80980  0.50760  0.35130  Biso   1.000  C
  C37      1.0000 0.19020  0.49240  0.85130  Biso   1.000  C
  C38      1.0000 0.30980  0.99240  0.64870  Biso   1.000  C
  C39      1.0000 0.30980  0.00760  0.35130  Biso   1.000  C
  C40      1.0000 0.69020  0.99240  0.85130  Biso   1.000  C
  C41      1.0000 0.80980  0.49240  0.85130  Biso   1.000  C
  C42      1.0000 0.30980  0.99240  0.85130  Biso   1.000  C
  C43      1.0000 0.19020  0.50760  0.35130  Biso   1.000  C
  C44      1.0000 0.19020  0.49240  0.64870  Biso   1.000  C
  C45      1.0000 0.80980  0.50760  0.14870  Biso   1.000  C
  C46      1.0000 0.69020  0.00760  0.35130  Biso   1.000  C
  C47      1.0000 0.69020  0.99240  0.64870  Biso   1.000  C
  C48      1.0000 0.30980  0.00760  0.14870  Biso   1.000  C
  H41      1.0000 0.20410  0.53460  0.07910  Biso   1.000  H
  H42      1.0000 0.70410  0.03460  0.07910  Biso   1.000  H
  H43      1.0000 0.79590  0.46540  0.57910  Biso   1.000  H
  H44      1.0000 0.79590  0.53460  0.42090  Biso   1.000  H
  H45      1.0000 0.20410  0.46540  0.92090  Biso   1.000  H
  H46      1.0000 0.29590  0.96540  0.57910  Biso   1.000  H
  H47      1.0000 0.29590  0.03460  0.42090  Biso   1.000  H
  H48      1.0000 0.70410  0.96540  0.92090  Biso   1.000  H
  H49      1.0000 0.79590  0.46540  0.92090  Biso   1.000  H
  H50      1.0000 0.29590  0.96540  0.92090  Biso   1.000  H
  H51      1.0000 0.20410  0.53460  0.42090  Biso   1.000  H
  H52      1.0000 0.20410  0.46540  0.57910  Biso   1.000  H
  H53      1.0000 0.79590  0.53460  0.07910  Biso   1.000  H
  H54      1.0000 0.70410  0.03460  0.42090  Biso   1.000  H
  H55      1.0000 0.70410  0.96540  0.57910  Biso   1.000  H
  H56      1.0000 0.29590  0.03460  0.07910  Biso   1.000  H
  C49      1.0000 0.21000  0.54910  0.25000  Biso   1.000  C
  C50      1.0000 0.71000  0.04910  0.25000  Biso   1.000  C
  C51      1.0000 0.79000  0.45090  0.75000  Biso   1.000  C
  C52      1.0000 0.79000  0.54910  0.25000  Biso   1.000  C
  C53      1.0000 0.21000  0.45090  0.75000  Biso   1.000  C
  C54      1.0000 0.29000  0.95090  0.75000  Biso   1.000  C
  C55      1.0000 0.29000  0.04910  0.25000  Biso   1.000  C
  C56      1.0000 0.71000  0.95090  0.75000  Biso   1.000  C
  C57      1.0000 0.20980  0.76760  0.25000  Biso   1.000  C
  C58      1.0000 0.70980  0.26760  0.25000  Biso   1.000  C
  C59      1.0000 0.79020  0.23240  0.75000  Biso   1.000  C
  C60      1.0000 0.79020  0.76760  0.25000  Biso   1.000  C
  C61      1.0000 0.20980  0.23240  0.75000  Biso   1.000  C
  C62      1.0000 0.29020  0.73240  0.75000  Biso   1.000  C
  C63      1.0000 0.29020  0.26760  0.25000  Biso   1.000  C
  C64      1.0000 0.70980  0.73240  0.75000  Biso   1.000  C
  C65      1.0000 0.18970  0.80840  0.35420  Biso   1.000  C
  C66      1.0000 0.68970  0.30840  0.35420  Biso   1.000  C
  C67      1.0000 0.81030  0.19160  0.85420  Biso   1.000  C
  C68      1.0000 0.81030  0.80840  0.14580  Biso   1.000  C
  C69      1.0000 0.18970  0.19160  0.64580  Biso   1.000  C
  C70      1.0000 0.31030  0.69160  0.85420  Biso   1.000  C
  C71      1.0000 0.31030  0.30840  0.14580  Biso   1.000  C
  C72      1.0000 0.68970  0.69160  0.64580  Biso   1.000  C
  C73      1.0000 0.81030  0.19160  0.64580  Biso   1.000  C
  C74      1.0000 0.31030  0.69160  0.64580  Biso   1.000  C
  C75      1.0000 0.18970  0.80840  0.14580  Biso   1.000  C
  C76      1.0000 0.18970  0.19160  0.85420  Biso   1.000  C
  C77      1.0000 0.81030  0.80840  0.35420  Biso   1.000  C
  C78      1.0000 0.68970  0.30840  0.14580  Biso   1.000  C
  C79      1.0000 0.68970  0.69160  0.85420  Biso   1.000  C
  C80      1.0000 0.31030  0.30840  0.35420  Biso   1.000  C
  H57      1.0000 0.20370  0.78070  0.42360  Biso   1.000  H
  H58      1.0000 0.70370  0.28070  0.42360  Biso   1.000  H
  H59      1.0000 0.79630  0.21930  0.92360  Biso   1.000  H
  H60      1.0000 0.79630  0.78070  0.07640  Biso   1.000  H
  H61      1.0000 0.20370  0.21930  0.57640  Biso   1.000  H
  H62      1.0000 0.29630  0.71930  0.92360  Biso   1.000  H
  H63      1.0000 0.29630  0.28070  0.07640  Biso   1.000  H
  H64      1.0000 0.70370  0.71930  0.57640  Biso   1.000  H
  H65      1.0000 0.79630  0.21930  0.57640  Biso   1.000  H
  H66      1.0000 0.29630  0.71930  0.57640  Biso   1.000  H
  H67      1.0000 0.20370  0.78070  0.07640  Biso   1.000  H
  H68      1.0000 0.20370  0.21930  0.92360  Biso   1.000  H
  H69      1.0000 0.79630  0.78070  0.42360  Biso   1.000  H
  H70      1.0000 0.70370  0.28070  0.07640  Biso   1.000  H
  H71      1.0000 0.70370  0.71930  0.92360  Biso   1.000  H
  H72      1.0000 0.29630  0.28070  0.42360  Biso   1.000  H
  C81      1.0000 0.14887  0.89050  0.35340  Biso   1.000  C
  C82      1.0000 0.64887  0.39050  0.35340  Biso   1.000  C
  C83      1.0000 0.85113  0.10950  0.85340  Biso   1.000  C
  C84      1.0000 0.85113  0.89050  0.14660  Biso   1.000  C
  C85      1.0000 0.14887  0.10950  0.64660  Biso   1.000  C
  C86      1.0000 0.35113  0.60950  0.85340  Biso   1.000  C
  C87      1.0000 0.35113  0.39050  0.14660  Biso   1.000  C
  C88      1.0000 0.64887  0.60950  0.64660  Biso   1.000  C
  C89      1.0000 0.85113  0.10950  0.64660  Biso   1.000  C
  C90      1.0000 0.35113  0.60950  0.64660  Biso   1.000  C
  C91      1.0000 0.14887  0.89050  0.14660  Biso   1.000  C
  C92      1.0000 0.14887  0.10950  0.85340  Biso   1.000  C
  C93      1.0000 0.85113  0.89050  0.35340  Biso   1.000  C
  C94      1.0000 0.64887  0.39050  0.14660  Biso   1.000  C
  C95      1.0000 0.64887  0.60950  0.85340  Biso   1.000  C
  C96      1.0000 0.35113  0.39050  0.35340  Biso   1.000  C
  H73      1.0000 0.13520  0.91850  0.42280  Biso   1.000  H
  H74      1.0000 0.63520  0.41850  0.42280  Biso   1.000  H
  H75      1.0000 0.86480  0.08150  0.92280  Biso   1.000  H
  H76      1.0000 0.86480  0.91850  0.07720  Biso   1.000  H
  H77      1.0000 0.13520  0.08150  0.57720  Biso   1.000  H
  H78      1.0000 0.36480  0.58150  0.92280  Biso   1.000  H
  H79      1.0000 0.36480  0.41850  0.07720  Biso   1.000  H
  H80      1.0000 0.63520  0.58150  0.57720  Biso   1.000  H
  H81      1.0000 0.86480  0.08150  0.57720  Biso   1.000  H
  H82      1.0000 0.36480  0.58150  0.57720  Biso   1.000  H
  H83      1.0000 0.13520  0.91850  0.07720  Biso   1.000  H
  H84      1.0000 0.13520  0.08150  0.92280  Biso   1.000  H
  H85      1.0000 0.86480  0.91850  0.42280  Biso   1.000  H
  H86      1.0000 0.63520  0.41850  0.07720  Biso   1.000  H
  H87      1.0000 0.63520  0.58150  0.92280  Biso   1.000  H
  H88      1.0000 0.36480  0.41850  0.42280  Biso   1.000  H
  C97      1.0000 0.12800  0.93170  0.25000  Biso   1.000  C
  C98      1.0000 0.62800  0.43170  0.25000  Biso   1.000  C
  C99      1.0000 0.87200  0.06830  0.75000  Biso   1.000  C
  C100     1.0000 0.87200  0.93170  0.25000  Biso   1.000  C
  C101     1.0000 0.12800  0.06830  0.75000  Biso   1.000  C
  C102     1.0000 0.37200  0.56830  0.75000  Biso   1.000  C
  C103     1.0000 0.37200  0.43170  0.25000  Biso   1.000  C
  C104     1.0000 0.62800  0.56830  0.75000  Biso   1.000  C
  C105     1.0000 0.08100  0.01790  0.25000  Biso   1.000  C
  C106     1.0000 0.58100  0.51790  0.25000  Biso   1.000  C
  C107     1.0000 0.91900  0.98210  0.75000  Biso   1.000  C
  C108     1.0000 0.91900  0.01790  0.25000  Biso   1.000  C
  C109     1.0000 0.08100  0.98210  0.75000  Biso   1.000  C
  C110     1.0000 0.41900  0.48210  0.75000  Biso   1.000  C
  C111     1.0000 0.41900  0.51790  0.25000  Biso   1.000  C
  C112     1.0000 0.58100  0.48210  0.75000  Biso   1.000  C
  O57      1.0000 0.00000  0.25580  0.75000  Biso   1.000  O
  O58      1.0000 0.50000  0.75580  0.75000  Biso   1.000  O
  O59      1.0000 0.00000  0.74420  0.25000  Biso   1.000  O
  O60      1.0000 0.50000  0.24420  0.25000  Biso   1.000  O
  C113     1.0000 0.00000  0.36600  0.75000  Biso   1.000  C
  C114     1.0000 0.50000  0.86600  0.75000  Biso   1.000  C
  C115     1.0000 0.00000  0.63400  0.25000  Biso   1.000  C
  C116     1.0000 0.50000  0.13400  0.25000  Biso   1.000  C
  C117     1.0000 0.00000  0.41100  0.87400  Biso   1.000  C
  C118     1.0000 0.50000  0.91100  0.87400  Biso   1.000  C
  C119     1.0000 0.00000  0.58900  0.37400  Biso   1.000  C
  C120     1.0000 0.00000  0.41100  0.62600  Biso   1.000  C
  C121     1.0000 0.00000  0.58900  0.12600  Biso   1.000  C
  C122     1.0000 0.50000  0.08900  0.37400  Biso   1.000  C
  C123     1.0000 0.50000  0.91100  0.62600  Biso   1.000  C
  C124     1.0000 0.50000  0.08900  0.12600  Biso   1.000  C
  O61      1.0000 0.02820  0.26330  0.75000  Biso   1.000  O
  O62      1.0000 0.52820  0.76330  0.75000  Biso   1.000  O
  O63      1.0000 0.97180  0.73670  0.25000  Biso   1.000  O
  O64      1.0000 0.97180  0.26330  0.75000  Biso   1.000  O
  O65      1.0000 0.02820  0.73670  0.25000  Biso   1.000  O
  O66      1.0000 0.47180  0.23670  0.25000  Biso   1.000  O
  O67      1.0000 0.47180  0.76330  0.75000  Biso   1.000  O
  O68      1.0000 0.52820  0.23670  0.25000  Biso   1.000  O
  C125     1.0000 0.02280  0.37300  0.75000  Biso   1.000  C
  C126     1.0000 0.52280  0.87300  0.75000  Biso   1.000  C
  C127     1.0000 0.97720  0.62700  0.25000  Biso   1.000  C
  C128     1.0000 0.97720  0.37300  0.75000  Biso   1.000  C
  C129     1.0000 0.02280  0.62700  0.25000  Biso   1.000  C
  C130     1.0000 0.47720  0.12700  0.25000  Biso   1.000  C
  C131     1.0000 0.47720  0.87300  0.75000  Biso   1.000  C
  C132     1.0000 0.52280  0.12700  0.25000  Biso   1.000  C
  C133     1.0000 0.98260  0.41500  0.85000  Biso   1.000  C
  C134     1.0000 0.48260  0.91500  0.85000  Biso   1.000  C
  C135     1.0000 0.01740  0.58500  0.35000  Biso   1.000  C
  C136     1.0000 0.01740  0.41500  0.65000  Biso   1.000  C
  C137     1.0000 0.98260  0.58500  0.15000  Biso   1.000  C
  C138     1.0000 0.51740  0.08500  0.35000  Biso   1.000  C
  C139     1.0000 0.51740  0.91500  0.65000  Biso   1.000  C
  C140     1.0000 0.48260  0.08500  0.15000  Biso   1.000  C
  C141     1.0000 0.01740  0.58500  0.15000  Biso   1.000  C
  C142     1.0000 0.51740  0.08500  0.15000  Biso   1.000  C
  C143     1.0000 0.98260  0.41500  0.65000  Biso   1.000  C
  C144     1.0000 0.98260  0.58500  0.35000  Biso   1.000  C
  C145     1.0000 0.01740  0.41500  0.85000  Biso   1.000  C
  C146     1.0000 0.48260  0.91500  0.65000  Biso   1.000  C
  C147     1.0000 0.48260  0.08500  0.35000  Biso   1.000  C
  C148     1.0000 0.51740  0.91500  0.85000  Biso   1.000  C
