data_image0
_cell_length_a       12.694
_cell_length_b       13.983
_cell_length_c       21.823
_cell_angle_alpha    90
_cell_angle_beta     90
_cell_angle_gamma    90

_symmetry_space_group_name_H-M    "P 1"
_symmetry_int_tables_number       1

loop_
  _symmetry_equiv_pos_as_xyz
  'x, y, z'

loop_
  _atom_site_label
  _atom_site_occupancy
  _atom_site_fract_x
  _atom_site_fract_y
  _atom_site_fract_z
  _atom_site_thermal_displace_type
  _atom_site_B_iso_or_equiv
  _atom_site_type_symbol
  Cu1      1.0000 0.00000  0.79604  0.25000  Biso   1.000  Cu
  Cu2      1.0000 0.50000  0.29604  0.25000  Biso   1.000  Cu
  Cu3      1.0000 0.00000  0.20396  0.75000  Biso   1.000  Cu
  Cu4      1.0000 0.50000  0.70396  0.75000  Biso   1.000  Cu
  Cu5      1.0000 0.00000  0.60698  0.25000  Biso   1.000  Cu
  Cu6      1.0000 0.50000  0.10698  0.25000  Biso   1.000  Cu
  Cu7      1.0000 0.00000  0.39302  0.75000  Biso   1.000  Cu
  Cu8      1.0000 0.50000  0.89302  0.75000  Biso   1.000  Cu
  S1       1.0000 0.50000  0.69680  0.51412  Biso   1.000  S
  S2       1.0000 0.00000  0.19680  0.51412  Biso   1.000  S
  S3       1.0000 0.50000  0.30320  0.01412  Biso   1.000  S
  S4       1.0000 0.50000  0.69680  0.98588  Biso   1.000  S
  S5       1.0000 0.50000  0.30320  0.48588  Biso   1.000  S
  S6       1.0000 0.00000  0.80320  0.01412  Biso   1.000  S
  S7       1.0000 0.00000  0.19680  0.98588  Biso   1.000  S
  S8       1.0000 0.00000  0.80320  0.48588  Biso   1.000  S
  O1       1.0000 0.88940  0.78070  0.31370  Biso   1.000  O
  O2       1.0000 0.38940  0.28070  0.31370  Biso   1.000  O
  O3       1.0000 0.11060  0.21930  0.81370  Biso   1.000  O
  O4       1.0000 0.11060  0.78070  0.18630  Biso   1.000  O
  O5       1.0000 0.88940  0.21930  0.68630  Biso   1.000  O
  O6       1.0000 0.61060  0.71930  0.81370  Biso   1.000  O
  O7       1.0000 0.61060  0.28070  0.18630  Biso   1.000  O
  O8       1.0000 0.38940  0.71930  0.68630  Biso   1.000  O
  O9       1.0000 0.11060  0.21930  0.68630  Biso   1.000  O
  O10      1.0000 0.61060  0.71930  0.68630  Biso   1.000  O
  O11      1.0000 0.88940  0.78070  0.18630  Biso   1.000  O
  O12      1.0000 0.88940  0.21930  0.81370  Biso   1.000  O
  O13      1.0000 0.11060  0.78070  0.31370  Biso   1.000  O
  O14      1.0000 0.38940  0.28070  0.18630  Biso   1.000  O
  O15      1.0000 0.38940  0.71930  0.81370  Biso   1.000  O
  O16      1.0000 0.61060  0.28070  0.31370  Biso   1.000  O
  O17      1.0000 0.89160  0.62070  0.31370  Biso   1.000  O
  O18      1.0000 0.39160  0.12070  0.31370  Biso   1.000  O
  O19      1.0000 0.10840  0.37930  0.81370  Biso   1.000  O
  O20      1.0000 0.10840  0.62070  0.18630  Biso   1.000  O
  O21      1.0000 0.89160  0.37930  0.68630  Biso   1.000  O
  O22      1.0000 0.60840  0.87930  0.81370  Biso   1.000  O
  O23      1.0000 0.60840  0.12070  0.18630  Biso   1.000  O
  O24      1.0000 0.39160  0.87930  0.68630  Biso   1.000  O
  O25      1.0000 0.10840  0.37930  0.68630  Biso   1.000  O
  O26      1.0000 0.60840  0.87930  0.68630  Biso   1.000  O
  O27      1.0000 0.89160  0.62070  0.18630  Biso   1.000  O
  O28      1.0000 0.89160  0.37930  0.81370  Biso   1.000  O
  O29      1.0000 0.10840  0.62070  0.31370  Biso   1.000  O
  O30      1.0000 0.39160  0.12070  0.18630  Biso   1.000  O
  O31      1.0000 0.39160  0.87930  0.81370  Biso   1.000  O
  O32      1.0000 0.60840  0.12070  0.31370  Biso   1.000  O
  O33      1.0000 0.50000  0.60610  0.54590  Biso   1.000  O
  O34      1.0000 0.00000  0.10610  0.54590  Biso   1.000  O
  O35      1.0000 0.50000  0.39390  0.04590  Biso   1.000  O
  O36      1.0000 0.50000  0.60610  0.95410  Biso   1.000  O
  O37      1.0000 0.50000  0.39390  0.45410  Biso   1.000  O
  O38      1.0000 0.00000  0.89390  0.04590  Biso   1.000  O
  O39      1.0000 0.00000  0.10610  0.95410  Biso   1.000  O
  O40      1.0000 0.00000  0.89390  0.45410  Biso   1.000  O
  O41      1.0000 0.50000  0.78430  0.54840  Biso   1.000  O
  O42      1.0000 0.00000  0.28430  0.54840  Biso   1.000  O
  O43      1.0000 0.50000  0.21570  0.04840  Biso   1.000  O
  O44      1.0000 0.50000  0.78430  0.95160  Biso   1.000  O
  O45      1.0000 0.50000  0.21570  0.45160  Biso   1.000  O
  O46      1.0000 0.00000  0.71570  0.04840  Biso   1.000  O
  O47      1.0000 0.00000  0.28430  0.95160  Biso   1.000  O
  O48      1.0000 0.00000  0.71570  0.45160  Biso   1.000  O
  N1       1.0000 0.00000  0.45520  0.25000  Biso   1.000  N
  N2       1.0000 0.50000  0.95520  0.25000  Biso   1.000  N
  N3       1.0000 0.00000  0.54480  0.75000  Biso   1.000  N
  N4       1.0000 0.50000  0.04480  0.75000  Biso   1.000  N
  N5       1.0000 0.00000  0.94590  0.25000  Biso   1.000  N
  N6       1.0000 0.50000  0.44590  0.25000  Biso   1.000  N
  N7       1.0000 0.00000  0.05410  0.75000  Biso   1.000  N
  N8       1.0000 0.50000  0.55410  0.75000  Biso   1.000  N
  C1       1.0000 0.85820  0.70060  0.33240  Biso   1.000  C
  C2       1.0000 0.35820  0.20060  0.33240  Biso   1.000  C
  C3       1.0000 0.14180  0.29940  0.83240  Biso   1.000  C
  C4       1.0000 0.14180  0.70060  0.16760  Biso   1.000  C
  C5       1.0000 0.85820  0.29940  0.66760  Biso   1.000  C
  C6       1.0000 0.64180  0.79940  0.83240  Biso   1.000  C
  C7       1.0000 0.64180  0.20060  0.16760  Biso   1.000  C
  C8       1.0000 0.35820  0.79940  0.66760  Biso   1.000  C
  C9       1.0000 0.14180  0.29940  0.66760  Biso   1.000  C
  C10      1.0000 0.64180  0.79940  0.66760  Biso   1.000  C
  C11      1.0000 0.85820  0.70060  0.16760  Biso   1.000  C
  C12      1.0000 0.85820  0.29940  0.83240  Biso   1.000  C
  C13      1.0000 0.14180  0.70060  0.33240  Biso   1.000  C
  C14      1.0000 0.35820  0.20060  0.16760  Biso   1.000  C
  C15      1.0000 0.35820  0.79940  0.83240  Biso   1.000  C
  C16      1.0000 0.64180  0.20060  0.33240  Biso   1.000  C
  C17      1.0000 0.77270  0.70060  0.37980  Biso   1.000  C
  C18      1.0000 0.27270  0.20060  0.37980  Biso   1.000  C
  C19      1.0000 0.22730  0.29940  0.87980  Biso   1.000  C
  C20      1.0000 0.22730  0.70060  0.12020  Biso   1.000  C
  C21      1.0000 0.77270  0.29940  0.62020  Biso   1.000  C
  C22      1.0000 0.72730  0.79940  0.87980  Biso   1.000  C
  C23      1.0000 0.72730  0.20060  0.12020  Biso   1.000  C
  C24      1.0000 0.27270  0.79940  0.62020  Biso   1.000  C
  C25      1.0000 0.22730  0.29940  0.62020  Biso   1.000  C
  C26      1.0000 0.72730  0.79940  0.62020  Biso   1.000  C
  C27      1.0000 0.77270  0.70060  0.12020  Biso   1.000  C
  C28      1.0000 0.77270  0.29940  0.87980  Biso   1.000  C
  C29      1.0000 0.22730  0.70060  0.37980  Biso   1.000  C
  C30      1.0000 0.27270  0.20060  0.12020  Biso   1.000  C
  C31      1.0000 0.27270  0.79940  0.87980  Biso   1.000  C
  C32      1.0000 0.72730  0.20060  0.37980  Biso   1.000  C
  C33      1.0000 0.73220  0.61430  0.40100  Biso   1.000  C
  C34      1.0000 0.23220  0.11430  0.40100  Biso   1.000  C
  C35      1.0000 0.26780  0.38570  0.90100  Biso   1.000  C
  C36      1.0000 0.26780  0.61430  0.09900  Biso   1.000  C
  C37      1.0000 0.73220  0.38570  0.59900  Biso   1.000  C
  C38      1.0000 0.76780  0.88570  0.90100  Biso   1.000  C
  C39      1.0000 0.76780  0.11430  0.09900  Biso   1.000  C
  C40      1.0000 0.23220  0.88570  0.59900  Biso   1.000  C
  C41      1.0000 0.26780  0.38570  0.59900  Biso   1.000  C
  C42      1.0000 0.76780  0.88570  0.59900  Biso   1.000  C
  C43      1.0000 0.73220  0.61430  0.09900  Biso   1.000  C
  C44      1.0000 0.73220  0.38570  0.90100  Biso   1.000  C
  C45      1.0000 0.26780  0.61430  0.40100  Biso   1.000  C
  C46      1.0000 0.23220  0.11430  0.09900  Biso   1.000  C
  C47      1.0000 0.23220  0.88570  0.90100  Biso   1.000  C
  C48      1.0000 0.76780  0.11430  0.40100  Biso   1.000  C
  H1       1.0000 0.76030  0.55690  0.38690  Biso   1.000  H
  H2       1.0000 0.26030  0.05690  0.38690  Biso   1.000  H
  H3       1.0000 0.23970  0.44310  0.88690  Biso   1.000  H
  H4       1.0000 0.23970  0.55690  0.11310  Biso   1.000  H
  H5       1.0000 0.76030  0.44310  0.61310  Biso   1.000  H
  H6       1.0000 0.73970  0.94310  0.88690  Biso   1.000  H
  H7       1.0000 0.73970  0.05690  0.11310  Biso   1.000  H
  H8       1.0000 0.26030  0.94310  0.61310  Biso   1.000  H
  H9       1.0000 0.23970  0.44310  0.61310  Biso   1.000  H
  H10      1.0000 0.73970  0.94310  0.61310  Biso   1.000  H
  H11      1.0000 0.76030  0.55690  0.11310  Biso   1.000  H
  H12      1.0000 0.76030  0.44310  0.88690  Biso   1.000  H
  H13      1.0000 0.23970  0.55690  0.38690  Biso   1.000  H
  H14      1.0000 0.26030  0.05690  0.11310  Biso   1.000  H
  H15      1.0000 0.26030  0.94310  0.88690  Biso   1.000  H
  H16      1.0000 0.73970  0.05690  0.38690  Biso   1.000  H
  C49      1.0000 0.65040  0.61340  0.44300  Biso   1.000  C
  C50      1.0000 0.15040  0.11340  0.44300  Biso   1.000  C
  C51      1.0000 0.34960  0.38660  0.94300  Biso   1.000  C
  C52      1.0000 0.34960  0.61340  0.05700  Biso   1.000  C
  C53      1.0000 0.65040  0.38660  0.55700  Biso   1.000  C
  C54      1.0000 0.84960  0.88660  0.94300  Biso   1.000  C
  C55      1.0000 0.84960  0.11340  0.05700  Biso   1.000  C
  C56      1.0000 0.15040  0.88660  0.55700  Biso   1.000  C
  C57      1.0000 0.34960  0.38660  0.55700  Biso   1.000  C
  C58      1.0000 0.84960  0.88660  0.55700  Biso   1.000  C
  C59      1.0000 0.65040  0.61340  0.05700  Biso   1.000  C
  C60      1.0000 0.65040  0.38660  0.94300  Biso   1.000  C
  C61      1.0000 0.34960  0.61340  0.44300  Biso   1.000  C
  C62      1.0000 0.15040  0.11340  0.05700  Biso   1.000  C
  C63      1.0000 0.15040  0.88660  0.94300  Biso   1.000  C
  C64      1.0000 0.84960  0.11340  0.44300  Biso   1.000  C
  H17      1.0000 0.62350  0.55550  0.45700  Biso   1.000  H
  H18      1.0000 0.12350  0.05550  0.45700  Biso   1.000  H
  H19      1.0000 0.37650  0.44450  0.95700  Biso   1.000  H
  H20      1.0000 0.37650  0.55550  0.04300  Biso   1.000  H
  H21      1.0000 0.62350  0.44450  0.54300  Biso   1.000  H
  H22      1.0000 0.87650  0.94450  0.95700  Biso   1.000  H
  H23      1.0000 0.87650  0.05550  0.04300  Biso   1.000  H
  H24      1.0000 0.12350  0.94450  0.54300  Biso   1.000  H
  H25      1.0000 0.37650  0.44450  0.54300  Biso   1.000  H
  H26      1.0000 0.87650  0.94450  0.54300  Biso   1.000  H
  H27      1.0000 0.62350  0.55550  0.04300  Biso   1.000  H
  H28      1.0000 0.62350  0.44450  0.95700  Biso   1.000  H
  H29      1.0000 0.37650  0.55550  0.45700  Biso   1.000  H
  H30      1.0000 0.12350  0.05550  0.04300  Biso   1.000  H
  H31      1.0000 0.12350  0.94450  0.95700  Biso   1.000  H
  H32      1.0000 0.87650  0.05550  0.45700  Biso   1.000  H
  C65      1.0000 0.60890  0.69810  0.46380  Biso   1.000  C
  C66      1.0000 0.10890  0.19810  0.46380  Biso   1.000  C
  C67      1.0000 0.39110  0.30190  0.96380  Biso   1.000  C
  C68      1.0000 0.39110  0.69810  0.03620  Biso   1.000  C
  C69      1.0000 0.60890  0.30190  0.53620  Biso   1.000  C
  C70      1.0000 0.89110  0.80190  0.96380  Biso   1.000  C
  C71      1.0000 0.89110  0.19810  0.03620  Biso   1.000  C
  C72      1.0000 0.10890  0.80190  0.53620  Biso   1.000  C
  C73      1.0000 0.39110  0.30190  0.53620  Biso   1.000  C
  C74      1.0000 0.89110  0.80190  0.53620  Biso   1.000  C
  C75      1.0000 0.60890  0.69810  0.03620  Biso   1.000  C
  C76      1.0000 0.60890  0.30190  0.96380  Biso   1.000  C
  C77      1.0000 0.39110  0.69810  0.46380  Biso   1.000  C
  C78      1.0000 0.10890  0.19810  0.03620  Biso   1.000  C
  C79      1.0000 0.10890  0.80190  0.96380  Biso   1.000  C
  C80      1.0000 0.89110  0.19810  0.46380  Biso   1.000  C
  C81      1.0000 0.64860  0.78440  0.44360  Biso   1.000  C
  C82      1.0000 0.14860  0.28440  0.44360  Biso   1.000  C
  C83      1.0000 0.35140  0.21560  0.94360  Biso   1.000  C
  C84      1.0000 0.35140  0.78440  0.05640  Biso   1.000  C
  C85      1.0000 0.64860  0.21560  0.55640  Biso   1.000  C
  C86      1.0000 0.85140  0.71560  0.94360  Biso   1.000  C
  C87      1.0000 0.85140  0.28440  0.05640  Biso   1.000  C
  C88      1.0000 0.14860  0.71560  0.55640  Biso   1.000  C
  C89      1.0000 0.35140  0.21560  0.55640  Biso   1.000  C
  C90      1.0000 0.85140  0.71560  0.55640  Biso   1.000  C
  C91      1.0000 0.64860  0.78440  0.05640  Biso   1.000  C
  C92      1.0000 0.64860  0.21560  0.94360  Biso   1.000  C
  C93      1.0000 0.35140  0.78440  0.44360  Biso   1.000  C
  C94      1.0000 0.14860  0.28440  0.05640  Biso   1.000  C
  C95      1.0000 0.14860  0.71560  0.94360  Biso   1.000  C
  C96      1.0000 0.85140  0.28440  0.44360  Biso   1.000  C
  H33      1.0000 0.62100  0.84160  0.45810  Biso   1.000  H
  H34      1.0000 0.12100  0.34160  0.45810  Biso   1.000  H
  H35      1.0000 0.37900  0.15840  0.95810  Biso   1.000  H
  H36      1.0000 0.37900  0.84160  0.04190  Biso   1.000  H
  H37      1.0000 0.62100  0.15840  0.54190  Biso   1.000  H
  H38      1.0000 0.87900  0.65840  0.95810  Biso   1.000  H
  H39      1.0000 0.87900  0.34160  0.04190  Biso   1.000  H
  H40      1.0000 0.12100  0.65840  0.54190  Biso   1.000  H
  H41      1.0000 0.37900  0.15840  0.54190  Biso   1.000  H
  H42      1.0000 0.87900  0.65840  0.54190  Biso   1.000  H
  H43      1.0000 0.62100  0.84160  0.04190  Biso   1.000  H
  H44      1.0000 0.62100  0.15840  0.95810  Biso   1.000  H
  H45      1.0000 0.37900  0.84160  0.45810  Biso   1.000  H
  H46      1.0000 0.12100  0.34160  0.04190  Biso   1.000  H
  H47      1.0000 0.12100  0.65840  0.95810  Biso   1.000  H
  H48      1.0000 0.87900  0.34160  0.45810  Biso   1.000  H
  C97      1.0000 0.73050  0.78490  0.40120  Biso   1.000  C
  C98      1.0000 0.23050  0.28490  0.40120  Biso   1.000  C
  C99      1.0000 0.26950  0.21510  0.90120  Biso   1.000  C
  C100     1.0000 0.26950  0.78490  0.09880  Biso   1.000  C
  C101     1.0000 0.73050  0.21510  0.59880  Biso   1.000  C
  C102     1.0000 0.76950  0.71510  0.90120  Biso   1.000  C
  C103     1.0000 0.76950  0.28490  0.09880  Biso   1.000  C
  C104     1.0000 0.23050  0.71510  0.59880  Biso   1.000  C
  C105     1.0000 0.26950  0.21510  0.59880  Biso   1.000  C
  C106     1.0000 0.76950  0.71510  0.59880  Biso   1.000  C
  C107     1.0000 0.73050  0.78490  0.09880  Biso   1.000  C
  C108     1.0000 0.73050  0.21510  0.90120  Biso   1.000  C
  C109     1.0000 0.26950  0.78490  0.40120  Biso   1.000  C
  C110     1.0000 0.23050  0.28490  0.09880  Biso   1.000  C
  C111     1.0000 0.23050  0.71510  0.90120  Biso   1.000  C
  C112     1.0000 0.76950  0.28490  0.40120  Biso   1.000  C
  H49      1.0000 0.75700  0.84290  0.38710  Biso   1.000  H
  H50      1.0000 0.25700  0.34290  0.38710  Biso   1.000  H
  H51      1.0000 0.24300  0.15710  0.88710  Biso   1.000  H
  H52      1.0000 0.24300  0.84290  0.11290  Biso   1.000  H
  H53      1.0000 0.75700  0.15710  0.61290  Biso   1.000  H
  H54      1.0000 0.74300  0.65710  0.88710  Biso   1.000  H
  H55      1.0000 0.74300  0.34290  0.11290  Biso   1.000  H
  H56      1.0000 0.25700  0.65710  0.61290  Biso   1.000  H
  H57      1.0000 0.24300  0.15710  0.61290  Biso   1.000  H
  H58      1.0000 0.74300  0.65710  0.61290  Biso   1.000  H
  H59      1.0000 0.75700  0.84290  0.11290  Biso   1.000  H
  H60      1.0000 0.75700  0.15710  0.88710  Biso   1.000  H
  H61      1.0000 0.24300  0.84290  0.38710  Biso   1.000  H
  H62      1.0000 0.25700  0.34290  0.11290  Biso   1.000  H
  H63      1.0000 0.25700  0.65710  0.88710  Biso   1.000  H
  H64      1.0000 0.74300  0.34290  0.38710  Biso   1.000  H
  C113     1.0000 0.08860  0.40520  0.25000  Biso   1.000  C
  C114     1.0000 0.58860  0.90520  0.25000  Biso   1.000  C
  C115     1.0000 0.91140  0.59480  0.75000  Biso   1.000  C
  C116     1.0000 0.91140  0.40520  0.25000  Biso   1.000  C
  C117     1.0000 0.08860  0.59480  0.75000  Biso   1.000  C
  C118     1.0000 0.41140  0.09480  0.75000  Biso   1.000  C
  C119     1.0000 0.41140  0.90520  0.25000  Biso   1.000  C
  C120     1.0000 0.58860  0.09480  0.75000  Biso   1.000  C
  H65      1.0000 0.15210  0.43840  0.25000  Biso   1.000  H
  H66      1.0000 0.65210  0.93840  0.25000  Biso   1.000  H
  H67      1.0000 0.84790  0.56160  0.75000  Biso   1.000  H
  H68      1.0000 0.84790  0.43840  0.25000  Biso   1.000  H
  H69      1.0000 0.15210  0.56160  0.75000  Biso   1.000  H
  H70      1.0000 0.34790  0.06160  0.75000  Biso   1.000  H
  H71      1.0000 0.34790  0.93840  0.25000  Biso   1.000  H
  H72      1.0000 0.65210  0.06160  0.75000  Biso   1.000  H
  C121     1.0000 0.09170  0.30560  0.25000  Biso   1.000  C
  C122     1.0000 0.59170  0.80560  0.25000  Biso   1.000  C
  C123     1.0000 0.90830  0.69440  0.75000  Biso   1.000  C
  C124     1.0000 0.90830  0.30560  0.25000  Biso   1.000  C
  C125     1.0000 0.09170  0.69440  0.75000  Biso   1.000  C
  C126     1.0000 0.40830  0.19440  0.75000  Biso   1.000  C
  C127     1.0000 0.40830  0.80560  0.25000  Biso   1.000  C
  C128     1.0000 0.59170  0.19440  0.75000  Biso   1.000  C
  H73      1.0000 0.15620  0.27390  0.25000  Biso   1.000  H
  H74      1.0000 0.65620  0.77390  0.25000  Biso   1.000  H
  H75      1.0000 0.84380  0.72610  0.75000  Biso   1.000  H
  H76      1.0000 0.84380  0.27390  0.25000  Biso   1.000  H
  H77      1.0000 0.15620  0.72610  0.75000  Biso   1.000  H
  H78      1.0000 0.34380  0.22610  0.75000  Biso   1.000  H
  H79      1.0000 0.34380  0.77390  0.25000  Biso   1.000  H
  H80      1.0000 0.65620  0.22610  0.75000  Biso   1.000  H
  C129     1.0000 0.00000  0.25470  0.25000  Biso   1.000  C
  C130     1.0000 0.50000  0.75470  0.25000  Biso   1.000  C
  C131     1.0000 0.00000  0.74530  0.75000  Biso   1.000  C
  C132     1.0000 0.50000  0.24530  0.75000  Biso   1.000  C
  C133     1.0000 0.00000  0.14880  0.25000  Biso   1.000  C
  C134     1.0000 0.50000  0.64880  0.25000  Biso   1.000  C
  C135     1.0000 0.00000  0.85120  0.75000  Biso   1.000  C
  C136     1.0000 0.50000  0.35120  0.75000  Biso   1.000  C
  C137     1.0000 0.00000  0.09720  0.30020  Biso   1.000  C
  C138     1.0000 0.50000  0.59720  0.30020  Biso   1.000  C
  C139     1.0000 0.00000  0.90280  0.80020  Biso   1.000  C
  C140     1.0000 0.00000  0.09720  0.19980  Biso   1.000  C
  C141     1.0000 0.00000  0.90280  0.69980  Biso   1.000  C
  C142     1.0000 0.50000  0.40280  0.80020  Biso   1.000  C
  C143     1.0000 0.50000  0.59720  0.19980  Biso   1.000  C
  C144     1.0000 0.50000  0.40280  0.69980  Biso   1.000  C
  H81      1.0000 0.00000  0.12760  0.33810  Biso   1.000  H
  H82      1.0000 0.50000  0.62760  0.33810  Biso   1.000  H
  H83      1.0000 0.00000  0.87240  0.83810  Biso   1.000  H
  H84      1.0000 0.00000  0.12760  0.16190  Biso   1.000  H
  H85      1.0000 0.00000  0.87240  0.66190  Biso   1.000  H
  H86      1.0000 0.50000  0.37240  0.83810  Biso   1.000  H
  H87      1.0000 0.50000  0.62760  0.16190  Biso   1.000  H
  H88      1.0000 0.50000  0.37240  0.66190  Biso   1.000  H
  C145     1.0000 0.00000  0.99790  0.29760  Biso   1.000  C
  C146     1.0000 0.50000  0.49790  0.29760  Biso   1.000  C
  C147     1.0000 0.00000  0.00210  0.79760  Biso   1.000  C
  C148     1.0000 0.00000  0.99790  0.20240  Biso   1.000  C
  C149     1.0000 0.00000  0.00210  0.70240  Biso   1.000  C
  C150     1.0000 0.50000  0.50210  0.79760  Biso   1.000  C
  C151     1.0000 0.50000  0.49790  0.20240  Biso   1.000  C
  C152     1.0000 0.50000  0.50210  0.70240  Biso   1.000  C
  H89      1.0000 0.00000  0.96600  0.33500  Biso   1.000  H
  H90      1.0000 0.50000  0.46600  0.33500  Biso   1.000  H
  H91      1.0000 0.00000  0.03400  0.83500  Biso   1.000  H
  H92      1.0000 0.00000  0.96600  0.16500  Biso   1.000  H
  H93      1.0000 0.00000  0.03400  0.66500  Biso   1.000  H
  H94      1.0000 0.50000  0.53400  0.83500  Biso   1.000  H
  H95      1.0000 0.50000  0.46600  0.16500  Biso   1.000  H
  H96      1.0000 0.50000  0.53400  0.66500  Biso   1.000  H
  O49      1.0000 0.50000  0.00070  0.57150  Biso   1.000  O
  O50      1.0000 0.00000  0.50070  0.57150  Biso   1.000  O
  O51      1.0000 0.50000  0.99930  0.07150  Biso   1.000  O
  O52      1.0000 0.50000  0.00070  0.92850  Biso   1.000  O
  O53      1.0000 0.50000  0.99930  0.42850  Biso   1.000  O
  O54      1.0000 0.00000  0.49930  0.07150  Biso   1.000  O
  O55      1.0000 0.00000  0.50070  0.92850  Biso   1.000  O
  O56      1.0000 0.00000  0.49930  0.42850  Biso   1.000  O
  H97      1.0000 0.50000  0.98470  0.60930  Biso   1.000  H
  H98      1.0000 0.00000  0.48470  0.60930  Biso   1.000  H
  H99      1.0000 0.50000  0.01530  0.10930  Biso   1.000  H
  H100     1.0000 0.50000  0.98470  0.89070  Biso   1.000  H
  H101     1.0000 0.50000  0.01530  0.39070  Biso   1.000  H
  H102     1.0000 0.00000  0.51530  0.10930  Biso   1.000  H
  H103     1.0000 0.00000  0.48470  0.89070  Biso   1.000  H
  H104     1.0000 0.00000  0.51530  0.39070  Biso   1.000  H
  H105     1.0000 0.44490  0.04540  0.56090  Biso   1.000  H
  H106     1.0000 0.94490  0.54540  0.56090  Biso   1.000  H
  H107     1.0000 0.55510  0.95460  0.06090  Biso   1.000  H
  H108     1.0000 0.55510  0.04540  0.93910  Biso   1.000  H
  H109     1.0000 0.44490  0.95460  0.43910  Biso   1.000  H
  H110     1.0000 0.05510  0.45460  0.06090  Biso   1.000  H
  H111     1.0000 0.05510  0.54540  0.93910  Biso   1.000  H
  H112     1.0000 0.94490  0.45460  0.43910  Biso   1.000  H
  H113     1.0000 0.55510  0.95460  0.43910  Biso   1.000  H
  H114     1.0000 0.05510  0.45460  0.43910  Biso   1.000  H
  H115     1.0000 0.44490  0.04540  0.93910  Biso   1.000  H
  H116     1.0000 0.44490  0.95460  0.06090  Biso   1.000  H
  H117     1.0000 0.55510  0.04540  0.56090  Biso   1.000  H
  H118     1.0000 0.94490  0.54540  0.93910  Biso   1.000  H
  H119     1.0000 0.94490  0.45460  0.06090  Biso   1.000  H
  H120     1.0000 0.05510  0.54540  0.56090  Biso   1.000  H
