data_image0
_cell_length_a       6.8069
_cell_length_b       16.574
_cell_length_c       23.762
_cell_angle_alpha    90
_cell_angle_beta     92.146
_cell_angle_gamma    90

_symmetry_space_group_name_H-M    "P 1"
_symmetry_int_tables_number       1

loop_
  _symmetry_equiv_pos_as_xyz
  'x, y, z'

loop_
  _atom_site_label
  _atom_site_occupancy
  _atom_site_fract_x
  _atom_site_fract_y
  _atom_site_fract_z
  _atom_site_thermal_displace_type
  _atom_site_B_iso_or_equiv
  _atom_site_type_symbol
  Cu1      1.0000 0.73222  0.62414  0.10299  Biso   1.000  Cu
  Cu2      1.0000 0.76778  0.12414  0.39701  Biso   1.000  Cu
  Cu3      1.0000 0.26778  0.37586  0.89701  Biso   1.000  Cu
  Cu4      1.0000 0.23222  0.87586  0.60299  Biso   1.000  Cu
  S1       1.0000 0.28348  0.10765  0.07036  Biso   1.000  S
  S2       1.0000 0.21652  0.60765  0.42964  Biso   1.000  S
  S3       1.0000 0.71652  0.89235  0.92964  Biso   1.000  S
  S4       1.0000 0.78348  0.39235  0.57036  Biso   1.000  S
  N1       1.0000 0.74070  0.50298  0.09952  Biso   1.000  N
  N2       1.0000 0.75930  0.00298  0.40048  Biso   1.000  N
  N3       1.0000 0.25930  0.49702  0.90048  Biso   1.000  N
  N4       1.0000 0.24070  0.99702  0.59952  Biso   1.000  N
  N5       1.0000 0.75980  0.60924  0.01946  Biso   1.000  N
  N6       1.0000 0.74020  0.10924  0.48054  Biso   1.000  N
  N7       1.0000 0.24020  0.39076  0.98054  Biso   1.000  N
  N8       1.0000 0.25980  0.89076  0.51946  Biso   1.000  N
  O1       1.0000 0.67960  0.73895  0.09547  Biso   1.000  O
  O2       1.0000 0.82040  0.23895  0.40453  Biso   1.000  O
  O3       1.0000 0.32040  0.26105  0.90453  Biso   1.000  O
  O4       1.0000 0.17960  0.76105  0.59547  Biso   1.000  O
  O5       1.0000 0.36760  0.70246  0.07791  Biso   1.000  O
  O6       1.0000 0.13240  0.20246  0.42209  Biso   1.000  O
  O7       1.0000 0.63240  0.29754  0.92209  Biso   1.000  O
  O8       1.0000 0.86760  0.79754  0.57791  Biso   1.000  O
  O9       1.0000 0.46010  0.15459  0.07840  Biso   1.000  O
  O10      1.0000 0.03990  0.65459  0.42160  Biso   1.000  O
  O11      1.0000 0.53990  0.84541  0.92160  Biso   1.000  O
  O12      1.0000 0.96010  0.34541  0.57840  Biso   1.000  O
  O13      1.0000 0.15580  0.12308  0.02182  Biso   1.000  O
  O14      1.0000 0.34420  0.62308  0.47818  Biso   1.000  O
  O15      1.0000 0.84420  0.87692  0.97818  Biso   1.000  O
  O16      1.0000 0.65580  0.37692  0.52182  Biso   1.000  O
  O17      1.0000 0.86720  0.12077  0.32092  Biso   1.000  O
  O18      1.0000 0.63280  0.62077  0.17908  Biso   1.000  O
  O19      1.0000 0.13280  0.87923  0.67908  Biso   1.000  O
  O20      1.0000 0.36720  0.37923  0.82092  Biso   1.000  O
  O21      1.0000 0.61790  0.17083  0.26818  Biso   1.000  O
  O22      1.0000 0.88210  0.67083  0.23182  Biso   1.000  O
  O23      1.0000 0.38210  0.82917  0.73182  Biso   1.000  O
  O24      1.0000 0.11790  0.32917  0.76818  Biso   1.000  O
  C1       1.0000 0.73580  0.45220  0.14336  Biso   1.000  C
  C2       1.0000 0.76420  0.95220  0.35664  Biso   1.000  C
  C3       1.0000 0.26420  0.54780  0.85664  Biso   1.000  C
  C4       1.0000 0.23580  0.04780  0.64336  Biso   1.000  C
  H1       1.0000 0.73700  0.47370  0.17950  Biso   1.000  H
  H2       1.0000 0.76300  0.97370  0.32050  Biso   1.000  H
  H3       1.0000 0.26300  0.52630  0.82050  Biso   1.000  H
  H4       1.0000 0.23700  0.02630  0.67950  Biso   1.000  H
  C5       1.0000 0.72920  0.36970  0.13727  Biso   1.000  C
  C6       1.0000 0.77080  0.86970  0.36273  Biso   1.000  C
  C7       1.0000 0.27080  0.63030  0.86273  Biso   1.000  C
  C8       1.0000 0.22920  0.13030  0.63727  Biso   1.000  C
  H5       1.0000 0.72790  0.33620  0.16860  Biso   1.000  H
  H6       1.0000 0.77210  0.83620  0.33140  Biso   1.000  H
  H7       1.0000 0.27210  0.66380  0.83140  Biso   1.000  H
  H8       1.0000 0.22790  0.16380  0.66860  Biso   1.000  H
  C9       1.0000 0.72450  0.33787  0.08376  Biso   1.000  C
  C10      1.0000 0.77550  0.83787  0.41624  Biso   1.000  C
  C11      1.0000 0.27550  0.66213  0.91624  Biso   1.000  C
  C12      1.0000 0.22450  0.16213  0.58376  Biso   1.000  C
  H9       1.0000 0.71600  0.28240  0.07840  Biso   1.000  H
  H10      1.0000 0.78400  0.78240  0.42160  Biso   1.000  H
  H11      1.0000 0.28400  0.71760  0.92160  Biso   1.000  H
  H12      1.0000 0.21600  0.21760  0.57840  Biso   1.000  H
  C13      1.0000 0.73260  0.38905  0.03806  Biso   1.000  C
  C14      1.0000 0.76740  0.88905  0.46194  Biso   1.000  C
  C15      1.0000 0.26740  0.61095  0.96194  Biso   1.000  C
  C16      1.0000 0.23260  0.11095  0.53806  Biso   1.000  C
  H13      1.0000 0.73180  0.36840  0.00160  Biso   1.000  H
  H14      1.0000 0.76820  0.86840  0.49840  Biso   1.000  H
  H15      1.0000 0.26820  0.63160  0.99840  Biso   1.000  H
  H16      1.0000 0.23180  0.13160  0.50160  Biso   1.000  H
  C17      1.0000 0.74190  0.47143  0.04718  Biso   1.000  C
  C18      1.0000 0.75810  0.97143  0.45282  Biso   1.000  C
  C19      1.0000 0.25810  0.52857  0.95282  Biso   1.000  C
  C20      1.0000 0.24190  0.02857  0.54718  Biso   1.000  C
  C21      1.0000 0.75230  0.53183  0.00180  Biso   1.000  C
  C22      1.0000 0.74770  0.03183  0.49820  Biso   1.000  C
  C23      1.0000 0.24770  0.46817  0.99820  Biso   1.000  C
  C24      1.0000 0.25230  0.96817  0.50180  Biso   1.000  C
  C25      1.0000 0.75400  0.51245  0.94491  Biso   1.000  C
  C26      1.0000 0.74600  0.01245  0.55509  Biso   1.000  C
  C27      1.0000 0.24600  0.48755  0.05509  Biso   1.000  C
  C28      1.0000 0.25400  0.98755  0.44491  Biso   1.000  C
  H17      1.0000 0.74950  0.45890  0.93330  Biso   1.000  H
  H18      1.0000 0.75050  0.95890  0.56670  Biso   1.000  H
  H19      1.0000 0.25050  0.54110  0.06670  Biso   1.000  H
  H20      1.0000 0.24950  0.04110  0.43330  Biso   1.000  H
  C29      1.0000 0.76240  0.57400  0.90608  Biso   1.000  C
  C30      1.0000 0.73760  0.07400  0.59392  Biso   1.000  C
  C31      1.0000 0.23760  0.42600  0.09392  Biso   1.000  C
  C32      1.0000 0.26240  0.92600  0.40608  Biso   1.000  C
  H21      1.0000 0.76230  0.56230  0.86780  Biso   1.000  H
  H22      1.0000 0.73770  0.06230  0.63220  Biso   1.000  H
  H23      1.0000 0.23770  0.43770  0.13220  Biso   1.000  H
  H24      1.0000 0.26230  0.93770  0.36780  Biso   1.000  H
  C33      1.0000 0.77100  0.65280  0.92407  Biso   1.000  C
  C34      1.0000 0.72900  0.15280  0.57593  Biso   1.000  C
  C35      1.0000 0.22900  0.34720  0.07593  Biso   1.000  C
  C36      1.0000 0.27100  0.84720  0.42407  Biso   1.000  C
  H25      1.0000 0.77730  0.69470  0.89820  Biso   1.000  H
  H26      1.0000 0.72270  0.19470  0.60180  Biso   1.000  H
  H27      1.0000 0.22270  0.30530  0.10180  Biso   1.000  H
  H28      1.0000 0.27730  0.80530  0.39820  Biso   1.000  H
  C37      1.0000 0.77000  0.66873  0.98124  Biso   1.000  C
  C38      1.0000 0.73000  0.16873  0.51876  Biso   1.000  C
  C39      1.0000 0.23000  0.33127  0.01876  Biso   1.000  C
  C40      1.0000 0.27000  0.83127  0.48124  Biso   1.000  C
  H29      1.0000 0.77670  0.72200  0.99350  Biso   1.000  H
  H30      1.0000 0.72330  0.22200  0.50650  Biso   1.000  H
  H31      1.0000 0.22330  0.27800  0.00650  Biso   1.000  H
  H32      1.0000 0.27670  0.77800  0.49350  Biso   1.000  H
  C41      1.0000 0.49820  0.75423  0.08424  Biso   1.000  C
  C42      1.0000 0.00180  0.25423  0.41576  Biso   1.000  C
  C43      1.0000 0.50180  0.24577  0.91576  Biso   1.000  C
  C44      1.0000 0.99820  0.74577  0.58424  Biso   1.000  C
  C45      1.0000 0.44680  0.84228  0.07844  Biso   1.000  C
  C46      1.0000 0.05320  0.34228  0.42156  Biso   1.000  C
  C47      1.0000 0.55320  0.15772  0.92156  Biso   1.000  C
  C48      1.0000 0.94680  0.65772  0.57844  Biso   1.000  C
  C49      1.0000 0.58690  0.90125  0.09053  Biso   1.000  C
  C50      1.0000 0.91310  0.40125  0.40947  Biso   1.000  C
  C51      1.0000 0.41310  0.09875  0.90947  Biso   1.000  C
  C52      1.0000 0.08690  0.59875  0.59053  Biso   1.000  C
  H33      1.0000 0.71500  0.88610  0.10060  Biso   1.000  H
  H34      1.0000 0.78500  0.38610  0.39940  Biso   1.000  H
  H35      1.0000 0.28500  0.11390  0.89940  Biso   1.000  H
  H36      1.0000 0.21500  0.61390  0.60060  Biso   1.000  H
  C53      1.0000 0.53860  0.98238  0.08776  Biso   1.000  C
  C54      1.0000 0.96140  0.48238  0.41224  Biso   1.000  C
  C55      1.0000 0.46140  0.01762  0.91224  Biso   1.000  C
  C56      1.0000 0.03860  0.51762  0.58776  Biso   1.000  C
  H37      1.0000 0.63250  0.02150  0.09680  Biso   1.000  H
  H38      1.0000 0.86750  0.52150  0.40320  Biso   1.000  H
  H39      1.0000 0.36750  0.97850  0.90320  Biso   1.000  H
  H40      1.0000 0.13250  0.47850  0.59680  Biso   1.000  H
  C57      1.0000 0.34930  0.00438  0.07141  Biso   1.000  C
  C58      1.0000 0.15070  0.50438  0.42859  Biso   1.000  C
  C59      1.0000 0.65070  0.99562  0.92859  Biso   1.000  C
  C60      1.0000 0.84930  0.49562  0.57141  Biso   1.000  C
  C61      1.0000 0.20840  0.94665  0.05725  Biso   1.000  C
  C62      1.0000 0.29160  0.44665  0.44275  Biso   1.000  C
  C63      1.0000 0.79160  0.05335  0.94275  Biso   1.000  C
  C64      1.0000 0.70840  0.55335  0.55725  Biso   1.000  C
  H41      1.0000 0.08230  0.96210  0.04530  Biso   1.000  H
  H42      1.0000 0.41770  0.46210  0.45470  Biso   1.000  H
  H43      1.0000 0.91770  0.03790  0.95470  Biso   1.000  H
  H44      1.0000 0.58230  0.53790  0.54530  Biso   1.000  H
  C65      1.0000 0.25790  0.86587  0.06106  Biso   1.000  C
  C66      1.0000 0.24210  0.36587  0.43894  Biso   1.000  C
  C67      1.0000 0.74210  0.13413  0.93894  Biso   1.000  C
  C68      1.0000 0.75790  0.63413  0.56106  Biso   1.000  C
  H45      1.0000 0.16390  0.82680  0.05190  Biso   1.000  H
  H46      1.0000 0.33610  0.32680  0.44810  Biso   1.000  H
  H47      1.0000 0.83610  0.17320  0.94810  Biso   1.000  H
  H48      1.0000 0.66390  0.67320  0.55190  Biso   1.000  H
  C69      1.0000 0.78680  0.14446  0.27488  Biso   1.000  C
  C70      1.0000 0.71320  0.64446  0.22512  Biso   1.000  C
  C71      1.0000 0.21320  0.85554  0.72512  Biso   1.000  C
  C72      1.0000 0.28680  0.35554  0.77488  Biso   1.000  C
  C73      1.0000 0.91510  0.13758  0.22424  Biso   1.000  C
  C74      1.0000 0.58490  0.63758  0.27576  Biso   1.000  C
  C75      1.0000 0.08490  0.86242  0.77576  Biso   1.000  C
  C76      1.0000 0.41510  0.36242  0.72424  Biso   1.000  C
  C77      1.0000 0.11290  0.11892  0.23069  Biso   1.000  C
  C78      1.0000 0.38710  0.61892  0.26931  Biso   1.000  C
  C79      1.0000 0.88710  0.88108  0.76931  Biso   1.000  C
  C80      1.0000 0.61290  0.38108  0.73069  Biso   1.000  C
  H49      1.0000 0.16930  0.11190  0.26660  Biso   1.000  H
  H50      1.0000 0.33070  0.61190  0.23340  Biso   1.000  H
  H51      1.0000 0.83070  0.88810  0.73340  Biso   1.000  H
  H52      1.0000 0.66930  0.38810  0.76660  Biso   1.000  H
  C81      1.0000 0.22740  0.11058  0.18425  Biso   1.000  C
  C82      1.0000 0.27260  0.61058  0.31575  Biso   1.000  C
  C83      1.0000 0.77260  0.88942  0.81575  Biso   1.000  C
  C84      1.0000 0.72740  0.38942  0.68425  Biso   1.000  C
  H53      1.0000 0.36080  0.09910  0.18870  Biso   1.000  H
  H54      1.0000 0.13920  0.59910  0.31130  Biso   1.000  H
  H55      1.0000 0.63920  0.90090  0.81130  Biso   1.000  H
  H56      1.0000 0.86080  0.40090  0.68870  Biso   1.000  H
  C85      1.0000 0.14020  0.11962  0.13077  Biso   1.000  C
  C86      1.0000 0.35980  0.61962  0.36923  Biso   1.000  C
  C87      1.0000 0.85980  0.88038  0.86923  Biso   1.000  C
  C88      1.0000 0.64020  0.38038  0.63077  Biso   1.000  C
  C89      1.0000 0.94310  0.13795  0.12362  Biso   1.000  C
  C90      1.0000 0.55690  0.63795  0.37638  Biso   1.000  C
  C91      1.0000 0.05690  0.86205  0.87638  Biso   1.000  C
  C92      1.0000 0.44310  0.36205  0.62362  Biso   1.000  C
  H57      1.0000 0.88600  0.14350  0.08770  Biso   1.000  H
  H58      1.0000 0.61400  0.64350  0.41230  Biso   1.000  H
  H59      1.0000 0.11400  0.85650  0.91230  Biso   1.000  H
  H60      1.0000 0.38600  0.35650  0.58770  Biso   1.000  H
  C93      1.0000 0.83130  0.14804  0.17061  Biso   1.000  C
  C94      1.0000 0.66870  0.64804  0.32939  Biso   1.000  C
  C95      1.0000 0.16870  0.85196  0.82939  Biso   1.000  C
  C96      1.0000 0.33130  0.35196  0.67061  Biso   1.000  C
  H61      1.0000 0.69930  0.16190  0.16620  Biso   1.000  H
  H62      1.0000 0.80070  0.66190  0.33380  Biso   1.000  H
  H63      1.0000 0.30070  0.83810  0.83380  Biso   1.000  H
  H64      1.0000 0.19930  0.33810  0.66620  Biso   1.000  H
  O25      1.0000 0.12050  0.80030  0.28152  Biso   1.000  O
  O26      1.0000 0.37950  0.30030  0.21848  Biso   1.000  O
  O27      1.0000 0.87950  0.19970  0.71848  Biso   1.000  O
  O28      1.0000 0.62050  0.69970  0.78152  Biso   1.000  O
  H65      1.0000 0.02750  0.77020  0.27430  Biso   1.000  H
  H66      1.0000 0.47250  0.27020  0.22570  Biso   1.000  H
  H67      1.0000 0.97250  0.22980  0.72570  Biso   1.000  H
  H68      1.0000 0.52750  0.72980  0.77430  Biso   1.000  H
  C97      1.0000 0.36220  0.88220  0.23830  Biso   1.000  C
  C98      1.0000 0.13780  0.38220  0.26170  Biso   1.000  C
  C99      1.0000 0.63780  0.11780  0.76170  Biso   1.000  C
  C100     1.0000 0.86220  0.61780  0.73830  Biso   1.000  C
  H69      1.0000 0.34690  0.92620  0.26410  Biso   1.000  H
  H70      1.0000 0.15310  0.42620  0.23590  Biso   1.000  H
  H71      1.0000 0.65310  0.07380  0.73590  Biso   1.000  H
  H72      1.0000 0.84690  0.57380  0.76410  Biso   1.000  H
  H73      1.0000 0.40140  0.90290  0.20270  Biso   1.000  H
  H74      1.0000 0.09860  0.40290  0.29730  Biso   1.000  H
  H75      1.0000 0.59860  0.09710  0.79730  Biso   1.000  H
  H76      1.0000 0.90140  0.59710  0.70270  Biso   1.000  H
  H77      1.0000 0.46100  0.84590  0.25310  Biso   1.000  H
  H78      1.0000 0.03900  0.34590  0.24690  Biso   1.000  H
  H79      1.0000 0.53900  0.15410  0.74690  Biso   1.000  H
  H80      1.0000 0.96100  0.65410  0.75310  Biso   1.000  H
  C101     1.0000 0.17780  0.83980  0.23080  Biso   1.000  C
  C102     1.0000 0.32220  0.33980  0.26920  Biso   1.000  C
  C103     1.0000 0.82220  0.16020  0.76920  Biso   1.000  C
  C104     1.0000 0.67780  0.66020  0.73080  Biso   1.000  C
  H81      1.0000 0.20460  0.79590  0.20460  Biso   1.000  H
  H82      1.0000 0.29540  0.29590  0.29540  Biso   1.000  H
  H83      1.0000 0.79540  0.20410  0.79540  Biso   1.000  H
  H84      1.0000 0.70460  0.70410  0.70460  Biso   1.000  H
  C105     1.0000 0.00810  0.88470  0.20400  Biso   1.000  C
  C106     1.0000 0.49190  0.38470  0.29600  Biso   1.000  C
  C107     1.0000 0.99190  0.11530  0.79600  Biso   1.000  C
  C108     1.0000 0.50810  0.61530  0.70400  Biso   1.000  C
  H85      1.0000 0.89820  0.84880  0.19870  Biso   1.000  H
  H86      1.0000 0.60180  0.34880  0.30130  Biso   1.000  H
  H87      1.0000 0.10180  0.15120  0.80130  Biso   1.000  H
  H88      1.0000 0.39820  0.65120  0.69870  Biso   1.000  H
  H89      1.0000 0.04480  0.90540  0.16820  Biso   1.000  H
  H90      1.0000 0.45520  0.40540  0.33180  Biso   1.000  H
  H91      1.0000 0.95520  0.09460  0.83180  Biso   1.000  H
  H92      1.0000 0.54480  0.59460  0.66820  Biso   1.000  H
  H93      1.0000 0.97250  0.92860  0.22790  Biso   1.000  H
  H94      1.0000 0.52750  0.42860  0.27210  Biso   1.000  H
  H95      1.0000 0.02750  0.07140  0.77210  Biso   1.000  H
  H96      1.0000 0.47250  0.57140  0.72790  Biso   1.000  H
  O29      1.0000 0.05200  0.63548  0.13299  Biso   1.000  O
  O30      1.0000 0.44800  0.13548  0.36701  Biso   1.000  O
  O31      1.0000 0.94800  0.36452  0.86701  Biso   1.000  O
  O32      1.0000 0.55200  0.86452  0.63299  Biso   1.000  O
  H97      1.0000 0.02910  0.65250  0.16560  Biso   1.000  H
  H98      1.0000 0.47090  0.15250  0.33440  Biso   1.000  H
  H99      1.0000 0.97090  0.34750  0.83440  Biso   1.000  H
  H100     1.0000 0.52910  0.84750  0.66560  Biso   1.000  H
  H101     1.0000 0.13330  0.66860  0.12010  Biso   1.000  H
  H102     1.0000 0.36670  0.16860  0.37990  Biso   1.000  H
  H103     1.0000 0.86670  0.33140  0.87990  Biso   1.000  H
  H104     1.0000 0.63330  0.83140  0.62010  Biso   1.000  H
