data_image0
_cell_length_a       9.7423
_cell_length_b       7.9262
_cell_length_c       13.541
_cell_angle_alpha    90
_cell_angle_beta     91.571
_cell_angle_gamma    90

_symmetry_space_group_name_H-M    "P 1"
_symmetry_int_tables_number       1

loop_
  _symmetry_equiv_pos_as_xyz
  'x, y, z'

loop_
  _atom_site_label
  _atom_site_occupancy
  _atom_site_fract_x
  _atom_site_fract_y
  _atom_site_fract_z
  _atom_site_thermal_displace_type
  _atom_site_B_iso_or_equiv
  _atom_site_type_symbol
  Cu1      1.0000 0.00000  0.00000  0.00000  Biso   1.000  Cu
  Cu2      1.0000 0.50000  0.00000  0.50000  Biso   1.000  Cu
  O1       1.0000 0.87300  0.59590  0.12782  Biso   1.000  O
  O2       1.0000 0.62700  0.59590  0.37218  Biso   1.000  O
  O3       1.0000 0.12700  0.40410  0.87218  Biso   1.000  O
  O4       1.0000 0.37300  0.40410  0.62782  Biso   1.000  O
  O5       1.0000 0.01820  0.76740  0.93799  Biso   1.000  O
  O6       1.0000 0.48180  0.76740  0.56201  Biso   1.000  O
  O7       1.0000 0.98180  0.23260  0.06201  Biso   1.000  O
  O8       1.0000 0.51820  0.23260  0.43799  Biso   1.000  O
  O9       1.0000 0.02080  0.96990  0.28340  Biso   1.000  O
  O10      1.0000 0.47920  0.96990  0.21660  Biso   1.000  O
  O11      1.0000 0.97920  0.03010  0.71660  Biso   1.000  O
  O12      1.0000 0.52080  0.03010  0.78340  Biso   1.000  O
  O13      1.0000 0.20290  0.95760  0.08384  Biso   1.000  O
  O14      1.0000 0.29710  0.95760  0.41616  Biso   1.000  O
  O15      1.0000 0.79710  0.04240  0.91616  Biso   1.000  O
  O16      1.0000 0.70290  0.04240  0.58384  Biso   1.000  O
  O17      1.0000 0.88570  0.92890  0.11124  Biso   1.000  O
  O18      1.0000 0.61430  0.92890  0.38876  Biso   1.000  O
  O19      1.0000 0.11430  0.07110  0.88876  Biso   1.000  O
  O20      1.0000 0.38570  0.07110  0.61124  Biso   1.000  O
  N1       1.0000 0.88720  0.19860  0.46970  Biso   1.000  N
  N2       1.0000 0.61280  0.19860  0.03030  Biso   1.000  N
  N3       1.0000 0.11280  0.80140  0.53030  Biso   1.000  N
  N4       1.0000 0.38720  0.80140  0.96970  Biso   1.000  N
  C1       1.0000 0.94300  0.54350  0.05830  Biso   1.000  C
  C2       1.0000 0.55700  0.54350  0.44170  Biso   1.000  C
  C3       1.0000 0.05700  0.45650  0.94170  Biso   1.000  C
  C4       1.0000 0.44300  0.45650  0.55830  Biso   1.000  C
  C5       1.0000 0.00760  0.62100  0.97338  Biso   1.000  C
  C6       1.0000 0.49240  0.62100  0.52662  Biso   1.000  C
  C7       1.0000 0.99240  0.37900  0.02662  Biso   1.000  C
  C8       1.0000 0.50760  0.37900  0.47338  Biso   1.000  C
  C9       1.0000 0.14570  0.96660  0.26440  Biso   1.000  C
  C10      1.0000 0.35430  0.96660  0.23560  Biso   1.000  C
  C11      1.0000 0.85430  0.03340  0.73560  Biso   1.000  C
  C12      1.0000 0.64570  0.03340  0.76440  Biso   1.000  C
  C13      1.0000 0.22710  0.96360  0.17560  Biso   1.000  C
  C14      1.0000 0.27290  0.96360  0.32440  Biso   1.000  C
  C15      1.0000 0.77290  0.03640  0.82440  Biso   1.000  C
  C16      1.0000 0.72710  0.03640  0.67560  Biso   1.000  C
  C17      1.0000 0.84200  0.27030  0.38610  Biso   1.000  C
  C18      1.0000 0.65800  0.27030  0.11390  Biso   1.000  C
  C19      1.0000 0.15800  0.72970  0.61390  Biso   1.000  C
  C20      1.0000 0.34200  0.72970  0.88610  Biso   1.000  C
  H1       1.0000 0.75300  0.24990  0.36260  Biso   1.000  H
  H2       1.0000 0.74700  0.24990  0.13740  Biso   1.000  H
  H3       1.0000 0.24700  0.75010  0.63740  Biso   1.000  H
  H4       1.0000 0.25300  0.75010  0.86260  Biso   1.000  H
  C21      1.0000 0.92660  0.37400  0.33500  Biso   1.000  C
  C22      1.0000 0.57340  0.37400  0.16500  Biso   1.000  C
  C23      1.0000 0.07340  0.62600  0.66500  Biso   1.000  C
  C24      1.0000 0.42660  0.62600  0.83500  Biso   1.000  C
  H5       1.0000 0.89460  0.42540  0.27710  Biso   1.000  H
  H6       1.0000 0.60540  0.42540  0.22290  Biso   1.000  H
  H7       1.0000 0.10540  0.57460  0.72290  Biso   1.000  H
  H8       1.0000 0.39460  0.57460  0.77710  Biso   1.000  H
  C25      1.0000 0.06020  0.40290  0.36925  Biso   1.000  C
  C26      1.0000 0.43980  0.40290  0.13075  Biso   1.000  C
  C27      1.0000 0.93980  0.59710  0.63075  Biso   1.000  C
  C28      1.0000 0.56020  0.59710  0.86925  Biso   1.000  C
  C29      1.0000 0.10220  0.32120  0.45630  Biso   1.000  C
  C30      1.0000 0.39780  0.32120  0.04370  Biso   1.000  C
  C31      1.0000 0.89780  0.67880  0.54370  Biso   1.000  C
  C32      1.0000 0.60220  0.67880  0.95630  Biso   1.000  C
  H9       1.0000 0.19160  0.33530  0.48070  Biso   1.000  H
  H10      1.0000 0.30840  0.33530  0.01930  Biso   1.000  H
  H11      1.0000 0.80840  0.66470  0.51930  Biso   1.000  H
  H12      1.0000 0.69160  0.66470  0.98070  Biso   1.000  H
  C33      1.0000 0.01370  0.22090  0.50580  Biso   1.000  C
  C34      1.0000 0.48630  0.22090  0.99420  Biso   1.000  C
  C35      1.0000 0.98630  0.77910  0.49420  Biso   1.000  C
  C36      1.0000 0.51370  0.77910  0.00580  Biso   1.000  C
  H13      1.0000 0.04180  0.16860  0.56440  Biso   1.000  H
  H14      1.0000 0.45820  0.16860  0.93560  Biso   1.000  H
  H15      1.0000 0.95820  0.83140  0.43560  Biso   1.000  H
  H16      1.0000 0.54180  0.83140  0.06440  Biso   1.000  H
  C37      1.0000 0.15670  0.51120  0.31380  Biso   1.000  C
  C38      1.0000 0.34330  0.51120  0.18620  Biso   1.000  C
  C39      1.0000 0.84330  0.48880  0.68620  Biso   1.000  C
  C40      1.0000 0.65670  0.48880  0.81380  Biso   1.000  C
  H17      1.0000 0.21230  0.57700  0.36010  Biso   1.000  H
  H18      1.0000 0.28770  0.57700  0.13990  Biso   1.000  H
  H19      1.0000 0.78770  0.42300  0.63990  Biso   1.000  H
  H20      1.0000 0.71230  0.42300  0.86010  Biso   1.000  H
  H21      1.0000 0.10460  0.58900  0.27210  Biso   1.000  H
  H22      1.0000 0.39540  0.58900  0.22790  Biso   1.000  H
  H23      1.0000 0.89540  0.41100  0.72790  Biso   1.000  H
  H24      1.0000 0.60460  0.41100  0.77210  Biso   1.000  H
  C41      1.0000 0.25000  0.40510  0.25000  Biso   1.000  C
  C42      1.0000 0.75000  0.59490  0.75000  Biso   1.000  C
  H25      1.0000 0.30630  0.33300  0.29250  Biso   1.000  H
  H26      1.0000 0.19370  0.33300  0.20750  Biso   1.000  H
  H27      1.0000 0.69370  0.66700  0.70750  Biso   1.000  H
  H28      1.0000 0.80630  0.66700  0.79250  Biso   1.000  H
  H29      1.0000 0.83000  0.14900  0.50100  Biso   1.000  H
  H30      1.0000 0.67000  0.14900  0.99900  Biso   1.000  H
  H31      1.0000 0.17000  0.85100  0.49900  Biso   1.000  H
  H32      1.0000 0.33000  0.85100  0.00100  Biso   1.000  H
  H33      1.0000 0.87100  0.82500  0.11100  Biso   1.000  H
  H34      1.0000 0.62900  0.82500  0.38900  Biso   1.000  H
  H35      1.0000 0.12900  0.17500  0.88900  Biso   1.000  H
  H36      1.0000 0.37100  0.17500  0.61100  Biso   1.000  H
  H37      1.0000 0.91300  0.96300  0.16000  Biso   1.000  H
  H38      1.0000 0.58700  0.96300  0.34000  Biso   1.000  H
  H39      1.0000 0.08700  0.03700  0.84000  Biso   1.000  H
  H40      1.0000 0.41300  0.03700  0.66000  Biso   1.000  H
