data_image0
_cell_length_a       7.3349
_cell_length_b       8.5513
_cell_length_c       16.8119
_cell_angle_alpha    94.649
_cell_angle_beta     93.046
_cell_angle_gamma    99.041

_symmetry_space_group_name_H-M    "P 1"
_symmetry_int_tables_number       1

loop_
  _symmetry_equiv_pos_as_xyz
  'x, y, z'

loop_
  _atom_site_label
  _atom_site_occupancy
  _atom_site_fract_x
  _atom_site_fract_y
  _atom_site_fract_z
  _atom_site_thermal_displace_type
  _atom_site_B_iso_or_equiv
  _atom_site_type_symbol
  Cu1      1.0000 0.61813  0.10622  0.04624  Biso   1.000  Cu
  Cu2      1.0000 0.38187  0.89378  0.95376  Biso   1.000  Cu
  Cu3      1.0000 0.59139  0.48877  0.43402  Biso   1.000  Cu
  Cu4      1.0000 0.40861  0.51123  0.56598  Biso   1.000  Cu
  O1       1.0000 0.71650  0.91660  0.07400  Biso   1.000  O
  O2       1.0000 0.28350  0.08340  0.92600  Biso   1.000  O
  O3       1.0000 0.51100  0.73480  0.99860  Biso   1.000  O
  O4       1.0000 0.48900  0.26520  0.00140  Biso   1.000  O
  C1       1.0000 0.64680  0.77490  0.04960  Biso   1.000  C
  C2       1.0000 0.35320  0.22510  0.95040  Biso   1.000  C
  C3       1.0000 0.73340  0.64620  0.08550  Biso   1.000  C
  C4       1.0000 0.26660  0.35380  0.91450  Biso   1.000  C
  H1       1.0000 0.68277  0.54309  0.05657  Biso   1.000  H
  H2       1.0000 0.31723  0.45691  0.94343  Biso   1.000  H
  H3       1.0000 0.70617  0.64417  0.14191  Biso   1.000  H
  H4       1.0000 0.29383  0.35583  0.85809  Biso   1.000  H
  H5       1.0000 0.86769  0.66750  0.08150  Biso   1.000  H
  H6       1.0000 0.13231  0.33250  0.91850  Biso   1.000  H
  O5       1.0000 0.41980  0.06260  0.11960  Biso   1.000  O
  O6       1.0000 0.58020  0.93740  0.88040  Biso   1.000  O
  O7       1.0000 0.22110  0.87740  0.04450  Biso   1.000  O
  O8       1.0000 0.77890  0.12260  0.95550  Biso   1.000  O
  C5       1.0000 0.27150  0.96440  0.10840  Biso   1.000  C
  C6       1.0000 0.72850  0.03560  0.89160  Biso   1.000  C
  C7       1.0000 0.14560  0.95010  0.17590  Biso   1.000  C
  C8       1.0000 0.85440  0.04990  0.82410  Biso   1.000  C
  H7       1.0000 0.01791  0.94940  0.15530  Biso   1.000  H
  H8       1.0000 0.98209  0.05060  0.84470  Biso   1.000  H
  H9       1.0000 0.18284  0.04052  0.21617  Biso   1.000  H
  H10      1.0000 0.81716  0.95948  0.78383  Biso   1.000  H
  H11      1.0000 0.15372  0.85090  0.20030  Biso   1.000  H
  H12      1.0000 0.84628  0.14910  0.79970  Biso   1.000  H
  O9       1.0000 0.48660  0.67730  0.40900  Biso   1.000  O
  O10      1.0000 0.51340  0.32270  0.59100  Biso   1.000  O
  O11      1.0000 0.33400  0.69670  0.51950  Biso   1.000  O
  O12      1.0000 0.66600  0.30330  0.48050  Biso   1.000  O
  C9       1.0000 0.38010  0.74170  0.45360  Biso   1.000  C
  C10      1.0000 0.61990  0.25830  0.54640  Biso   1.000  C
  C11      1.0000 0.30610  0.88350  0.42350  Biso   1.000  C
  C12      1.0000 0.69390  0.11650  0.57650  Biso   1.000  C
  H13      1.0000 0.20868  0.91107  0.45711  Biso   1.000  H
  H14      1.0000 0.79132  0.08893  0.54289  Biso   1.000  H
  H15      1.0000 0.25507  0.85682  0.36811  Biso   1.000  H
  H16      1.0000 0.74493  0.14318  0.63189  Biso   1.000  H
  H17      1.0000 0.40674  0.97422  0.42575  Biso   1.000  H
  H18      1.0000 0.59326  0.02578  0.57425  Biso   1.000  H
  O13      1.0000 0.35560  0.35370  0.39230  Biso   1.000  O
  O14      1.0000 0.64440  0.64630  0.60770  Biso   1.000  O
  O15      1.0000 0.20450  0.37320  0.50270  Biso   1.000  O
  O16      1.0000 0.79550  0.62680  0.49730  Biso   1.000  O
  C13      1.0000 0.21480  0.32250  0.43120  Biso   1.000  C
  C14      1.0000 0.78520  0.67750  0.56880  Biso   1.000  C
  C15      1.0000 0.04770  0.21450  0.38940  Biso   1.000  C
  C16      1.0000 0.95230  0.78550  0.61060  Biso   1.000  C
  H19      1.0000 0.05462  0.10393  0.39879  Biso   1.000  H
  H20      1.0000 0.94538  0.89607  0.60121  Biso   1.000  H
  H21      1.0000 0.04573  0.22575  0.33181  Biso   1.000  H
  H22      1.0000 0.95427  0.77425  0.66819  Biso   1.000  H
  H23      1.0000 0.93462  0.24406  0.41053  Biso   1.000  H
  H24      1.0000 0.06538  0.75594  0.58947  Biso   1.000  H
  N1       1.0000 0.75010  0.47180  0.32640  Biso   1.000  N
  N2       1.0000 0.24990  0.52820  0.67360  Biso   1.000  N
  C17      1.0000 0.91860  0.56220  0.33140  Biso   1.000  C
  C18      1.0000 0.08140  0.43780  0.66860  Biso   1.000  C
  H25      1.0000 0.94788  0.63300  0.37844  Biso   1.000  H
  H26      1.0000 0.05212  0.36700  0.62156  Biso   1.000  H
  N3       1.0000 0.05150  0.56630  0.27910  Biso   1.000  N
  N4       1.0000 0.94850  0.43370  0.72090  Biso   1.000  N
  C19      1.0000 0.99350  0.45970  0.21600  Biso   1.000  C
  C20      1.0000 0.00650  0.54030  0.78400  Biso   1.000  C
  C21      1.0000 0.82480  0.35890  0.20090  Biso   1.000  C
  C22      1.0000 0.17520  0.64110  0.79910  Biso   1.000  C
  C23      1.0000 0.69620  0.36800  0.25950  Biso   1.000  C
  C24      1.0000 0.30380  0.63200  0.74050  Biso   1.000  C
  N5       1.0000 0.52980  0.28040  0.25350  Biso   1.000  N
  N6       1.0000 0.47020  0.71960  0.74650  Biso   1.000  N
  H27      1.0000 0.45463  0.28892  0.29217  Biso   1.000  H
  H28      1.0000 0.54537  0.71108  0.70783  Biso   1.000  H
  H29      1.0000 0.49410  0.21369  0.21089  Biso   1.000  H
  H30      1.0000 0.50590  0.78631  0.78911  Biso   1.000  H
  N7       1.0000 0.81830  0.27040  0.12920  Biso   1.000  N
  N8       1.0000 0.18170  0.72960  0.87080  Biso   1.000  N
  C25      1.0000 0.98140  0.31590  0.10190  Biso   1.000  C
  C26      1.0000 0.01860  0.68410  0.89810  Biso   1.000  C
  H31      1.0000 0.01783  0.27400  0.05219  Biso   1.000  H
  H32      1.0000 0.98217  0.72600  0.94781  Biso   1.000  H
  N9       1.0000 0.09200  0.42830  0.15160  Biso   1.000  N
  N10      1.0000 0.90800  0.57170  0.84840  Biso   1.000  N
  C27      1.0000 0.27940  0.51150  0.13610  Biso   1.000  C
  C28      1.0000 0.72060  0.48850  0.86390  Biso   1.000  C
  H33      1.0000 0.34985  0.43503  0.11086  Biso   1.000  H
  H34      1.0000 0.65015  0.56497  0.88914  Biso   1.000  H
  H35      1.0000 0.34443  0.55924  0.18686  Biso   1.000  H
  H36      1.0000 0.65557  0.44076  0.81314  Biso   1.000  H
  H37      1.0000 0.26703  0.59509  0.10055  Biso   1.000  H
  H38      1.0000 0.73297  0.40491  0.89945  Biso   1.000  H
  O17      1.0000 0.45160  0.21080  0.74300  Biso   1.000  O
  O18      1.0000 0.54840  0.78920  0.25700  Biso   1.000  O
  H39      1.0000 0.49390  0.24800  0.70310  Biso   1.000  H
  H40      1.0000 0.50610  0.75200  0.29690  Biso   1.000  H
  C29      1.0000 0.29800  0.08630  0.71920  Biso   1.000  C
  C30      1.0000 0.70200  0.91370  0.28080  Biso   1.000  C
  H41      1.0000 0.26390  0.02727  0.76526  Biso   1.000  H
  H42      1.0000 0.73610  0.97273  0.23474  Biso   1.000  H
  H43      1.0000 0.33303  0.01378  0.67664  Biso   1.000  H
  H44      1.0000 0.66697  0.98622  0.32336  Biso   1.000  H
  H45      1.0000 0.19228  0.13290  0.69956  Biso   1.000  H
  H46      1.0000 0.80772  0.86710  0.30044  Biso   1.000  H
