data_image0
_cell_length_a       9.3748
_cell_length_b       10.6145
_cell_length_c       11.6674
_cell_angle_alpha    70.226
_cell_angle_beta     88.843
_cell_angle_gamma    74.446

_symmetry_space_group_name_H-M    "P 1"
_symmetry_int_tables_number       1

loop_
  _symmetry_equiv_pos_as_xyz
  'x, y, z'

loop_
  _atom_site_label
  _atom_site_occupancy
  _atom_site_fract_x
  _atom_site_fract_y
  _atom_site_fract_z
  _atom_site_thermal_displace_type
  _atom_site_B_iso_or_equiv
  _atom_site_type_symbol
  Cu1      1.0000 0.81628  0.24711  0.95019  Biso   1.000  Cu
  Cu2      1.0000 0.18372  0.75289  0.04981  Biso   1.000  Cu
  O1       1.0000 0.72760  0.38070  0.02830  Biso   1.000  O
  O2       1.0000 0.27240  0.61930  0.97170  Biso   1.000  O
  O3       1.0000 0.70650  0.59960  0.01520  Biso   1.000  O
  O4       1.0000 0.29350  0.40040  0.98480  Biso   1.000  O
  O5       1.0000 0.90960  0.11100  0.87390  Biso   1.000  O
  O6       1.0000 0.09040  0.88900  0.12610  Biso   1.000  O
  O7       1.0000 0.93530  0.88960  0.89120  Biso   1.000  O
  O8       1.0000 0.06470  0.11040  0.10880  Biso   1.000  O
  N1       1.0000 0.91920  0.38820  0.86240  Biso   1.000  N
  N2       1.0000 0.08080  0.61180  0.13760  Biso   1.000  N
  N3       1.0000 0.37570  0.63260  0.23190  Biso   1.000  N
  N4       1.0000 0.62430  0.36740  0.76810  Biso   1.000  N
  N5       1.0000 0.71720  0.10490  0.03950  Biso   1.000  N
  N6       1.0000 0.28280  0.89510  0.96050  Biso   1.000  N
  N7       1.0000 0.14680  0.89980  0.60640  Biso   1.000  N
  N8       1.0000 0.85320  0.10020  0.39360  Biso   1.000  N
  C1       1.0000 0.75820  0.49740  0.98570  Biso   1.000  C
  C2       1.0000 0.24180  0.50260  0.01430  Biso   1.000  C
  C3       1.0000 0.87210  0.50470  0.89040  Biso   1.000  C
  C4       1.0000 0.12790  0.49530  0.10960  Biso   1.000  C
  C5       1.0000 0.92280  0.62100  0.83500  Biso   1.000  C
  C6       1.0000 0.07720  0.37900  0.16500  Biso   1.000  C
  H1       1.0000 0.88933  0.70039  0.85606  Biso   1.000  H
  H2       1.0000 0.11067  0.29961  0.14394  Biso   1.000  H
  C7       1.0000 0.02410  0.61590  0.74780  Biso   1.000  C
  C8       1.0000 0.97590  0.38410  0.25220  Biso   1.000  C
  H3       1.0000 0.06102  0.69177  0.71045  Biso   1.000  H
  H4       1.0000 0.93898  0.30823  0.28955  Biso   1.000  H
  C9       1.0000 0.07080  0.49650  0.71590  Biso   1.000  C
  C10      1.0000 0.92920  0.50350  0.28410  Biso   1.000  C
  C11      1.0000 0.01600  0.38240  0.77800  Biso   1.000  C
  C12      1.0000 0.98400  0.61760  0.22200  Biso   1.000  C
  H5       1.0000 0.04817  0.30110  0.75968  Biso   1.000  H
  H6       1.0000 0.95183  0.69890  0.24032  Biso   1.000  H
  C13      1.0000 0.16920  0.48980  0.62030  Biso   1.000  C
  C14      1.0000 0.83080  0.51020  0.37970  Biso   1.000  C
  C15      1.0000 0.24590  0.48850  0.53810  Biso   1.000  C
  C16      1.0000 0.75410  0.51150  0.46190  Biso   1.000  C
  C17      1.0000 0.33230  0.49510  0.43390  Biso   1.000  C
  C18      1.0000 0.66770  0.50490  0.56610  Biso   1.000  C
  C19      1.0000 0.30590  0.61770  0.33500  Biso   1.000  C
  C20      1.0000 0.69410  0.38230  0.66500  Biso   1.000  C
  H7       1.0000 0.23480  0.69530  0.34037  Biso   1.000  H
  H8       1.0000 0.76520  0.30470  0.65963  Biso   1.000  H
  C21      1.0000 0.47990  0.51980  0.22700  Biso   1.000  C
  C22      1.0000 0.52010  0.48020  0.77300  Biso   1.000  C
  H9       1.0000 0.53072  0.52799  0.15671  Biso   1.000  H
  H10      1.0000 0.46928  0.47201  0.84329  Biso   1.000  H
  C23      1.0000 0.51530  0.39300  0.32030  Biso   1.000  C
  C24      1.0000 0.48470  0.60700  0.67970  Biso   1.000  C
  H11      1.0000 0.58805  0.31771  0.31279  Biso   1.000  H
  H12      1.0000 0.41195  0.68229  0.68721  Biso   1.000  H
  C25      1.0000 0.44030  0.37920  0.42670  Biso   1.000  C
  C26      1.0000 0.55970  0.62080  0.57330  Biso   1.000  C
  H13      1.0000 0.46183  0.29459  0.49114  Biso   1.000  H
  H14      1.0000 0.53817  0.70541  0.50886  Biso   1.000  H
  C27      1.0000 0.87760  0.99430  0.91630  Biso   1.000  C
  C28      1.0000 0.12240  0.00570  0.08370  Biso   1.000  C
  C29      1.0000 0.76000  0.99080  0.00770  Biso   1.000  C
  C30      1.0000 0.24000  0.00920  0.99230  Biso   1.000  C
  C31      1.0000 0.70230  0.87760  0.05880  Biso   1.000  C
  C32      1.0000 0.29770  0.12240  0.94120  Biso   1.000  C
  H15      1.0000 0.73304  0.79919  0.03599  Biso   1.000  H
  H16      1.0000 0.26696  0.20081  0.96401  Biso   1.000  H
  C33      1.0000 0.59900  0.88400  0.14350  Biso   1.000  C
  C34      1.0000 0.40100  0.11600  0.85650  Biso   1.000  C
  H17      1.0000 0.55860  0.80982  0.17802  Biso   1.000  H
  H18      1.0000 0.44140  0.19018  0.82198  Biso   1.000  H
  C35      1.0000 0.55450  0.00230  0.17770  Biso   1.000  C
  C36      1.0000 0.44550  0.99770  0.82230  Biso   1.000  C
  C37      1.0000 0.61650  0.11220  0.12100  Biso   1.000  C
  C38      1.0000 0.38350  0.88780  0.87900  Biso   1.000  C
  H19      1.0000 0.58642  0.19270  0.14077  Biso   1.000  H
  H20      1.0000 0.41358  0.80730  0.85923  Biso   1.000  H
  C39      1.0000 0.45010  0.01340  0.26760  Biso   1.000  C
  C40      1.0000 0.54990  0.98660  0.73240  Biso   1.000  C
  C41      1.0000 0.36580  0.01970  0.34370  Biso   1.000  C
  C42      1.0000 0.63420  0.98030  0.65630  Biso   1.000  C
  C43      1.0000 0.26990  0.02510  0.44050  Biso   1.000  C
  C44      1.0000 0.73010  0.97490  0.55950  Biso   1.000  C
  C45      1.0000 0.22560  0.90810  0.50860  Biso   1.000  C
  C46      1.0000 0.77440  0.09190  0.49140  Biso   1.000  C
  H21      1.0000 0.25264  0.83056  0.48434  Biso   1.000  H
  H22      1.0000 0.74736  0.16944  0.51566  Biso   1.000  H
  C47      1.0000 0.10530  0.01330  0.63710  Biso   1.000  C
  C48      1.0000 0.89470  0.98670  0.36290  Biso   1.000  C
  H23      1.0000 0.05140  0.00951  0.70546  Biso   1.000  H
  H24      1.0000 0.94860  0.99049  0.29454  Biso   1.000  H
  C49      1.0000 0.13810  0.13730  0.57250  Biso   1.000  C
  C50      1.0000 0.86190  0.86270  0.42750  Biso   1.000  C
  H25      1.0000 0.10387  0.21530  0.59552  Biso   1.000  H
  H26      1.0000 0.89613  0.78470  0.40448  Biso   1.000  H
  C51      1.0000 0.22240  0.14250  0.47380  Biso   1.000  C
  C52      1.0000 0.77760  0.85750  0.52620  Biso   1.000  C
  H27      1.0000 0.24716  0.22388  0.42988  Biso   1.000  H
  H28      1.0000 0.75284  0.77612  0.57012  Biso   1.000  H
