data_image0
_cell_length_a       10.5778
_cell_length_b       10.7471
_cell_length_c       18.2489
_cell_angle_alpha    98.429
_cell_angle_beta     102.475
_cell_angle_gamma    98.574

_symmetry_space_group_name_H-M    "P 1"
_symmetry_int_tables_number       1

loop_
  _symmetry_equiv_pos_as_xyz
  'x, y, z'

loop_
  _atom_site_label
  _atom_site_occupancy
  _atom_site_fract_x
  _atom_site_fract_y
  _atom_site_fract_z
  _atom_site_thermal_displace_type
  _atom_site_B_iso_or_equiv
  _atom_site_type_symbol
  C1       1.0000 0.01270  0.26370  0.03950  Biso   1.000  C
  C2       1.0000 0.98730  0.73630  0.96050  Biso   1.000  C
  C3       1.0000 0.01040  0.24380  0.95580  Biso   1.000  C
  C4       1.0000 0.98960  0.75620  0.04420  Biso   1.000  C
  C5       1.0000 0.01020  0.12680  0.91150  Biso   1.000  C
  C6       1.0000 0.98980  0.87320  0.08850  Biso   1.000  C
  H1       1.0000 0.01099  0.05360  0.93303  Biso   1.000  H
  H2       1.0000 0.98901  0.94640  0.06697  Biso   1.000  H
  C7       1.0000 0.00860  0.12070  0.83560  Biso   1.000  C
  C8       1.0000 0.99140  0.87930  0.16440  Biso   1.000  C
  H3       1.0000 0.00798  0.04295  0.80529  Biso   1.000  H
  H4       1.0000 0.99202  0.95705  0.19471  Biso   1.000  H
  C9       1.0000 0.00800  0.23190  0.80380  Biso   1.000  C
  C10      1.0000 0.99200  0.76810  0.19620  Biso   1.000  C
  C11      1.0000 0.00840  0.34580  0.85240  Biso   1.000  C
  C12      1.0000 0.99160  0.65420  0.14760  Biso   1.000  C
  H5       1.0000 0.00847  0.42084  0.83260  Biso   1.000  H
  H6       1.0000 0.99153  0.57916  0.16740  Biso   1.000  H
  C13      1.0000 0.00610  0.23370  0.72560  Biso   1.000  C
  C14      1.0000 0.99390  0.76630  0.27440  Biso   1.000  C
  C15      1.0000 0.00300  0.23860  0.66020  Biso   1.000  C
  C16      1.0000 0.99700  0.76140  0.33980  Biso   1.000  C
  C17      1.0000 0.00370  0.24180  0.58240  Biso   1.000  C
  C18      1.0000 0.99630  0.75820  0.41760  Biso   1.000  C
  C19      1.0000 0.05880  0.15280  0.54180  Biso   1.000  C
  C20      1.0000 0.94120  0.84720  0.45820  Biso   1.000  C
  H7       1.0000 0.09462  0.09096  0.56579  Biso   1.000  H
  H8       1.0000 0.90538  0.90904  0.43421  Biso   1.000  H
  C21      1.0000 0.06100  0.15510  0.46680  Biso   1.000  C
  C22      1.0000 0.93900  0.84490  0.53320  Biso   1.000  C
  H9       1.0000 0.09857  0.09529  0.44072  Biso   1.000  H
  H10      1.0000 0.90143  0.90471  0.55928  Biso   1.000  H
  C23      1.0000 0.00720  0.24680  0.42990  Biso   1.000  C
  C24      1.0000 0.99280  0.75320  0.57010  Biso   1.000  C
  C25      1.0000 0.95220  0.33640  0.46940  Biso   1.000  C
  C26      1.0000 0.04780  0.66360  0.53060  Biso   1.000  C
  H11      1.0000 0.91615  0.39763  0.44491  Biso   1.000  H
  H12      1.0000 0.08385  0.60237  0.55509  Biso   1.000  H
  C27      1.0000 0.95070  0.33530  0.54500  Biso   1.000  C
  C28      1.0000 0.04930  0.66470  0.45500  Biso   1.000  C
  H13      1.0000 0.91470  0.39626  0.57122  Biso   1.000  H
  H14      1.0000 0.08530  0.60374  0.42878  Biso   1.000  H
  C29      1.0000 0.00640  0.23950  0.34740  Biso   1.000  C
  C30      1.0000 0.99360  0.76050  0.65260  Biso   1.000  C
  C31      1.0000 0.93460  0.32310  0.23670  Biso   1.000  C
  C32      1.0000 0.06540  0.67690  0.76330  Biso   1.000  C
  H15      1.0000 0.02002  0.33293  0.22583  Biso   1.000  H
  H16      1.0000 0.97998  0.66707  0.77417  Biso   1.000  H
  H17      1.0000 0.89075  0.38965  0.22002  Biso   1.000  H
  H18      1.0000 0.10925  0.61035  0.77998  Biso   1.000  H
  H19      1.0000 0.88337  0.24116  0.21021  Biso   1.000  H
  H20      1.0000 0.11663  0.75884  0.78979  Biso   1.000  H
  C33      1.0000 0.68730  0.00770  0.83810  Biso   1.000  C
  C34      1.0000 0.31270  0.99230  0.16190  Biso   1.000  C
  C35      1.0000 0.68280  0.01910  0.92140  Biso   1.000  C
  C36      1.0000 0.31720  0.98090  0.07860  Biso   1.000  C
  C37      1.0000 0.67720  0.13130  0.96760  Biso   1.000  C
  C38      1.0000 0.32280  0.86870  0.03240  Biso   1.000  C
  H21      1.0000 0.67700  0.20692  0.94858  Biso   1.000  H
  H22      1.0000 0.32300  0.79308  0.05142  Biso   1.000  H
  C39      1.0000 0.67180  0.12960  0.04250  Biso   1.000  C
  C40      1.0000 0.32820  0.87040  0.95750  Biso   1.000  C
  H23      1.0000 0.66914  0.20437  0.07450  Biso   1.000  H
  H24      1.0000 0.33086  0.79563  0.92550  Biso   1.000  H
  C41      1.0000 0.67050  0.01410  0.06960  Biso   1.000  C
  C42      1.0000 0.32950  0.98590  0.93040  Biso   1.000  C
  C43      1.0000 0.67690  0.90430  0.01940  Biso   1.000  C
  C44      1.0000 0.32310  0.09570  0.98060  Biso   1.000  C
  H25      1.0000 0.67627  0.82694  0.03654  Biso   1.000  H
  H26      1.0000 0.32373  0.17306  0.96346  Biso   1.000  H
  C45      1.0000 0.66290  0.00290  0.14550  Biso   1.000  C
  C46      1.0000 0.33710  0.99710  0.85450  Biso   1.000  C
  C47      1.0000 0.65710  0.98970  0.20920  Biso   1.000  C
  C48      1.0000 0.34290  0.01030  0.79080  Biso   1.000  C
  C49      1.0000 0.64810  0.97130  0.28380  Biso   1.000  C
  C50      1.0000 0.35190  0.02870  0.71620  Biso   1.000  C
  C51      1.0000 0.70170  0.07300  0.34690  Biso   1.000  C
  C52      1.0000 0.29830  0.92700  0.65310  Biso   1.000  C
  H27      1.0000 0.74221  0.15131  0.33914  Biso   1.000  H
  H28      1.0000 0.25779  0.84869  0.66086  Biso   1.000  H
  C53      1.0000 0.69450  0.05740  0.42000  Biso   1.000  C
  C54      1.0000 0.30550  0.94260  0.58000  Biso   1.000  C
  H29      1.0000 0.72901  0.12523  0.46087  Biso   1.000  H
  H30      1.0000 0.27099  0.87477  0.53913  Biso   1.000  H
  C55      1.0000 0.63530  0.93910  0.43230  Biso   1.000  C
  C56      1.0000 0.36470  0.06090  0.56770  Biso   1.000  C
  C57      1.0000 0.58260  0.83890  0.37040  Biso   1.000  C
  C58      1.0000 0.41740  0.16110  0.62960  Biso   1.000  C
  H31      1.0000 0.54253  0.76040  0.37813  Biso   1.000  H
  H32      1.0000 0.45747  0.23960  0.62187  Biso   1.000  H
  C59      1.0000 0.58940  0.85540  0.29750  Biso   1.000  C
  C60      1.0000 0.41060  0.14460  0.70250  Biso   1.000  C
  H33      1.0000 0.55388  0.78748  0.25682  Biso   1.000  H
  H34      1.0000 0.44612  0.21252  0.74318  Biso   1.000  H
  C61      1.0000 0.63100  0.91420  0.50920  Biso   1.000  C
  C62      1.0000 0.36900  0.08580  0.49080  Biso   1.000  C
  C63      1.0000 0.68780  0.99650  0.64160  Biso   1.000  C
  C64      1.0000 0.31220  0.00350  0.35840  Biso   1.000  C
  H35      1.0000 0.59959  0.97410  0.64729  Biso   1.000  H
  H36      1.0000 0.40041  0.02590  0.35271  Biso   1.000  H
  H37      1.0000 0.73224  0.07337  0.67734  Biso   1.000  H
  H38      1.0000 0.26776  0.92663  0.32266  Biso   1.000  H
  H39      1.0000 0.73442  0.92821  0.65136  Biso   1.000  H
  H40      1.0000 0.26558  0.07179  0.34864  Biso   1.000  H
  C65      1.0000 0.72000  0.53210  0.90760  Biso   1.000  C
  C66      1.0000 0.28000  0.46790  0.09240  Biso   1.000  C
  C67      1.0000 0.71340  0.51430  0.82320  Biso   1.000  C
  C68      1.0000 0.28660  0.48570  0.17680  Biso   1.000  C
  C69      1.0000 0.71130  0.39730  0.77850  Biso   1.000  C
  C70      1.0000 0.28870  0.60270  0.22150  Biso   1.000  C
  H41      1.0000 0.71433  0.32388  0.79971  Biso   1.000  H
  H42      1.0000 0.28567  0.67612  0.20029  Biso   1.000  H
  C71      1.0000 0.70470  0.39310  0.70210  Biso   1.000  C
  C72      1.0000 0.29530  0.60690  0.29790  Biso   1.000  C
  H43      1.0000 0.70324  0.31585  0.67104  Biso   1.000  H
  H44      1.0000 0.29676  0.68415  0.32896  Biso   1.000  H
  C73      1.0000 0.70020  0.50400  0.67070  Biso   1.000  C
  C74      1.0000 0.29980  0.49600  0.32930  Biso   1.000  C
  C75      1.0000 0.70560  0.61870  0.72014  Biso   1.000  C
  C76      1.0000 0.29440  0.38130  0.27986  Biso   1.000  C
  H45      1.0000 0.70593  0.69418  0.70087  Biso   1.000  H
  H46      1.0000 0.29407  0.30582  0.29913  Biso   1.000  H
  C77      1.0000 0.68640  0.49970  0.59060  Biso   1.000  C
  C78      1.0000 0.31360  0.50030  0.40940  Biso   1.000  C
  C79      1.0000 0.66910  0.48710  0.52280  Biso   1.000  C
  C80      1.0000 0.33090  0.51290  0.47720  Biso   1.000  C
  C81      1.0000 0.65370  0.47050  0.44120  Biso   1.000  C
  C82      1.0000 0.34630  0.52950  0.55880  Biso   1.000  C
  C83      1.0000 0.59370  0.35360  0.39390  Biso   1.000  C
  C84      1.0000 0.40630  0.64640  0.60610  Biso   1.000  C
  H47      1.0000 0.56120  0.28532  0.41474  Biso   1.000  H
  H48      1.0000 0.43880  0.71468  0.58526  Biso   1.000  H
  C85      1.0000 0.58220  0.33830  0.31660  Biso   1.000  C
  C86      1.0000 0.41780  0.66170  0.68340  Biso   1.000  C
  H49      1.0000 0.54233  0.25970  0.28539  Biso   1.000  H
  H50      1.0000 0.45767  0.74030  0.71461  Biso   1.000  H
  C87      1.0000 0.63000  0.44040  0.28450  Biso   1.000  C
  C88      1.0000 0.37000  0.55960  0.71550  Biso   1.000  C
  C89      1.0000 0.68960  0.55800  0.33210  Biso   1.000  C
  C90      1.0000 0.31040  0.44200  0.66790  Biso   1.000  C
  H51      1.0000 0.72181  0.62658  0.31139  Biso   1.000  H
  H52      1.0000 0.27819  0.37342  0.68861  Biso   1.000  H
  C91      1.0000 0.70070  0.57240  0.40950  Biso   1.000  C
  C92      1.0000 0.29930  0.42760  0.59050  Biso   1.000  C
  H53      1.0000 0.73992  0.65101  0.44090  Biso   1.000  H
  H54      1.0000 0.26008  0.34899  0.55910  Biso   1.000  H
  C93      1.0000 0.61290  0.42000  0.20080  Biso   1.000  C
  C94      1.0000 0.38710  0.58000  0.79920  Biso   1.000  C
  C95      1.0000 0.65180  0.51020  0.09540  Biso   1.000  C
  C96      1.0000 0.34820  0.48980  0.90460  Biso   1.000  C
  H55      1.0000 0.71026  0.45624  0.08093  Biso   1.000  H
  H56      1.0000 0.28974  0.54376  0.91907  Biso   1.000  H
  H57      1.0000 0.67407  0.59269  0.08245  Biso   1.000  H
  H58      1.0000 0.32593  0.40731  0.91755  Biso   1.000  H
  H59      1.0000 0.56261  0.47199  0.06887  Biso   1.000  H
  H60      1.0000 0.43739  0.52801  0.93113  Biso   1.000  H
  N1       1.0000 0.00870  0.35080  0.92544  Biso   1.000  N
  N2       1.0000 0.99130  0.64920  0.07456  Biso   1.000  N
  N3       1.0000 0.68370  0.90840  0.94826  Biso   1.000  N
  N4       1.0000 0.31630  0.09160  0.05174  Biso   1.000  N
  N5       1.0000 0.71040  0.62240  0.79368  Biso   1.000  N
  N6       1.0000 0.28960  0.37760  0.20632  Biso   1.000  N
  O1       1.0000 0.99640  0.37650  0.06822  Biso   1.000  O
  O2       1.0000 0.00360  0.62350  0.93178  Biso   1.000  O
  O3       1.0000 0.03080  0.17760  0.07544  Biso   1.000  O
  O4       1.0000 0.96920  0.82240  0.92456  Biso   1.000  O
  O5       1.0000 0.94920  0.33130  0.31834  Biso   1.000  O
  O6       1.0000 0.05080  0.66870  0.68166  Biso   1.000  O
  O7       1.0000 0.04900  0.16060  0.31056  Biso   1.000  O
  O8       1.0000 0.95100  0.83940  0.68944  Biso   1.000  O
  O9       1.0000 0.69140  0.89570  0.80489  Biso   1.000  O
  O10      1.0000 0.30860  0.10430  0.19511  Biso   1.000  O
  O11      1.0000 0.68620  0.10370  0.80895  Biso   1.000  O
  O12      1.0000 0.31380  0.89630  0.19105  Biso   1.000  O
  O13      1.0000 0.58660  0.81070  0.52129  Biso   1.000  O
  O14      1.0000 0.41340  0.18930  0.47871  Biso   1.000  O
  O15      1.0000 0.68360  0.01750  0.56461  Biso   1.000  O
  O16      1.0000 0.31640  0.98250  0.43539  Biso   1.000  O
  O17      1.0000 0.70850  0.64420  0.93845  Biso   1.000  O
  O18      1.0000 0.29150  0.35580  0.06155  Biso   1.000  O
  O19      1.0000 0.73780  0.44270  0.94159  Biso   1.000  O
  O20      1.0000 0.26220  0.55730  0.05841  Biso   1.000  O
  O21      1.0000 0.66440  0.52470  0.17736  Biso   1.000  O
  O22      1.0000 0.33560  0.47530  0.82264  Biso   1.000  O
  O23      1.0000 0.55910  0.32070  0.15765  Biso   1.000  O
  O24      1.0000 0.44090  0.67930  0.84235  Biso   1.000  O
  Cu1      1.0000 0.00000  0.50000  0.00000  Biso   1.000  Cu
  Cu2      1.0000 0.69999  0.76872  0.87068  Biso   1.000  Cu
  Cu3      1.0000 0.30001  0.23128  0.12932  Biso   1.000  Cu
