data_image0
_cell_length_a       12.79
_cell_length_b       30.255
_cell_length_c       8.644
_cell_angle_alpha    90
_cell_angle_beta     92.168
_cell_angle_gamma    90

_symmetry_space_group_name_H-M    "P 1"
_symmetry_int_tables_number       1

loop_
  _symmetry_equiv_pos_as_xyz
  'x, y, z'

loop_
  _atom_site_label
  _atom_site_occupancy
  _atom_site_fract_x
  _atom_site_fract_y
  _atom_site_fract_z
  _atom_site_thermal_displace_type
  _atom_site_B_iso_or_equiv
  _atom_site_type_symbol
  Cu1      1.0000 0.09538  0.19625  0.88028  Biso   1.000  Cu
  Cu2      1.0000 0.90462  0.69625  0.61972  Biso   1.000  Cu
  Cu3      1.0000 0.90462  0.80375  0.11972  Biso   1.000  Cu
  Cu4      1.0000 0.09538  0.30375  0.38028  Biso   1.000  Cu
  N1       1.0000 0.18370  0.24574  0.80810  Biso   1.000  N
  N2       1.0000 0.81630  0.74574  0.69190  Biso   1.000  N
  N3       1.0000 0.81630  0.75426  0.19190  Biso   1.000  N
  N4       1.0000 0.18370  0.25426  0.30810  Biso   1.000  N
  C1       1.0000 0.27290  0.25572  0.89410  Biso   1.000  C
  C2       1.0000 0.72710  0.75572  0.60590  Biso   1.000  C
  C3       1.0000 0.72710  0.74428  0.10590  Biso   1.000  C
  C4       1.0000 0.27290  0.24428  0.39410  Biso   1.000  C
  H1       1.0000 0.29800  0.23490  0.96880  Biso   1.000  H
  H2       1.0000 0.70200  0.73490  0.53120  Biso   1.000  H
  H3       1.0000 0.70200  0.76510  0.03120  Biso   1.000  H
  H4       1.0000 0.29800  0.26510  0.46880  Biso   1.000  H
  C5       1.0000 0.32730  0.29383  0.87780  Biso   1.000  C
  C6       1.0000 0.67270  0.79383  0.62220  Biso   1.000  C
  C7       1.0000 0.67270  0.70617  0.12220  Biso   1.000  C
  C8       1.0000 0.32730  0.20617  0.37780  Biso   1.000  C
  H5       1.0000 0.39030  0.29960  0.93620  Biso   1.000  H
  H6       1.0000 0.60970  0.79960  0.56380  Biso   1.000  H
  H7       1.0000 0.60970  0.70040  0.06380  Biso   1.000  H
  H8       1.0000 0.39030  0.20040  0.43620  Biso   1.000  H
  C9       1.0000 0.28570  0.32408  0.77060  Biso   1.000  C
  C10      1.0000 0.71430  0.82408  0.72940  Biso   1.000  C
  C11      1.0000 0.71430  0.67592  0.22940  Biso   1.000  C
  C12      1.0000 0.28570  0.17592  0.27060  Biso   1.000  C
  H9       1.0000 0.31940  0.35190  0.76170  Biso   1.000  H
  H10      1.0000 0.68060  0.85190  0.73830  Biso   1.000  H
  H11      1.0000 0.68060  0.64810  0.23830  Biso   1.000  H
  H12      1.0000 0.31940  0.14810  0.26170  Biso   1.000  H
  N5       1.0000 0.20190  0.31609  0.68050  Biso   1.000  N
  N6       1.0000 0.79810  0.81609  0.81950  Biso   1.000  N
  N7       1.0000 0.79810  0.68391  0.31950  Biso   1.000  N
  N8       1.0000 0.20190  0.18391  0.18050  Biso   1.000  N
  C13      1.0000 0.15450  0.27551  0.69540  Biso   1.000  C
  C14      1.0000 0.84550  0.77551  0.80460  Biso   1.000  C
  C15      1.0000 0.84550  0.72449  0.30460  Biso   1.000  C
  C16      1.0000 0.15450  0.22449  0.19540  Biso   1.000  C
  N9       1.0000 0.02500  0.19491  0.65780  Biso   1.000  N
  N10      1.0000 0.97500  0.69491  0.84220  Biso   1.000  N
  N11      1.0000 0.97500  0.80509  0.34220  Biso   1.000  N
  N12      1.0000 0.02500  0.30509  0.15780  Biso   1.000  N
  C17      1.0000 0.97020  0.15850  0.61050  Biso   1.000  C
  C18      1.0000 0.02980  0.65850  0.88950  Biso   1.000  C
  C19      1.0000 0.02980  0.84150  0.38950  Biso   1.000  C
  C20      1.0000 0.97020  0.34150  0.11050  Biso   1.000  C
  H13      1.0000 0.97460  0.13270  0.67290  Biso   1.000  H
  H14      1.0000 0.02540  0.63270  0.82710  Biso   1.000  H
  H15      1.0000 0.02540  0.86730  0.32710  Biso   1.000  H
  H16      1.0000 0.97460  0.36730  0.17290  Biso   1.000  H
  C21      1.0000 0.90840  0.15736  0.47560  Biso   1.000  C
  C22      1.0000 0.09160  0.65736  0.02440  Biso   1.000  C
  C23      1.0000 0.09160  0.84264  0.52440  Biso   1.000  C
  C24      1.0000 0.90840  0.34264  0.97560  Biso   1.000  C
  H17      1.0000 0.87170  0.13150  0.44280  Biso   1.000  H
  H18      1.0000 0.12830  0.63150  0.05720  Biso   1.000  H
  H19      1.0000 0.12830  0.86850  0.55720  Biso   1.000  H
  H20      1.0000 0.87170  0.36850  0.94280  Biso   1.000  H
  C25      1.0000 0.90330  0.19616  0.39190  Biso   1.000  C
  C26      1.0000 0.09670  0.69616  0.10810  Biso   1.000  C
  C27      1.0000 0.09670  0.80384  0.60810  Biso   1.000  C
  C28      1.0000 0.90330  0.30384  0.89190  Biso   1.000  C
  H21      1.0000 0.85850  0.19720  0.30180  Biso   1.000  H
  H22      1.0000 0.14150  0.69720  0.19820  Biso   1.000  H
  H23      1.0000 0.14150  0.80280  0.69820  Biso   1.000  H
  H24      1.0000 0.85850  0.30280  0.80180  Biso   1.000  H
  N13      1.0000 0.95810  0.23229  0.43060  Biso   1.000  N
  N14      1.0000 0.04190  0.73229  0.06940  Biso   1.000  N
  N15      1.0000 0.04190  0.76771  0.56940  Biso   1.000  N
  N16      1.0000 0.95810  0.26771  0.93060  Biso   1.000  N
  C29      1.0000 0.02100  0.23034  0.56160  Biso   1.000  C
  C30      1.0000 0.97900  0.73034  0.93840  Biso   1.000  C
  C31      1.0000 0.97900  0.76966  0.43840  Biso   1.000  C
  C32      1.0000 0.02100  0.26966  0.06160  Biso   1.000  C
  N17      1.0000 0.07860  0.26819  0.58390  Biso   1.000  N
  N18      1.0000 0.92140  0.76819  0.91610  Biso   1.000  N
  N19      1.0000 0.92140  0.73181  0.41610  Biso   1.000  N
  N20      1.0000 0.07860  0.23181  0.08390  Biso   1.000  N
  N21      1.0000 0.21030  0.14476  0.83740  Biso   1.000  N
  N22      1.0000 0.78970  0.64476  0.66260  Biso   1.000  N
  N23      1.0000 0.78970  0.85524  0.16260  Biso   1.000  N
  N24      1.0000 0.21030  0.35524  0.33740  Biso   1.000  N
  C33      1.0000 0.29150  0.15310  0.74490  Biso   1.000  C
  C34      1.0000 0.70850  0.65310  0.75510  Biso   1.000  C
  C35      1.0000 0.70850  0.84690  0.25510  Biso   1.000  C
  C36      1.0000 0.29150  0.34690  0.24490  Biso   1.000  C
  H25      1.0000 0.29360  0.18080  0.69330  Biso   1.000  H
  H26      1.0000 0.70640  0.68080  0.80670  Biso   1.000  H
  H27      1.0000 0.70640  0.81920  0.30670  Biso   1.000  H
  H28      1.0000 0.29360  0.31920  0.19330  Biso   1.000  H
  C37      1.0000 0.37020  0.12358  0.72250  Biso   1.000  C
  C38      1.0000 0.62980  0.62358  0.77750  Biso   1.000  C
  C39      1.0000 0.62980  0.87642  0.27750  Biso   1.000  C
  C40      1.0000 0.37020  0.37642  0.22250  Biso   1.000  C
  H29      1.0000 0.42280  0.13220  0.65230  Biso   1.000  H
  H30      1.0000 0.57720  0.63220  0.84770  Biso   1.000  H
  H31      1.0000 0.57720  0.86780  0.34770  Biso   1.000  H
  H32      1.0000 0.42280  0.36780  0.15230  Biso   1.000  H
  C41      1.0000 0.36430  0.08402  0.79940  Biso   1.000  C
  C42      1.0000 0.63570  0.58402  0.70060  Biso   1.000  C
  C43      1.0000 0.63570  0.91598  0.20060  Biso   1.000  C
  C44      1.0000 0.36430  0.41598  0.29940  Biso   1.000  C
  H33      1.0000 0.41830  0.06290  0.78690  Biso   1.000  H
  H34      1.0000 0.58170  0.56290  0.71310  Biso   1.000  H
  H35      1.0000 0.58170  0.93710  0.21310  Biso   1.000  H
  H36      1.0000 0.41830  0.43710  0.28690  Biso   1.000  H
  N25      1.0000 0.28580  0.07383  0.89140  Biso   1.000  N
  N26      1.0000 0.71420  0.57383  0.60860  Biso   1.000  N
  N27      1.0000 0.71420  0.92617  0.10860  Biso   1.000  N
  N28      1.0000 0.28580  0.42617  0.39140  Biso   1.000  N
  C45      1.0000 0.21150  0.10496  0.90340  Biso   1.000  C
  C46      1.0000 0.78850  0.60496  0.59660  Biso   1.000  C
  C47      1.0000 0.78850  0.89504  0.09660  Biso   1.000  C
  C48      1.0000 0.21150  0.39504  0.40340  Biso   1.000  C
  N29      1.0000 0.00480  0.14857  0.96420  Biso   1.000  N
  N30      1.0000 0.99520  0.64857  0.53580  Biso   1.000  N
  N31      1.0000 0.99520  0.85143  0.03580  Biso   1.000  N
  N32      1.0000 0.00480  0.35143  0.46420  Biso   1.000  N
  C49      1.0000 0.90460  0.16074  0.98540  Biso   1.000  C
  C50      1.0000 0.09540  0.66074  0.51460  Biso   1.000  C
  C51      1.0000 0.09540  0.83926  0.01460  Biso   1.000  C
  C52      1.0000 0.90460  0.33926  0.48540  Biso   1.000  C
  H37      1.0000 0.88120  0.18840  0.94520  Biso   1.000  H
  H38      1.0000 0.11880  0.68840  0.55480  Biso   1.000  H
  H39      1.0000 0.11880  0.81160  0.05480  Biso   1.000  H
  H40      1.0000 0.88120  0.31160  0.44520  Biso   1.000  H
  C53      1.0000 0.83550  0.13500  0.06220  Biso   1.000  C
  C54      1.0000 0.16450  0.63500  0.43780  Biso   1.000  C
  C55      1.0000 0.16450  0.86500  0.93780  Biso   1.000  C
  C56      1.0000 0.83550  0.36500  0.56220  Biso   1.000  C
  H41      1.0000 0.76480  0.14360  0.07420  Biso   1.000  H
  H42      1.0000 0.23520  0.64360  0.42580  Biso   1.000  H
  H43      1.0000 0.23520  0.85640  0.92580  Biso   1.000  H
  H44      1.0000 0.76480  0.35640  0.57420  Biso   1.000  H
  C57      1.0000 0.87560  0.09542  0.12160  Biso   1.000  C
  C58      1.0000 0.12440  0.59542  0.37840  Biso   1.000  C
  C59      1.0000 0.12440  0.90458  0.87840  Biso   1.000  C
  C60      1.0000 0.87560  0.40458  0.62160  Biso   1.000  C
  H45      1.0000 0.83120  0.07730  0.18040  Biso   1.000  H
  H46      1.0000 0.16880  0.57730  0.31960  Biso   1.000  H
  H47      1.0000 0.16880  0.92270  0.81960  Biso   1.000  H
  H48      1.0000 0.83120  0.42270  0.68040  Biso   1.000  H
  N33      1.0000 0.97220  0.08169  0.10060  Biso   1.000  N
  N34      1.0000 0.02780  0.58169  0.39940  Biso   1.000  N
  N35      1.0000 0.02780  0.91831  0.89940  Biso   1.000  N
  N36      1.0000 0.97220  0.41831  0.60060  Biso   1.000  N
  C61      1.0000 0.03390  0.10842  0.01700  Biso   1.000  C
  C62      1.0000 0.96610  0.60842  0.48300  Biso   1.000  C
  C63      1.0000 0.96610  0.89158  0.98300  Biso   1.000  C
  C64      1.0000 0.03390  0.39158  0.51700  Biso   1.000  C
  N37      1.0000 0.13040  0.09089  0.99530  Biso   1.000  N
  N38      1.0000 0.86960  0.59089  0.50470  Biso   1.000  N
  N39      1.0000 0.86960  0.90911  0.00470  Biso   1.000  N
  N40      1.0000 0.13040  0.40911  0.49530  Biso   1.000  N
  H49      1.0000 0.14390  0.06660  0.04810  Biso   1.000  H
  H50      1.0000 0.85610  0.56660  0.45190  Biso   1.000  H
  H51      1.0000 0.85610  0.93340  0.95190  Biso   1.000  H
  H52      1.0000 0.14390  0.43340  0.54810  Biso   1.000  H
  N41      1.0000 0.06540  0.06313  0.60590  Biso   1.000  N
  N42      1.0000 0.93460  0.56313  0.89410  Biso   1.000  N
  N43      1.0000 0.93460  0.93687  0.39410  Biso   1.000  N
  N44      1.0000 0.06540  0.43687  0.10590  Biso   1.000  N
  C65      1.0000 0.14300  0.07143  0.50850  Biso   1.000  C
  C66      1.0000 0.85700  0.57143  0.99150  Biso   1.000  C
  C67      1.0000 0.85700  0.92857  0.49150  Biso   1.000  C
  C68      1.0000 0.14300  0.42857  0.00850  Biso   1.000  C
  H53      1.0000 0.14310  0.09910  0.45640  Biso   1.000  H
  H54      1.0000 0.85690  0.59910  0.04360  Biso   1.000  H
  H55      1.0000 0.85690  0.90090  0.54360  Biso   1.000  H
  H56      1.0000 0.14310  0.40090  0.95640  Biso   1.000  H
  C69      1.0000 0.22070  0.04237  0.48120  Biso   1.000  C
  C70      1.0000 0.77930  0.54237  0.01880  Biso   1.000  C
  C71      1.0000 0.77930  0.95763  0.51880  Biso   1.000  C
  C72      1.0000 0.22070  0.45763  0.98120  Biso   1.000  C
  H57      1.0000 0.27420  0.04910  0.41160  Biso   1.000  H
  H58      1.0000 0.72580  0.54910  0.08840  Biso   1.000  H
  H59      1.0000 0.72580  0.95090  0.58840  Biso   1.000  H
  H60      1.0000 0.27420  0.45090  0.91160  Biso   1.000  H
  C73      1.0000 0.21850  0.00254  0.55920  Biso   1.000  C
  C74      1.0000 0.78150  0.50254  0.94080  Biso   1.000  C
  C75      1.0000 0.78150  0.99746  0.44080  Biso   1.000  C
  C76      1.0000 0.21850  0.49746  0.05920  Biso   1.000  C
  H61      1.0000 0.27290  0.98180  0.54420  Biso   1.000  H
  H62      1.0000 0.72710  0.48180  0.95580  Biso   1.000  H
  H63      1.0000 0.72710  0.01820  0.45580  Biso   1.000  H
  H64      1.0000 0.27290  0.51820  0.04420  Biso   1.000  H
  N45      1.0000 0.14280  0.99205  0.65500  Biso   1.000  N
  N46      1.0000 0.85720  0.49205  0.84500  Biso   1.000  N
  N47      1.0000 0.85720  0.00795  0.34500  Biso   1.000  N
  N48      1.0000 0.14280  0.50795  0.15500  Biso   1.000  N
  C77      1.0000 0.06860  0.02355  0.66920  Biso   1.000  C
  C78      1.0000 0.93140  0.52355  0.83080  Biso   1.000  C
  C79      1.0000 0.93140  0.97645  0.33080  Biso   1.000  C
  C80      1.0000 0.06860  0.47645  0.16920  Biso   1.000  C
  N49      1.0000 0.86350  0.06612  0.72340  Biso   1.000  N
  N50      1.0000 0.13650  0.56612  0.77660  Biso   1.000  N
  N51      1.0000 0.13650  0.93388  0.27660  Biso   1.000  N
  N52      1.0000 0.86350  0.43388  0.22340  Biso   1.000  N
  C81      1.0000 0.76400  0.07822  0.74650  Biso   1.000  C
  C82      1.0000 0.23600  0.57822  0.75350  Biso   1.000  C
  C83      1.0000 0.23600  0.92178  0.25350  Biso   1.000  C
  C84      1.0000 0.76400  0.42178  0.24650  Biso   1.000  C
  H65      1.0000 0.73880  0.10450  0.69820  Biso   1.000  H
  H66      1.0000 0.26120  0.60450  0.80180  Biso   1.000  H
  H67      1.0000 0.26120  0.89550  0.30180  Biso   1.000  H
  H68      1.0000 0.73880  0.39550  0.19820  Biso   1.000  H
  C85      1.0000 0.69690  0.05486  0.83540  Biso   1.000  C
  C86      1.0000 0.30310  0.55486  0.66460  Biso   1.000  C
  C87      1.0000 0.30310  0.94514  0.16460  Biso   1.000  C
  C88      1.0000 0.69690  0.44514  0.33540  Biso   1.000  C
  H69      1.0000 0.62750  0.06460  0.85090  Biso   1.000  H
  H70      1.0000 0.37250  0.56460  0.64910  Biso   1.000  H
  H71      1.0000 0.37250  0.93540  0.14910  Biso   1.000  H
  H72      1.0000 0.62750  0.43540  0.35090  Biso   1.000  H
  C89      1.0000 0.73540  0.01652  0.90090  Biso   1.000  C
  C90      1.0000 0.26460  0.51652  0.59910  Biso   1.000  C
  C91      1.0000 0.26460  0.98348  0.09910  Biso   1.000  C
  C92      1.0000 0.73540  0.48348  0.40090  Biso   1.000  C
  H73      1.0000 0.69110  0.99980  0.96430  Biso   1.000  H
  H74      1.0000 0.30890  0.49980  0.53570  Biso   1.000  H
  H75      1.0000 0.30890  0.00020  0.03570  Biso   1.000  H
  H76      1.0000 0.69110  0.50020  0.46430  Biso   1.000  H
  N53      1.0000 0.83290  0.00157  0.87960  Biso   1.000  N
  N54      1.0000 0.16710  0.50157  0.62040  Biso   1.000  N
  N55      1.0000 0.16710  0.99843  0.12040  Biso   1.000  N
  N56      1.0000 0.83290  0.49843  0.37960  Biso   1.000  N
  C93      1.0000 0.89130  0.02721  0.78950  Biso   1.000  C
  C94      1.0000 0.10870  0.52721  0.71050  Biso   1.000  C
  C95      1.0000 0.10870  0.97279  0.21050  Biso   1.000  C
  C96      1.0000 0.89130  0.47279  0.28950  Biso   1.000  C
  N57      1.0000 0.99010  0.01001  0.76700  Biso   1.000  N
  N58      1.0000 0.00990  0.51001  0.73300  Biso   1.000  N
  N59      1.0000 0.00990  0.98999  0.23300  Biso   1.000  N
  N60      1.0000 0.99010  0.48999  0.26700  Biso   1.000  N
  H77      1.0000 0.00610  0.98670  0.82380  Biso   1.000  H
  H78      1.0000 0.99390  0.48670  0.67620  Biso   1.000  H
  H79      1.0000 0.99390  0.01330  0.17620  Biso   1.000  H
  H80      1.0000 0.00610  0.51330  0.32380  Biso   1.000  H
  C97      1.0000 0.61270  0.20110  0.68940  Biso   1.000  C
  C98      1.0000 0.38730  0.70110  0.81060  Biso   1.000  C
  C99      1.0000 0.38730  0.79890  0.31060  Biso   1.000  C
  C100     1.0000 0.61270  0.29890  0.18940  Biso   1.000  C
  H81      1.0000 0.61620  0.19200  0.57980  Biso   1.000  H
  H82      1.0000 0.38380  0.69200  0.92020  Biso   1.000  H
  H83      1.0000 0.38380  0.80800  0.42020  Biso   1.000  H
  H84      1.0000 0.61620  0.30800  0.07980  Biso   1.000  H
  H85      1.0000 0.62060  0.17430  0.75410  Biso   1.000  H
  H86      1.0000 0.37940  0.67430  0.74590  Biso   1.000  H
  H87      1.0000 0.37940  0.82570  0.24590  Biso   1.000  H
  H88      1.0000 0.62060  0.32570  0.25410  Biso   1.000  H
  C101     1.0000 0.70000  0.23130  0.72710  Biso   1.000  C
  C102     1.0000 0.30000  0.73130  0.77290  Biso   1.000  C
  C103     1.0000 0.30000  0.76870  0.27290  Biso   1.000  C
  C104     1.0000 0.70000  0.26870  0.22710  Biso   1.000  C
  H89      1.0000 0.76630  0.21640  0.70730  Biso   1.000  H
  H90      1.0000 0.23370  0.71640  0.79270  Biso   1.000  H
  H91      1.0000 0.23370  0.78360  0.29270  Biso   1.000  H
  H92      1.0000 0.76630  0.28360  0.20730  Biso   1.000  H
  H93      1.0000 0.69870  0.23960  0.83650  Biso   1.000  H
  H94      1.0000 0.30130  0.73960  0.66350  Biso   1.000  H
  H95      1.0000 0.30130  0.76040  0.16350  Biso   1.000  H
  H96      1.0000 0.69870  0.26040  0.33650  Biso   1.000  H
  H97      1.0000 0.69330  0.25780  0.66260  Biso   1.000  H
  H98      1.0000 0.30670  0.75780  0.83740  Biso   1.000  H
  H99      1.0000 0.30670  0.74220  0.33740  Biso   1.000  H
  H100     1.0000 0.69330  0.24220  0.16260  Biso   1.000  H
  O1       1.0000 0.51160  0.22035  0.71340  Biso   1.000  O
  O2       1.0000 0.48840  0.72035  0.78660  Biso   1.000  O
  O3       1.0000 0.48840  0.77965  0.28660  Biso   1.000  O
  O4       1.0000 0.51160  0.27965  0.21340  Biso   1.000  O
  H101     1.0000 0.52870  0.22160  0.81210  Biso   1.000  H
  H102     1.0000 0.47130  0.72160  0.68790  Biso   1.000  H
  H103     1.0000 0.47130  0.77840  0.18790  Biso   1.000  H
  H104     1.0000 0.52870  0.27840  0.31210  Biso   1.000  H
  O5       1.0000 0.47730  0.20727  0.02340  Biso   1.000  O
  O6       1.0000 0.52270  0.70727  0.47660  Biso   1.000  O
  O7       1.0000 0.52270  0.79273  0.97660  Biso   1.000  O
  O8       1.0000 0.47730  0.29273  0.52340  Biso   1.000  O
  C105     1.0000 0.51670  0.05940  0.26650  Biso   1.000  C
  C106     1.0000 0.48330  0.55940  0.23350  Biso   1.000  C
  C107     1.0000 0.48330  0.94060  0.73350  Biso   1.000  C
  C108     1.0000 0.51670  0.44060  0.76650  Biso   1.000  C
  F1       1.0000 0.41880  0.06454  0.20750  Biso   1.000  F
  F2       1.0000 0.58120  0.56454  0.29250  Biso   1.000  F
  F3       1.0000 0.58120  0.93546  0.79250  Biso   1.000  F
  F4       1.0000 0.41880  0.43546  0.70750  Biso   1.000  F
  F5       1.0000 0.56790  0.03321  0.17440  Biso   1.000  F
  F6       1.0000 0.43210  0.53321  0.32560  Biso   1.000  F
  F7       1.0000 0.43210  0.96679  0.82560  Biso   1.000  F
  F8       1.0000 0.56790  0.46679  0.67440  Biso   1.000  F
  F9       1.0000 0.50850  0.03748  0.39870  Biso   1.000  F
  F10      1.0000 0.49150  0.53748  0.10130  Biso   1.000  F
  F11      1.0000 0.49150  0.96252  0.60130  Biso   1.000  F
  F12      1.0000 0.50850  0.46252  0.89870  Biso   1.000  F
  S1       1.0000 0.57879  0.11265  0.29652  Biso   1.000  S
  S2       1.0000 0.42121  0.61265  0.20348  Biso   1.000  S
  S3       1.0000 0.42121  0.88735  0.70348  Biso   1.000  S
  S4       1.0000 0.57879  0.38735  0.79652  Biso   1.000  S
  O9       1.0000 0.50980  0.13485  0.39800  Biso   1.000  O
  O10      1.0000 0.49020  0.63485  0.10200  Biso   1.000  O
  O11      1.0000 0.49020  0.86515  0.60200  Biso   1.000  O
  O12      1.0000 0.50980  0.36515  0.89800  Biso   1.000  O
  O13      1.0000 0.57830  0.13017  0.14060  Biso   1.000  O
  O14      1.0000 0.42170  0.63017  0.35940  Biso   1.000  O
  O15      1.0000 0.42170  0.86983  0.85940  Biso   1.000  O
  O16      1.0000 0.57830  0.36983  0.64060  Biso   1.000  O
  O17      1.0000 0.68090  0.10217  0.36100  Biso   1.000  O
  O18      1.0000 0.31910  0.60217  0.13900  Biso   1.000  O
  O19      1.0000 0.31910  0.89783  0.63900  Biso   1.000  O
  O20      1.0000 0.68090  0.39783  0.86100  Biso   1.000  O
  H105     1.0000 0.50630  0.18890  0.07090  Biso   1.000  H
  H106     1.0000 0.49370  0.68890  0.42910  Biso   1.000  H
  H107     1.0000 0.49370  0.81110  0.92910  Biso   1.000  H
  H108     1.0000 0.50630  0.31110  0.57090  Biso   1.000  H
  H109     1.0000 0.48560  0.22420  0.09510  Biso   1.000  H
  H110     1.0000 0.51440  0.72420  0.40490  Biso   1.000  H
  H111     1.0000 0.51440  0.77580  0.90490  Biso   1.000  H
  H112     1.0000 0.48560  0.27580  0.59510  Biso   1.000  H
