data_image0
_cell_length_a       5.0365
_cell_length_b       13.2159
_cell_length_c       37.354
_cell_angle_alpha    90
_cell_angle_beta     90
_cell_angle_gamma    90

_symmetry_space_group_name_H-M    "P 1"
_symmetry_int_tables_number       1

loop_
  _symmetry_equiv_pos_as_xyz
  'x, y, z'

loop_
  _atom_site_label
  _atom_site_occupancy
  _atom_site_fract_x
  _atom_site_fract_y
  _atom_site_fract_z
  _atom_site_thermal_displace_type
  _atom_site_B_iso_or_equiv
  _atom_site_type_symbol
  Cu1      1.0000 0.26641  0.86539  0.84242  Biso   1.000  Cu
  Cu2      1.0000 0.76641  0.63461  0.15758  Biso   1.000  Cu
  Cu3      1.0000 0.73359  0.36539  0.65758  Biso   1.000  Cu
  Cu4      1.0000 0.23359  0.13461  0.34242  Biso   1.000  Cu
  Cu5      1.0000 0.76640  0.72070  0.89069  Biso   1.000  Cu
  Cu6      1.0000 0.26640  0.77930  0.10931  Biso   1.000  Cu
  Cu7      1.0000 0.23360  0.22070  0.60931  Biso   1.000  Cu
  Cu8      1.0000 0.73360  0.27930  0.39069  Biso   1.000  Cu
  S1       1.0000 0.89164  0.29196  0.83125  Biso   1.000  S
  S2       1.0000 0.39164  0.20804  0.16875  Biso   1.000  S
  S3       1.0000 0.10836  0.79196  0.66875  Biso   1.000  S
  S4       1.0000 0.60836  0.70804  0.33125  Biso   1.000  S
  S5       1.0000 0.21034  0.22600  0.93758  Biso   1.000  S
  S6       1.0000 0.71034  0.27400  0.06242  Biso   1.000  S
  S7       1.0000 0.78966  0.72600  0.56242  Biso   1.000  S
  S8       1.0000 0.28966  0.77400  0.43758  Biso   1.000  S
  N1       1.0000 0.92040  0.59439  0.90434  Biso   1.000  N
  N2       1.0000 0.42040  0.90561  0.09566  Biso   1.000  N
  N3       1.0000 0.07960  0.09439  0.59566  Biso   1.000  N
  N4       1.0000 0.57960  0.40561  0.40434  Biso   1.000  N
  N5       1.0000 0.40270  0.00287  0.84196  Biso   1.000  N
  N6       1.0000 0.90270  0.49713  0.15804  Biso   1.000  N
  N7       1.0000 0.59730  0.50287  0.65804  Biso   1.000  N
  N8       1.0000 0.09730  0.99713  0.34196  Biso   1.000  N
  O1       1.0000 0.49930  0.71457  0.92614  Biso   1.000  O
  O2       1.0000 0.99930  0.78543  0.07386  Biso   1.000  O
  O3       1.0000 0.50070  0.21457  0.57386  Biso   1.000  O
  O4       1.0000 0.00070  0.28543  0.42614  Biso   1.000  O
  O5       1.0000 0.09720  0.73063  0.85867  Biso   1.000  O
  O6       1.0000 0.59720  0.76937  0.14133  Biso   1.000  O
  O7       1.0000 0.90280  0.23063  0.64133  Biso   1.000  O
  O8       1.0000 0.40280  0.26937  0.35867  Biso   1.000  O
  O9       1.0000 0.46240  0.64020  0.84577  Biso   1.000  O
  O10      1.0000 0.96240  0.85980  0.15423  Biso   1.000  O
  O11      1.0000 0.53760  0.14020  0.65423  Biso   1.000  O
  O12      1.0000 0.03760  0.35980  0.34577  Biso   1.000  O
  O13      1.0000 0.98410  0.89703  0.81015  Biso   1.000  O
  O14      1.0000 0.48410  0.60297  0.18985  Biso   1.000  O
  O15      1.0000 0.01590  0.39703  0.68985  Biso   1.000  O
  O16      1.0000 0.51590  0.10297  0.31015  Biso   1.000  O
  O17      1.0000 0.59240  0.84349  0.87260  Biso   1.000  O
  O18      1.0000 0.09240  0.65651  0.12740  Biso   1.000  O
  O19      1.0000 0.40760  0.34349  0.62740  Biso   1.000  O
  O20      1.0000 0.90760  0.15651  0.37260  Biso   1.000  O
  O21      1.0000 0.94610  0.92152  0.89532  Biso   1.000  O
  O22      1.0000 0.44610  0.57848  0.10468  Biso   1.000  O
  O23      1.0000 0.05390  0.42152  0.60468  Biso   1.000  O
  O24      1.0000 0.55390  0.07848  0.39532  Biso   1.000  O
  O25      1.0000 0.52570  0.79096  0.79703  Biso   1.000  O
  O26      1.0000 0.02570  0.70904  0.20297  Biso   1.000  O
  O27      1.0000 0.47430  0.29096  0.70297  Biso   1.000  O
  O28      1.0000 0.97430  0.20904  0.29703  Biso   1.000  O
  C1       1.0000 0.49520  0.65420  0.95408  Biso   1.000  C
  C2       1.0000 0.99520  0.84580  0.04592  Biso   1.000  C
  C3       1.0000 0.50480  0.15420  0.54592  Biso   1.000  C
  C4       1.0000 0.00480  0.34580  0.45408  Biso   1.000  C
  C5       1.0000 0.30250  0.67160  0.98061  Biso   1.000  C
  C6       1.0000 0.80250  0.82840  0.01939  Biso   1.000  C
  C7       1.0000 0.69750  0.17160  0.51939  Biso   1.000  C
  C8       1.0000 0.19750  0.32840  0.48061  Biso   1.000  C
  H1       1.0000 0.17880  0.72510  0.97740  Biso   1.000  H
  H2       1.0000 0.67880  0.77490  0.02260  Biso   1.000  H
  H3       1.0000 0.82120  0.22510  0.52260  Biso   1.000  H
  H4       1.0000 0.32120  0.27490  0.47740  Biso   1.000  H
  C9       1.0000 0.28770  0.61320  0.01114  Biso   1.000  C
  C10      1.0000 0.78770  0.88680  0.98886  Biso   1.000  C
  C11      1.0000 0.71230  0.11320  0.48886  Biso   1.000  C
  C12      1.0000 0.21230  0.38680  0.51114  Biso   1.000  C
  H5       1.0000 0.15620  0.62740  0.02870  Biso   1.000  H
  H6       1.0000 0.65620  0.87260  0.97130  Biso   1.000  H
  H7       1.0000 0.84380  0.12740  0.47130  Biso   1.000  H
  H8       1.0000 0.34380  0.37260  0.52870  Biso   1.000  H
  C13      1.0000 0.46670  0.53250  0.01646  Biso   1.000  C
  C14      1.0000 0.96670  0.96750  0.98354  Biso   1.000  C
  C15      1.0000 0.53330  0.03250  0.48354  Biso   1.000  C
  C16      1.0000 0.03330  0.46750  0.51646  Biso   1.000  C
  H9       1.0000 0.45770  0.49250  0.03750  Biso   1.000  H
  H10      1.0000 0.95770  0.00750  0.96250  Biso   1.000  H
  H11      1.0000 0.54230  0.99250  0.46250  Biso   1.000  H
  H12      1.0000 0.04230  0.50750  0.53750  Biso   1.000  H
  C17      1.0000 0.65390  0.51280  0.99075  Biso   1.000  C
  C18      1.0000 0.15390  0.98720  0.00925  Biso   1.000  C
  C19      1.0000 0.34610  0.01280  0.50925  Biso   1.000  C
  C20      1.0000 0.84610  0.48720  0.49075  Biso   1.000  C
  H13      1.0000 0.77440  0.45830  0.99420  Biso   1.000  H
  H14      1.0000 0.27440  0.04170  0.00580  Biso   1.000  H
  H15      1.0000 0.22560  0.95830  0.50580  Biso   1.000  H
  H16      1.0000 0.72560  0.54170  0.49420  Biso   1.000  H
  C21      1.0000 0.67210  0.57166  0.95914  Biso   1.000  C
  C22      1.0000 0.17210  0.92834  0.04086  Biso   1.000  C
  C23      1.0000 0.32790  0.07166  0.54086  Biso   1.000  C
  C24      1.0000 0.82790  0.42834  0.45914  Biso   1.000  C
  C25      1.0000 0.87510  0.54620  0.93400  Biso   1.000  C
  C26      1.0000 0.37510  0.95380  0.06600  Biso   1.000  C
  C27      1.0000 0.12490  0.04620  0.56600  Biso   1.000  C
  C28      1.0000 0.62490  0.45380  0.43400  Biso   1.000  C
  H17      1.0000 0.98520  0.48990  0.93940  Biso   1.000  H
  H18      1.0000 0.48520  0.01010  0.06060  Biso   1.000  H
  H19      1.0000 0.01480  0.98990  0.56060  Biso   1.000  H
  H20      1.0000 0.51480  0.51010  0.43940  Biso   1.000  H
  C29      1.0000 0.12770  0.55935  0.88001  Biso   1.000  C
  C30      1.0000 0.62770  0.94065  0.11999  Biso   1.000  C
  C31      1.0000 0.87230  0.05935  0.61999  Biso   1.000  C
  C32      1.0000 0.37230  0.44065  0.38001  Biso   1.000  C
  H21      1.0000 0.27010  0.52390  0.89380  Biso   1.000  H
  H22      1.0000 0.77010  0.97610  0.10620  Biso   1.000  H
  H23      1.0000 0.72990  0.02390  0.60620  Biso   1.000  H
  H24      1.0000 0.22990  0.47610  0.39380  Biso   1.000  H
  C33      1.0000 0.24430  0.64963  0.86031  Biso   1.000  C
  C34      1.0000 0.74430  0.85037  0.13969  Biso   1.000  C
  C35      1.0000 0.75570  0.14963  0.63969  Biso   1.000  C
  C36      1.0000 0.25570  0.35037  0.36031  Biso   1.000  C
  C37      1.0000 0.01870  0.48881  0.85058  Biso   1.000  C
  C38      1.0000 0.51870  0.01119  0.14942  Biso   1.000  C
  C39      1.0000 0.98130  0.98881  0.64942  Biso   1.000  C
  C40      1.0000 0.48130  0.51119  0.35058  Biso   1.000  C
  H25      1.0000 0.88510  0.52640  0.83640  Biso   1.000  H
  H26      1.0000 0.38510  0.97360  0.16360  Biso   1.000  H
  H27      1.0000 0.11490  0.02640  0.66360  Biso   1.000  H
  H28      1.0000 0.61490  0.47360  0.33640  Biso   1.000  H
  H29      1.0000 0.16600  0.47070  0.83420  Biso   1.000  H
  H30      1.0000 0.66600  0.02930  0.16580  Biso   1.000  H
  H31      1.0000 0.83400  0.97070  0.66580  Biso   1.000  H
  H32      1.0000 0.33400  0.52930  0.33420  Biso   1.000  H
  C41      1.0000 0.89140  0.39130  0.86448  Biso   1.000  C
  C42      1.0000 0.39140  0.10870  0.13552  Biso   1.000  C
  C43      1.0000 0.10860  0.89130  0.63552  Biso   1.000  C
  C44      1.0000 0.60860  0.60870  0.36448  Biso   1.000  C
  H33      1.0000 0.70620  0.40550  0.87180  Biso   1.000  H
  H34      1.0000 0.20620  0.09450  0.12820  Biso   1.000  H
  H35      1.0000 0.29380  0.90550  0.62820  Biso   1.000  H
  H36      1.0000 0.79380  0.59450  0.37180  Biso   1.000  H
  H37      1.0000 0.98950  0.36790  0.88590  Biso   1.000  H
  H38      1.0000 0.48950  0.13210  0.11410  Biso   1.000  H
  H39      1.0000 0.01050  0.86790  0.61410  Biso   1.000  H
  H40      1.0000 0.51050  0.63210  0.38590  Biso   1.000  H
  C45      1.0000 0.68850  0.34730  0.79657  Biso   1.000  C
  C46      1.0000 0.18850  0.15270  0.20343  Biso   1.000  C
  C47      1.0000 0.31150  0.84730  0.70343  Biso   1.000  C
  C48      1.0000 0.81150  0.65270  0.29657  Biso   1.000  C
  H41      1.0000 0.50950  0.35950  0.80590  Biso   1.000  H
  H42      1.0000 0.00950  0.14050  0.19410  Biso   1.000  H
  H43      1.0000 0.49050  0.85950  0.69410  Biso   1.000  H
  H44      1.0000 0.99050  0.64050  0.30590  Biso   1.000  H
  H45      1.0000 0.67880  0.30090  0.77610  Biso   1.000  H
  H46      1.0000 0.17880  0.19910  0.22390  Biso   1.000  H
  H47      1.0000 0.32120  0.80090  0.72390  Biso   1.000  H
  H48      1.0000 0.82120  0.69910  0.27610  Biso   1.000  H
  H49      1.0000 0.76710  0.41150  0.78880  Biso   1.000  H
  H50      1.0000 0.26710  0.08850  0.21120  Biso   1.000  H
  H51      1.0000 0.23290  0.91150  0.71120  Biso   1.000  H
  H52      1.0000 0.73290  0.58850  0.28880  Biso   1.000  H
  C49      1.0000 0.98280  0.97483  0.78761  Biso   1.000  C
  C50      1.0000 0.48280  0.52517  0.21239  Biso   1.000  C
  C51      1.0000 0.01720  0.47483  0.71239  Biso   1.000  C
  C52      1.0000 0.51720  0.02517  0.28761  Biso   1.000  C
  C53      1.0000 0.78910  0.97790  0.76028  Biso   1.000  C
  C54      1.0000 0.28910  0.52210  0.23972  Biso   1.000  C
  C55      1.0000 0.21090  0.47790  0.73972  Biso   1.000  C
  C56      1.0000 0.71090  0.02210  0.26028  Biso   1.000  C
  H53      1.0000 0.66660  0.92360  0.75820  Biso   1.000  H
  H54      1.0000 0.16660  0.57640  0.24180  Biso   1.000  H
  H55      1.0000 0.33340  0.42360  0.74180  Biso   1.000  H
  H56      1.0000 0.83340  0.07640  0.25820  Biso   1.000  H
  C57      1.0000 0.77280  0.05730  0.73653  Biso   1.000  C
  C58      1.0000 0.27280  0.44270  0.26347  Biso   1.000  C
  C59      1.0000 0.22720  0.55730  0.76347  Biso   1.000  C
  C60      1.0000 0.72720  0.94270  0.23653  Biso   1.000  C
  H57      1.0000 0.63650  0.05790  0.71890  Biso   1.000  H
  H58      1.0000 0.13650  0.44210  0.28110  Biso   1.000  H
  H59      1.0000 0.36350  0.55790  0.78110  Biso   1.000  H
  H60      1.0000 0.86350  0.94210  0.21890  Biso   1.000  H
  C61      1.0000 0.95540  0.13740  0.73806  Biso   1.000  C
  C62      1.0000 0.45540  0.36260  0.26194  Biso   1.000  C
  C63      1.0000 0.04460  0.63740  0.76194  Biso   1.000  C
  C64      1.0000 0.54460  0.86260  0.23806  Biso   1.000  C
  H61      1.0000 0.94690  0.19130  0.72130  Biso   1.000  H
  H62      1.0000 0.44690  0.30870  0.27870  Biso   1.000  H
  H63      1.0000 0.05310  0.69130  0.77870  Biso   1.000  H
  H64      1.0000 0.55310  0.80870  0.22130  Biso   1.000  H
  C65      1.0000 0.14470  0.13660  0.76398  Biso   1.000  C
  C66      1.0000 0.64470  0.36340  0.23602  Biso   1.000  C
  C67      1.0000 0.85530  0.63660  0.73602  Biso   1.000  C
  C68      1.0000 0.35530  0.86340  0.26398  Biso   1.000  C
  H65      1.0000 0.27010  0.19020  0.76490  Biso   1.000  H
  H66      1.0000 0.77010  0.30980  0.23510  Biso   1.000  H
  H67      1.0000 0.72990  0.69020  0.73510  Biso   1.000  H
  H68      1.0000 0.22990  0.80980  0.26490  Biso   1.000  H
  C69      1.0000 0.16020  0.05762  0.78972  Biso   1.000  C
  C70      1.0000 0.66020  0.44238  0.21028  Biso   1.000  C
  C71      1.0000 0.83980  0.55762  0.71028  Biso   1.000  C
  C72      1.0000 0.33980  0.94238  0.28972  Biso   1.000  C
  C73      1.0000 0.35800  0.06809  0.81714  Biso   1.000  C
  C74      1.0000 0.85800  0.43191  0.18286  Biso   1.000  C
  C75      1.0000 0.64200  0.56809  0.68286  Biso   1.000  C
  C76      1.0000 0.14200  0.93191  0.31714  Biso   1.000  C
  H69      1.0000 0.46370  0.12760  0.81690  Biso   1.000  H
  H70      1.0000 0.96370  0.37240  0.18310  Biso   1.000  H
  H71      1.0000 0.53630  0.62760  0.68310  Biso   1.000  H
  H72      1.0000 0.03630  0.87240  0.31690  Biso   1.000  H
  C77      1.0000 0.60310  0.02384  0.86919  Biso   1.000  C
  C78      1.0000 0.10310  0.47616  0.13081  Biso   1.000  C
  C79      1.0000 0.39690  0.52384  0.63081  Biso   1.000  C
  C80      1.0000 0.89690  0.97616  0.36919  Biso   1.000  C
  H73      1.0000 0.74040  0.07090  0.85940  Biso   1.000  H
  H74      1.0000 0.24040  0.42910  0.14060  Biso   1.000  H
  H75      1.0000 0.25960  0.57090  0.64060  Biso   1.000  H
  H76      1.0000 0.75960  0.92910  0.35940  Biso   1.000  H
  C81      1.0000 0.73150  0.92457  0.87987  Biso   1.000  C
  C82      1.0000 0.23150  0.57543  0.12013  Biso   1.000  C
  C83      1.0000 0.26850  0.42457  0.62013  Biso   1.000  C
  C84      1.0000 0.76850  0.07543  0.37987  Biso   1.000  C
  C85      1.0000 0.48130  0.06900  0.90362  Biso   1.000  C
  C86      1.0000 0.98130  0.43100  0.09638  Biso   1.000  C
  C87      1.0000 0.51870  0.56900  0.59638  Biso   1.000  C
  C88      1.0000 0.01870  0.93100  0.40362  Biso   1.000  C
  H77      1.0000 0.35050  0.02070  0.91350  Biso   1.000  H
  H78      1.0000 0.85050  0.47930  0.08650  Biso   1.000  H
  H79      1.0000 0.64950  0.52070  0.58650  Biso   1.000  H
  H80      1.0000 0.14950  0.97930  0.41350  Biso   1.000  H
  H81      1.0000 0.62340  0.07820  0.92160  Biso   1.000  H
  H82      1.0000 0.12340  0.42180  0.07840  Biso   1.000  H
  H83      1.0000 0.37660  0.57820  0.57840  Biso   1.000  H
  H84      1.0000 0.87660  0.92180  0.42160  Biso   1.000  H
  C89      1.0000 0.34460  0.17040  0.89714  Biso   1.000  C
  C90      1.0000 0.84460  0.32960  0.10286  Biso   1.000  C
  C91      1.0000 0.65540  0.67040  0.60286  Biso   1.000  C
  C92      1.0000 0.15540  0.82960  0.39714  Biso   1.000  C
  H85      1.0000 0.19880  0.16070  0.87970  Biso   1.000  H
  H86      1.0000 0.69880  0.33930  0.12030  Biso   1.000  H
  H87      1.0000 0.80120  0.66070  0.62030  Biso   1.000  H
  H88      1.0000 0.30120  0.83930  0.37970  Biso   1.000  H
  H89      1.0000 0.47400  0.21800  0.88640  Biso   1.000  H
  H90      1.0000 0.97400  0.28200  0.11360  Biso   1.000  H
  H91      1.0000 0.52600  0.71800  0.61360  Biso   1.000  H
  H92      1.0000 0.02600  0.78200  0.38640  Biso   1.000  H
  C93      1.0000 0.50810  0.25400  0.96201  Biso   1.000  C
  C94      1.0000 0.00810  0.24600  0.03799  Biso   1.000  C
  C95      1.0000 0.49190  0.75400  0.53799  Biso   1.000  C
  C96      1.0000 0.99190  0.74600  0.46201  Biso   1.000  C
  H93      1.0000 0.59770  0.19070  0.96840  Biso   1.000  H
  H94      1.0000 0.09770  0.30930  0.03160  Biso   1.000  H
  H95      1.0000 0.40230  0.69070  0.53160  Biso   1.000  H
  H96      1.0000 0.90230  0.80930  0.46840  Biso   1.000  H
  H97      1.0000 0.46290  0.29130  0.98380  Biso   1.000  H
  H98      1.0000 0.96290  0.20870  0.01620  Biso   1.000  H
  H99      1.0000 0.53710  0.79130  0.51620  Biso   1.000  H
  H100     1.0000 0.03710  0.70870  0.48380  Biso   1.000  H
  H101     1.0000 0.62620  0.29520  0.94710  Biso   1.000  H
  H102     1.0000 0.12620  0.20480  0.05290  Biso   1.000  H
  H103     1.0000 0.37380  0.79520  0.55290  Biso   1.000  H
  H104     1.0000 0.87380  0.70480  0.44710  Biso   1.000  H
  H105     1.0000 0.66500  0.82600  0.80140  Biso   1.000  H
  H106     1.0000 0.16500  0.67400  0.19860  Biso   1.000  H
  H107     1.0000 0.33500  0.32600  0.69860  Biso   1.000  H
  H108     1.0000 0.83500  0.17400  0.30140  Biso   1.000  H
  H109     1.0000 0.53900  0.73220  0.80630  Biso   1.000  H
  H110     1.0000 0.03900  0.76780  0.19370  Biso   1.000  H
  H111     1.0000 0.46100  0.23220  0.69370  Biso   1.000  H
  H112     1.0000 0.96100  0.26780  0.30630  Biso   1.000  H
