data_image0
_cell_length_a       5.077
_cell_length_b       13.229
_cell_length_c       37.602
_cell_angle_alpha    90
_cell_angle_beta     90
_cell_angle_gamma    90

_symmetry_space_group_name_H-M    "P 1"
_symmetry_int_tables_number       1

loop_
  _symmetry_equiv_pos_as_xyz
  'x, y, z'

loop_
  _atom_site_label
  _atom_site_occupancy
  _atom_site_fract_x
  _atom_site_fract_y
  _atom_site_fract_z
  _atom_site_thermal_displace_type
  _atom_site_B_iso_or_equiv
  _atom_site_type_symbol
  Cu1      1.0000 0.77170  0.27780  0.60930  Biso   1.000  Cu
  Cu2      1.0000 0.27170  0.22220  0.39070  Biso   1.000  Cu
  Cu3      1.0000 0.22830  0.77780  0.89070  Biso   1.000  Cu
  Cu4      1.0000 0.72830  0.72220  0.10930  Biso   1.000  Cu
  O1       1.0000 0.10200  0.26690  0.64050  Biso   1.000  O
  O2       1.0000 0.60200  0.23310  0.35950  Biso   1.000  O
  O3       1.0000 0.89800  0.76690  0.85950  Biso   1.000  O
  O4       1.0000 0.39800  0.73310  0.14050  Biso   1.000  O
  O5       1.0000 0.46000  0.35760  0.65450  Biso   1.000  O
  O6       1.0000 0.96000  0.14240  0.34550  Biso   1.000  O
  O7       1.0000 0.54000  0.85760  0.84550  Biso   1.000  O
  O8       1.0000 0.04000  0.64240  0.15450  Biso   1.000  O
  O9       1.0000 0.50700  0.28480  0.57420  Biso   1.000  O
  O10      1.0000 0.00700  0.21520  0.42580  Biso   1.000  O
  O11      1.0000 0.49300  0.78480  0.92580  Biso   1.000  O
  O12      1.0000 0.99300  0.71520  0.07420  Biso   1.000  O
  S1       1.0000 0.89300  0.70410  0.66830  Biso   1.000  S
  S2       1.0000 0.39300  0.79590  0.33170  Biso   1.000  S
  S3       1.0000 0.10700  0.20410  0.83170  Biso   1.000  S
  S4       1.0000 0.60700  0.29590  0.16830  Biso   1.000  S
  N1       1.0000 0.93100  0.40340  0.59590  Biso   1.000  N
  N2       1.0000 0.43100  0.09660  0.40410  Biso   1.000  N
  N3       1.0000 0.06900  0.90340  0.90410  Biso   1.000  N
  N4       1.0000 0.56900  0.59660  0.09590  Biso   1.000  N
  Cu5      1.0000 0.26590  0.13340  0.65660  Biso   1.000  Cu
  Cu6      1.0000 0.76590  0.36660  0.34340  Biso   1.000  Cu
  Cu7      1.0000 0.73410  0.63340  0.84340  Biso   1.000  Cu
  Cu8      1.0000 0.23410  0.86660  0.15660  Biso   1.000  Cu
  O13      1.0000 0.59000  0.15500  0.62820  Biso   1.000  O
  O14      1.0000 0.09000  0.34500  0.37180  Biso   1.000  O
  O15      1.0000 0.41000  0.65500  0.87180  Biso   1.000  O
  O16      1.0000 0.91000  0.84500  0.12820  Biso   1.000  O
  O17      1.0000 0.94500  0.07710  0.60450  Biso   1.000  O
  O18      1.0000 0.44500  0.42290  0.39550  Biso   1.000  O
  O19      1.0000 0.05500  0.57710  0.89550  Biso   1.000  O
  O20      1.0000 0.55500  0.92290  0.10450  Biso   1.000  O
  O21      1.0000 0.99300  0.10630  0.68960  Biso   1.000  O
  O22      1.0000 0.49300  0.39370  0.31040  Biso   1.000  O
  O23      1.0000 0.00700  0.60630  0.81040  Biso   1.000  O
  O24      1.0000 0.50700  0.89370  0.18960  Biso   1.000  O
  N5       1.0000 0.40400  0.99500  0.65740  Biso   1.000  N
  N6       1.0000 0.90400  0.50500  0.34260  Biso   1.000  N
  N7       1.0000 0.59600  0.49500  0.84260  Biso   1.000  N
  N8       1.0000 0.09600  0.00500  0.15740  Biso   1.000  N
  S5       1.0000 0.20900  0.77544  0.56320  Biso   1.000  S
  S6       1.0000 0.70900  0.72456  0.43680  Biso   1.000  S
  S7       1.0000 0.79100  0.27544  0.93680  Biso   1.000  S
  S8       1.0000 0.29100  0.22456  0.06320  Biso   1.000  S
  O25      1.0000 0.53600  0.21000  0.70330  Biso   1.000  O
  O26      1.0000 0.03600  0.29000  0.29670  Biso   1.000  O
  O27      1.0000 0.46400  0.71000  0.79670  Biso   1.000  O
  O28      1.0000 0.96400  0.79000  0.20330  Biso   1.000  O
  C1       1.0000 0.24500  0.34700  0.63850  Biso   1.000  C
  C2       1.0000 0.74500  0.15300  0.36150  Biso   1.000  C
  C3       1.0000 0.75500  0.84700  0.86150  Biso   1.000  C
  C4       1.0000 0.25500  0.65300  0.13850  Biso   1.000  C
  C5       1.0000 0.13800  0.43900  0.62000  Biso   1.000  C
  C6       1.0000 0.63800  0.06100  0.38000  Biso   1.000  C
  C7       1.0000 0.86200  0.93900  0.88000  Biso   1.000  C
  C8       1.0000 0.36200  0.56100  0.12000  Biso   1.000  C
  C9       1.0000 0.02500  0.50900  0.64970  Biso   1.000  C
  C10      1.0000 0.52500  0.99100  0.35030  Biso   1.000  C
  C11      1.0000 0.97500  0.00900  0.85030  Biso   1.000  C
  C12      1.0000 0.47500  0.49100  0.14970  Biso   1.000  C
  C13      1.0000 0.90100  0.60400  0.63490  Biso   1.000  C
  C14      1.0000 0.40100  0.89600  0.36510  Biso   1.000  C
  C15      1.0000 0.09900  0.10400  0.86510  Biso   1.000  C
  C16      1.0000 0.59900  0.39600  0.13490  Biso   1.000  C
  C17      1.0000 0.69300  0.65200  0.70280  Biso   1.000  C
  C18      1.0000 0.19300  0.84800  0.29720  Biso   1.000  C
  C19      1.0000 0.30700  0.15200  0.79720  Biso   1.000  C
  C20      1.0000 0.80700  0.34800  0.20280  Biso   1.000  C
  C21      1.0000 0.87600  0.45200  0.56600  Biso   1.000  C
  C22      1.0000 0.37600  0.04800  0.43400  Biso   1.000  C
  C23      1.0000 0.12400  0.95200  0.93400  Biso   1.000  C
  C24      1.0000 0.62400  0.54800  0.06600  Biso   1.000  C
  C25      1.0000 0.68900  0.42500  0.54060  Biso   1.000  C
  C26      1.0000 0.18900  0.07500  0.45940  Biso   1.000  C
  C27      1.0000 0.31100  0.92500  0.95940  Biso   1.000  C
  C28      1.0000 0.81100  0.57500  0.04060  Biso   1.000  C
  C29      1.0000 0.66400  0.48600  0.51000  Biso   1.000  C
  C30      1.0000 0.16400  0.01400  0.49000  Biso   1.000  C
  C31      1.0000 0.33600  0.98600  0.99000  Biso   1.000  C
  C32      1.0000 0.83600  0.51400  0.01000  Biso   1.000  C
  C33      1.0000 0.48200  0.46800  0.48490  Biso   1.000  C
  C34      1.0000 0.98200  0.03200  0.51510  Biso   1.000  C
  C35      1.0000 0.51800  0.96800  0.01510  Biso   1.000  C
  C36      1.0000 0.01800  0.53200  0.98490  Biso   1.000  C
  C37      1.0000 0.30000  0.38600  0.48960  Biso   1.000  C
  C38      1.0000 0.80000  0.11400  0.51040  Biso   1.000  C
  C39      1.0000 0.70000  0.88600  0.01040  Biso   1.000  C
  C40      1.0000 0.20000  0.61400  0.98960  Biso   1.000  C
  C41      1.0000 0.31900  0.32800  0.51980  Biso   1.000  C
  C42      1.0000 0.81900  0.17200  0.48020  Biso   1.000  C
  C43      1.0000 0.68100  0.82800  0.98020  Biso   1.000  C
  C44      1.0000 0.18100  0.67200  0.01980  Biso   1.000  C
  C45      1.0000 0.50700  0.34300  0.54670  Biso   1.000  C
  C46      1.0000 0.00700  0.15700  0.45330  Biso   1.000  C
  C47      1.0000 0.49300  0.84300  0.95330  Biso   1.000  C
  C48      1.0000 0.99300  0.65700  0.04670  Biso   1.000  C
  C49      1.0000 0.72800  0.07500  0.61980  Biso   1.000  C
  C50      1.0000 0.22800  0.42500  0.38020  Biso   1.000  C
  C51      1.0000 0.27200  0.57500  0.88020  Biso   1.000  C
  C52      1.0000 0.77200  0.92500  0.11980  Biso   1.000  C
  C53      1.0000 0.60100  0.97600  0.63090  Biso   1.000  C
  C54      1.0000 0.10100  0.52400  0.36910  Biso   1.000  C
  C55      1.0000 0.39900  0.47600  0.86910  Biso   1.000  C
  C56      1.0000 0.89900  0.02400  0.13090  Biso   1.000  C
  C57      1.0000 0.48700  0.92900  0.59570  Biso   1.000  C
  C58      1.0000 0.98700  0.57100  0.40430  Biso   1.000  C
  C59      1.0000 0.51300  0.42900  0.90430  Biso   1.000  C
  C60      1.0000 0.01300  0.07100  0.09570  Biso   1.000  C
  C61      1.0000 0.34300  0.83100  0.60300  Biso   1.000  C
  C62      1.0000 0.84300  0.66900  0.39700  Biso   1.000  C
  C63      1.0000 0.65700  0.33100  0.89700  Biso   1.000  C
  C64      1.0000 0.15700  0.16900  0.10300  Biso   1.000  C
  C65      1.0000 0.49800  0.74600  0.53760  Biso   1.000  C
  C66      1.0000 0.99800  0.75400  0.46240  Biso   1.000  C
  C67      1.0000 0.50200  0.24600  0.96240  Biso   1.000  C
  C68      1.0000 0.00200  0.25400  0.03760  Biso   1.000  C
  C69      1.0000 0.36500  0.93100  0.68310  Biso   1.000  C
  C70      1.0000 0.86500  0.56900  0.31690  Biso   1.000  C
  C71      1.0000 0.63500  0.43100  0.81690  Biso   1.000  C
  C72      1.0000 0.13500  0.06900  0.18310  Biso   1.000  C
  C73      1.0000 0.16000  0.94500  0.70880  Biso   1.000  C
  C74      1.0000 0.66000  0.55500  0.29120  Biso   1.000  C
  C75      1.0000 0.84000  0.44500  0.79120  Biso   1.000  C
  C76      1.0000 0.34000  0.05500  0.20880  Biso   1.000  C
  C77      1.0000 0.14000  0.86700  0.73520  Biso   1.000  C
  C78      1.0000 0.64000  0.63300  0.26480  Biso   1.000  C
  C79      1.0000 0.86000  0.36700  0.76480  Biso   1.000  C
  C80      1.0000 0.36000  0.13300  0.23520  Biso   1.000  C
  C81      1.0000 0.95800  0.86300  0.76040  Biso   1.000  C
  C82      1.0000 0.45800  0.63700  0.23960  Biso   1.000  C
  C83      1.0000 0.04200  0.36300  0.73960  Biso   1.000  C
  C84      1.0000 0.54200  0.13700  0.26040  Biso   1.000  C
  C85      1.0000 0.77500  0.94400  0.76220  Biso   1.000  C
  C86      1.0000 0.27500  0.55600  0.23780  Biso   1.000  C
  C87      1.0000 0.22500  0.44400  0.73780  Biso   1.000  C
  C88      1.0000 0.72500  0.05600  0.26220  Biso   1.000  C
  C89      1.0000 0.79400  0.02500  0.73870  Biso   1.000  C
  C90      1.0000 0.29400  0.47500  0.26130  Biso   1.000  C
  C91      1.0000 0.20600  0.52500  0.76130  Biso   1.000  C
  C92      1.0000 0.70600  0.97500  0.23870  Biso   1.000  C
  C93      1.0000 0.98100  0.02700  0.71250  Biso   1.000  C
  C94      1.0000 0.48100  0.47300  0.28750  Biso   1.000  C
  C95      1.0000 0.01900  0.52700  0.78750  Biso   1.000  C
  C96      1.0000 0.51900  0.97300  0.21250  Biso   1.000  C
  H1       1.0000 0.28200  0.48100  0.60470  Biso   1.000  H
  H2       1.0000 0.78200  0.01900  0.39530  Biso   1.000  H
  H3       1.0000 0.71800  0.98100  0.89530  Biso   1.000  H
  H4       1.0000 0.21800  0.51900  0.10470  Biso   1.000  H
  H5       1.0000 0.18500  0.53100  0.66720  Biso   1.000  H
  H6       1.0000 0.68500  0.96900  0.33280  Biso   1.000  H
  H7       1.0000 0.81500  0.03100  0.83280  Biso   1.000  H
  H8       1.0000 0.31500  0.46900  0.16720  Biso   1.000  H
  H9       1.0000 0.87900  0.46800  0.66470  Biso   1.000  H
  H10      1.0000 0.37900  0.03200  0.33530  Biso   1.000  H
  H11      1.0000 0.12100  0.96800  0.83530  Biso   1.000  H
  H12      1.0000 0.62100  0.53200  0.16470  Biso   1.000  H
  H13      1.0000 0.01400  0.63000  0.61220  Biso   1.000  H
  H14      1.0000 0.51400  0.87000  0.38780  Biso   1.000  H
  H15      1.0000 0.98600  0.13000  0.88780  Biso   1.000  H
  H16      1.0000 0.48600  0.37000  0.11220  Biso   1.000  H
  H17      1.0000 0.70200  0.58700  0.62650  Biso   1.000  H
  H18      1.0000 0.20200  0.91300  0.37350  Biso   1.000  H
  H19      1.0000 0.29800  0.08700  0.87350  Biso   1.000  H
  H20      1.0000 0.79800  0.41300  0.12650  Biso   1.000  H
  H21      1.0000 0.62900  0.70700  0.72210  Biso   1.000  H
  H22      1.0000 0.12900  0.79300  0.27790  Biso   1.000  H
  H23      1.0000 0.37100  0.20700  0.77790  Biso   1.000  H
  H24      1.0000 0.87100  0.29300  0.22210  Biso   1.000  H
  H25      1.0000 0.77700  0.58700  0.71650  Biso   1.000  H
  H26      1.0000 0.27700  0.91300  0.28350  Biso   1.000  H
  H27      1.0000 0.22300  0.08700  0.78350  Biso   1.000  H
  H28      1.0000 0.72300  0.41300  0.21650  Biso   1.000  H
  H29      1.0000 0.52700  0.62700  0.68710  Biso   1.000  H
  H30      1.0000 0.02700  0.87300  0.31290  Biso   1.000  H
  H31      1.0000 0.47300  0.12700  0.81290  Biso   1.000  H
  H32      1.0000 0.97300  0.37300  0.18710  Biso   1.000  H
  H33      1.0000 0.98900  0.52000  0.56060  Biso   1.000  H
  H34      1.0000 0.48900  0.98000  0.43940  Biso   1.000  H
  H35      1.0000 0.01100  0.02000  0.93940  Biso   1.000  H
  H36      1.0000 0.51100  0.48000  0.06060  Biso   1.000  H
  H37      1.0000 0.79600  0.54900  0.50660  Biso   1.000  H
  H38      1.0000 0.29600  0.95100  0.49340  Biso   1.000  H
  H39      1.0000 0.20400  0.04900  0.99340  Biso   1.000  H
  H40      1.0000 0.70400  0.45100  0.00660  Biso   1.000  H
  H41      1.0000 0.47300  0.51500  0.46140  Biso   1.000  H
  H42      1.0000 0.97300  0.98500  0.53860  Biso   1.000  H
  H43      1.0000 0.52700  0.01500  0.03860  Biso   1.000  H
  H44      1.0000 0.02700  0.48500  0.96140  Biso   1.000  H
  H45      1.0000 0.15100  0.37000  0.46980  Biso   1.000  H
  H46      1.0000 0.65100  0.13000  0.53020  Biso   1.000  H
  H47      1.0000 0.84900  0.87000  0.03020  Biso   1.000  H
  H48      1.0000 0.34900  0.63000  0.96980  Biso   1.000  H
  H49      1.0000 0.17900  0.26800  0.52320  Biso   1.000  H
  H50      1.0000 0.67900  0.23200  0.47680  Biso   1.000  H
  H51      1.0000 0.82100  0.76800  0.97680  Biso   1.000  H
  H52      1.0000 0.32100  0.73200  0.02320  Biso   1.000  H
  H53      1.0000 0.73700  0.92400  0.64310  Biso   1.000  H
  H54      1.0000 0.23700  0.57600  0.35690  Biso   1.000  H
  H55      1.0000 0.26300  0.42400  0.85690  Biso   1.000  H
  H56      1.0000 0.76300  0.07600  0.14310  Biso   1.000  H
  H57      1.0000 0.64700  0.91400  0.57750  Biso   1.000  H
  H58      1.0000 0.14700  0.58600  0.42250  Biso   1.000  H
  H59      1.0000 0.35300  0.41400  0.92250  Biso   1.000  H
  H60      1.0000 0.85300  0.08600  0.07750  Biso   1.000  H
  H61      1.0000 0.35100  0.98200  0.58380  Biso   1.000  H
  H62      1.0000 0.85100  0.51800  0.41620  Biso   1.000  H
  H63      1.0000 0.64900  0.48200  0.91620  Biso   1.000  H
  H64      1.0000 0.14900  0.01800  0.08380  Biso   1.000  H
  H65      1.0000 0.47900  0.77900  0.61500  Biso   1.000  H
  H66      1.0000 0.97900  0.72100  0.38500  Biso   1.000  H
  H67      1.0000 0.52100  0.27900  0.88500  Biso   1.000  H
  H68      1.0000 0.02100  0.22100  0.11500  Biso   1.000  H
  H69      1.0000 0.18300  0.84600  0.62120  Biso   1.000  H
  H70      1.0000 0.68300  0.65400  0.37880  Biso   1.000  H
  H71      1.0000 0.81700  0.34600  0.87880  Biso   1.000  H
  H72      1.0000 0.31700  0.15400  0.12120  Biso   1.000  H
  H73      1.0000 0.46300  0.70400  0.51340  Biso   1.000  H
  H74      1.0000 0.96300  0.79600  0.48660  Biso   1.000  H
  H75      1.0000 0.53700  0.20400  0.98660  Biso   1.000  H
  H76      1.0000 0.03700  0.29600  0.01340  Biso   1.000  H
  H77      1.0000 0.61500  0.70000  0.55550  Biso   1.000  H
  H78      1.0000 0.11500  0.80000  0.44450  Biso   1.000  H
  H79      1.0000 0.38500  0.20000  0.94450  Biso   1.000  H
  H80      1.0000 0.88500  0.30000  0.05550  Biso   1.000  H
  H81      1.0000 0.60200  0.81500  0.53160  Biso   1.000  H
  H82      1.0000 0.10200  0.68500  0.46840  Biso   1.000  H
  H83      1.0000 0.39800  0.31500  0.96840  Biso   1.000  H
  H84      1.0000 0.89800  0.18500  0.03160  Biso   1.000  H
  H85      1.0000 0.49100  0.86500  0.68510  Biso   1.000  H
  H86      1.0000 0.99100  0.63500  0.31490  Biso   1.000  H
  H87      1.0000 0.50900  0.36500  0.81490  Biso   1.000  H
  H88      1.0000 0.00900  0.13500  0.18510  Biso   1.000  H
  H89      1.0000 0.28600  0.80800  0.73450  Biso   1.000  H
  H90      1.0000 0.78600  0.69200  0.26550  Biso   1.000  H
  H91      1.0000 0.71400  0.30800  0.76550  Biso   1.000  H
  H92      1.0000 0.21400  0.19200  0.23450  Biso   1.000  H
  H93      1.0000 0.95000  0.80000  0.77890  Biso   1.000  H
  H94      1.0000 0.45000  0.70000  0.22110  Biso   1.000  H
  H95      1.0000 0.05000  0.30000  0.72110  Biso   1.000  H
  H96      1.0000 0.55000  0.20000  0.27890  Biso   1.000  H
  H97      1.0000 0.61900  0.94300  0.78180  Biso   1.000  H
  H98      1.0000 0.11900  0.55700  0.21820  Biso   1.000  H
  H99      1.0000 0.38100  0.44300  0.71820  Biso   1.000  H
  H100     1.0000 0.88100  0.05700  0.28180  Biso   1.000  H
  H101     1.0000 0.65800  0.08700  0.74120  Biso   1.000  H
  H102     1.0000 0.15800  0.41300  0.25880  Biso   1.000  H
  H103     1.0000 0.34200  0.58700  0.75880  Biso   1.000  H
  H104     1.0000 0.84200  0.91300  0.24120  Biso   1.000  H
