data_image0
_cell_length_a       5.653
_cell_length_b       14.34
_cell_length_c       18.64
_cell_angle_alpha    90
_cell_angle_beta     90
_cell_angle_gamma    90

_symmetry_space_group_name_H-M    "P 1"
_symmetry_int_tables_number       1

loop_
  _symmetry_equiv_pos_as_xyz
  'x, y, z'

loop_
  _atom_site_label
  _atom_site_occupancy
  _atom_site_fract_x
  _atom_site_fract_y
  _atom_site_fract_z
  _atom_site_thermal_displace_type
  _atom_site_B_iso_or_equiv
  _atom_site_type_symbol
  Cu1      1.0000 0.84830  0.47229  0.62517  Biso   1.000  Cu
  Cu2      1.0000 0.65170  0.52771  0.12517  Biso   1.000  Cu
  Cu3      1.0000 0.34830  0.02771  0.37483  Biso   1.000  Cu
  Cu4      1.0000 0.15170  0.97229  0.87483  Biso   1.000  Cu
  O1       1.0000 0.84040  0.46530  0.52057  Biso   1.000  O
  O2       1.0000 0.65960  0.53470  0.02057  Biso   1.000  O
  O3       1.0000 0.34040  0.03470  0.47943  Biso   1.000  O
  O4       1.0000 0.15960  0.96530  0.97943  Biso   1.000  O
  O5       1.0000 0.47860  0.52280  0.50576  Biso   1.000  O
  O6       1.0000 0.02140  0.47720  0.00576  Biso   1.000  O
  O7       1.0000 0.97860  0.97720  0.49424  Biso   1.000  O
  O8       1.0000 0.52140  0.02280  0.99424  Biso   1.000  O
  O9       1.0000 0.64480  0.51530  0.22945  Biso   1.000  O
  O10      1.0000 0.85520  0.48470  0.72945  Biso   1.000  O
  O11      1.0000 0.14480  0.98470  0.77055  Biso   1.000  O
  O12      1.0000 0.35520  0.01530  0.27055  Biso   1.000  O
  O13      1.0000 0.01940  0.55280  0.24943  Biso   1.000  O
  O14      1.0000 0.48060  0.44720  0.74943  Biso   1.000  O
  O15      1.0000 0.51940  0.94720  0.75057  Biso   1.000  O
  O16      1.0000 0.98060  0.05280  0.25057  Biso   1.000  O
  C1       1.0000 0.67430  0.49970  0.48270  Biso   1.000  C
  C2       1.0000 0.82570  0.50030  0.98270  Biso   1.000  C
  C3       1.0000 0.17430  0.00030  0.51730  Biso   1.000  C
  C4       1.0000 0.32570  0.99970  0.01730  Biso   1.000  C
  C5       1.0000 0.73150  0.51240  0.40750  Biso   1.000  C
  C6       1.0000 0.76850  0.48760  0.90750  Biso   1.000  C
  C7       1.0000 0.23150  0.98760  0.59250  Biso   1.000  C
  C8       1.0000 0.26850  0.01240  0.09250  Biso   1.000  C
  C9       1.0000 0.77160  0.52330  0.34620  Biso   1.000  C
  C10      1.0000 0.72840  0.47670  0.84620  Biso   1.000  C
  C11      1.0000 0.27160  0.97670  0.65380  Biso   1.000  C
  C12      1.0000 0.22840  0.02330  0.15380  Biso   1.000  C
  C13      1.0000 0.82210  0.53200  0.26870  Biso   1.000  C
  C14      1.0000 0.67790  0.46800  0.76870  Biso   1.000  C
  C15      1.0000 0.32210  0.96800  0.73130  Biso   1.000  C
  C16      1.0000 0.17790  0.03200  0.23130  Biso   1.000  C
  N1       1.0000 0.81690  0.61190  0.61850  Biso   1.000  N
  N2       1.0000 0.68310  0.38810  0.11850  Biso   1.000  N
  N3       1.0000 0.31690  0.88810  0.38150  Biso   1.000  N
  N4       1.0000 0.18310  0.11190  0.88150  Biso   1.000  N
  C17      1.0000 0.64710  0.65780  0.65330  Biso   1.000  C
  C18      1.0000 0.85290  0.34220  0.15330  Biso   1.000  C
  C19      1.0000 0.14710  0.84220  0.34670  Biso   1.000  C
  C20      1.0000 0.35290  0.15780  0.84670  Biso   1.000  C
  H1       1.0000 0.54010  0.62400  0.68080  Biso   1.000  H
  H2       1.0000 0.95990  0.37600  0.18080  Biso   1.000  H
  H3       1.0000 0.04010  0.87600  0.31920  Biso   1.000  H
  H4       1.0000 0.45990  0.12400  0.81920  Biso   1.000  H
  C21      1.0000 0.62370  0.75210  0.65040  Biso   1.000  C
  C22      1.0000 0.87630  0.24790  0.15040  Biso   1.000  C
  C23      1.0000 0.12370  0.74790  0.34960  Biso   1.000  C
  C24      1.0000 0.37630  0.25210  0.84960  Biso   1.000  C
  H5       1.0000 0.50350  0.78190  0.67570  Biso   1.000  H
  H6       1.0000 0.99650  0.21810  0.17570  Biso   1.000  H
  H7       1.0000 0.00350  0.71810  0.32430  Biso   1.000  H
  H8       1.0000 0.49650  0.28190  0.82430  Biso   1.000  H
  C25      1.0000 0.78010  0.80290  0.60960  Biso   1.000  C
  C26      1.0000 0.71990  0.19710  0.10960  Biso   1.000  C
  C27      1.0000 0.28010  0.69710  0.39040  Biso   1.000  C
  C28      1.0000 0.21990  0.30290  0.89040  Biso   1.000  C
  H9       1.0000 0.76770  0.86740  0.60620  Biso   1.000  H
  H10      1.0000 0.73230  0.13260  0.10620  Biso   1.000  H
  H11      1.0000 0.26770  0.63260  0.39380  Biso   1.000  H
  H12      1.0000 0.23230  0.36740  0.89380  Biso   1.000  H
  C29      1.0000 0.95030  0.75680  0.57500  Biso   1.000  C
  C30      1.0000 0.54970  0.24320  0.07500  Biso   1.000  C
  C31      1.0000 0.45030  0.74320  0.42500  Biso   1.000  C
  C32      1.0000 0.04970  0.25680  0.92500  Biso   1.000  C
  H13      1.0000 0.05920  0.78960  0.54740  Biso   1.000  H
  H14      1.0000 0.44080  0.21040  0.04740  Biso   1.000  H
  H15      1.0000 0.55920  0.71040  0.45260  Biso   1.000  H
  H16      1.0000 0.94080  0.28960  0.95260  Biso   1.000  H
  C33      1.0000 0.96640  0.66200  0.57950  Biso   1.000  C
  C34      1.0000 0.53360  0.33800  0.07950  Biso   1.000  C
  C35      1.0000 0.46640  0.83800  0.42050  Biso   1.000  C
  C36      1.0000 0.03360  0.16200  0.92050  Biso   1.000  C
  H17      1.0000 0.08590  0.63160  0.55450  Biso   1.000  H
  H18      1.0000 0.41410  0.36840  0.05450  Biso   1.000  H
  H19      1.0000 0.58590  0.86840  0.44550  Biso   1.000  H
  H20      1.0000 0.91410  0.13160  0.94550  Biso   1.000  H
  N5       1.0000 0.81060  0.33340  0.63230  Biso   1.000  N
  N6       1.0000 0.68940  0.66660  0.13230  Biso   1.000  N
  N7       1.0000 0.31060  0.16660  0.36770  Biso   1.000  N
  N8       1.0000 0.18940  0.83340  0.86770  Biso   1.000  N
  C37      1.0000 0.92940  0.28430  0.68180  Biso   1.000  C
  C38      1.0000 0.57060  0.71570  0.18180  Biso   1.000  C
  C39      1.0000 0.42940  0.21570  0.31820  Biso   1.000  C
  C40      1.0000 0.07060  0.78430  0.81820  Biso   1.000  C
  H21      1.0000 0.03070  0.31670  0.71230  Biso   1.000  H
  H22      1.0000 0.46930  0.68330  0.21230  Biso   1.000  H
  H23      1.0000 0.53070  0.18330  0.28770  Biso   1.000  H
  H24      1.0000 0.96930  0.81670  0.78770  Biso   1.000  H
  C41      1.0000 0.91160  0.19050  0.69040  Biso   1.000  C
  C42      1.0000 0.58840  0.80950  0.19040  Biso   1.000  C
  C43      1.0000 0.41160  0.30950  0.30960  Biso   1.000  C
  C44      1.0000 0.08840  0.69050  0.80960  Biso   1.000  C
  H25      1.0000 0.99590  0.15980  0.72620  Biso   1.000  H
  H26      1.0000 0.50410  0.84020  0.22620  Biso   1.000  H
  H27      1.0000 0.49590  0.34020  0.27380  Biso   1.000  H
  H28      1.0000 0.00410  0.65980  0.77380  Biso   1.000  H
  C45      1.0000 0.76790  0.14350  0.64560  Biso   1.000  C
  C46      1.0000 0.73210  0.85650  0.14560  Biso   1.000  C
  C47      1.0000 0.26790  0.35650  0.35440  Biso   1.000  C
  C48      1.0000 0.23210  0.64350  0.85440  Biso   1.000  C
  H29      1.0000 0.75040  0.07930  0.65040  Biso   1.000  H
  H30      1.0000 0.74960  0.92070  0.15040  Biso   1.000  H
  H31      1.0000 0.25040  0.42070  0.34960  Biso   1.000  H
  H32      1.0000 0.24960  0.57930  0.84960  Biso   1.000  H
  C49      1.0000 0.64650  0.19050  0.59230  Biso   1.000  C
  C50      1.0000 0.85350  0.80950  0.09230  Biso   1.000  C
  C51      1.0000 0.14650  0.30950  0.40770  Biso   1.000  C
  C52      1.0000 0.35350  0.69050  0.90770  Biso   1.000  C
  H33      1.0000 0.55270  0.15850  0.55950  Biso   1.000  H
  H34      1.0000 0.94730  0.84150  0.05950  Biso   1.000  H
  H35      1.0000 0.05270  0.34150  0.44050  Biso   1.000  H
  H36      1.0000 0.44730  0.65850  0.94050  Biso   1.000  H
  C53      1.0000 0.66800  0.28400  0.58920  Biso   1.000  C
  C54      1.0000 0.83200  0.71600  0.08920  Biso   1.000  C
  C55      1.0000 0.16800  0.21600  0.41080  Biso   1.000  C
  C56      1.0000 0.33200  0.78400  0.91080  Biso   1.000  C
  H37      1.0000 0.57890  0.31600  0.55530  Biso   1.000  H
  H38      1.0000 0.92110  0.68400  0.05530  Biso   1.000  H
  H39      1.0000 0.07890  0.18400  0.44470  Biso   1.000  H
  H40      1.0000 0.42110  0.81600  0.94470  Biso   1.000  H
  O17      1.0000 0.23430  0.46670  0.62360  Biso   1.000  O
  O18      1.0000 0.26570  0.53330  0.12360  Biso   1.000  O
  O19      1.0000 0.73430  0.03330  0.37640  Biso   1.000  O
  O20      1.0000 0.76570  0.96670  0.87640  Biso   1.000  O
  H41      1.0000 0.31100  0.48500  0.58000  Biso   1.000  H
  H42      1.0000 0.18900  0.51500  0.08000  Biso   1.000  H
  H43      1.0000 0.81100  0.01500  0.42000  Biso   1.000  H
  H44      1.0000 0.68900  0.98500  0.92000  Biso   1.000  H
  H45      1.0000 0.32400  0.45600  0.66640  Biso   1.000  H
  H46      1.0000 0.17600  0.54400  0.16640  Biso   1.000  H
  H47      1.0000 0.82400  0.04400  0.33360  Biso   1.000  H
  H48      1.0000 0.67600  0.95600  0.83360  Biso   1.000  H
