data_image0
_cell_length_a       12.451
_cell_length_b       8.952
_cell_length_c       8.061
_cell_angle_alpha    90
_cell_angle_beta     106.53
_cell_angle_gamma    90

_symmetry_space_group_name_H-M    "P 1"
_symmetry_int_tables_number       1

loop_
  _symmetry_equiv_pos_as_xyz
  'x, y, z'

loop_
  _atom_site_label
  _atom_site_occupancy
  _atom_site_fract_x
  _atom_site_fract_y
  _atom_site_fract_z
  _atom_site_thermal_displace_type
  _atom_site_B_iso_or_equiv
  _atom_site_type_symbol
  Cu1      1.0000 0.00000  0.00000  0.00000  Biso   1.000  Cu
  Cu2      1.0000 0.00000  0.50000  0.50000  Biso   1.000  Cu
  S1       1.0000 0.37420  0.11600  0.12100  Biso   1.000  S
  S2       1.0000 0.62580  0.61600  0.37900  Biso   1.000  S
  S3       1.0000 0.62580  0.88400  0.87900  Biso   1.000  S
  S4       1.0000 0.37420  0.38400  0.62100  Biso   1.000  S
  N1       1.0000 0.15100  0.06810  0.09940  Biso   1.000  N
  N2       1.0000 0.84900  0.56810  0.40060  Biso   1.000  N
  N3       1.0000 0.84900  0.93190  0.90060  Biso   1.000  N
  N4       1.0000 0.15100  0.43190  0.59940  Biso   1.000  N
  N5       1.0000 0.95940  0.06510  0.30070  Biso   1.000  N
  N6       1.0000 0.04060  0.56510  0.19930  Biso   1.000  N
  N7       1.0000 0.04060  0.93490  0.69930  Biso   1.000  N
  N8       1.0000 0.95940  0.43490  0.80070  Biso   1.000  N
  N9       1.0000 0.95480  0.28730  0.43000  Biso   1.000  N
  N10      1.0000 0.04520  0.78730  0.07000  Biso   1.000  N
  N11      1.0000 0.04520  0.71270  0.57000  Biso   1.000  N
  N12      1.0000 0.95480  0.21270  0.93000  Biso   1.000  N
  N13      1.0000 0.78190  0.25020  0.49920  Biso   1.000  N
  N14      1.0000 0.21810  0.75020  0.00080  Biso   1.000  N
  N15      1.0000 0.21810  0.74980  0.50080  Biso   1.000  N
  N16      1.0000 0.78190  0.24980  0.99920  Biso   1.000  N
  N17      1.0000 0.86450  0.07750  0.35260  Biso   1.000  N
  N18      1.0000 0.13550  0.57750  0.14740  Biso   1.000  N
  N19      1.0000 0.13550  0.92250  0.64740  Biso   1.000  N
  N20      1.0000 0.86450  0.42250  0.85260  Biso   1.000  N
  C1       1.0000 0.24510  0.08690  0.11090  Biso   1.000  C
  C2       1.0000 0.75490  0.58690  0.38910  Biso   1.000  C
  C3       1.0000 0.75490  0.91310  0.88910  Biso   1.000  C
  C4       1.0000 0.24510  0.41310  0.61090  Biso   1.000  C
  C5       1.0000 0.01030  0.19360  0.35180  Biso   1.000  C
  C6       1.0000 0.98970  0.69360  0.14820  Biso   1.000  C
  C7       1.0000 0.98970  0.80640  0.64820  Biso   1.000  C
  C8       1.0000 0.01030  0.30640  0.85180  Biso   1.000  C
  C9       1.0000 0.86320  0.21040  0.43250  Biso   1.000  C
  C10      1.0000 0.13680  0.71040  0.06750  Biso   1.000  C
  C11      1.0000 0.13680  0.78960  0.56750  Biso   1.000  C
  C12      1.0000 0.86320  0.28960  0.93250  Biso   1.000  C
  C13      1.0000 0.69740  0.15320  0.48010  Biso   1.000  C
  C14      1.0000 0.30260  0.65320  0.01990  Biso   1.000  C
  C15      1.0000 0.30260  0.84680  0.51990  Biso   1.000  C
  C16      1.0000 0.69740  0.34680  0.98010  Biso   1.000  C
  C17      1.0000 0.69590  0.01430  0.39730  Biso   1.000  C
  C18      1.0000 0.30410  0.51430  0.10270  Biso   1.000  C
  C19      1.0000 0.30410  0.98570  0.60270  Biso   1.000  C
  C20      1.0000 0.69590  0.48570  0.89730  Biso   1.000  C
  C21      1.0000 0.78160  0.97630  0.33140  Biso   1.000  C
  C22      1.0000 0.21840  0.47630  0.16860  Biso   1.000  C
  C23      1.0000 0.21840  0.02370  0.66860  Biso   1.000  C
  C24      1.0000 0.78160  0.52370  0.83140  Biso   1.000  C
  C25      1.0000 0.60270  0.19810  0.54770  Biso   1.000  C
  C26      1.0000 0.39730  0.69810  0.95230  Biso   1.000  C
  C27      1.0000 0.39730  0.80190  0.45230  Biso   1.000  C
  C28      1.0000 0.60270  0.30190  0.04770  Biso   1.000  C
  H1       1.0000 0.07440  0.21900  0.32840  Biso   1.000  H
  H2       1.0000 0.92560  0.71900  0.17160  Biso   1.000  H
  H3       1.0000 0.92560  0.78100  0.67160  Biso   1.000  H
  H4       1.0000 0.07440  0.28100  0.82840  Biso   1.000  H
  H5       1.0000 0.63660  0.94600  0.38640  Biso   1.000  H
  H6       1.0000 0.36340  0.44600  0.11360  Biso   1.000  H
  H7       1.0000 0.36340  0.05400  0.61360  Biso   1.000  H
  H8       1.0000 0.63660  0.55400  0.88640  Biso   1.000  H
  H9       1.0000 0.78390  0.87780  0.27790  Biso   1.000  H
  H10      1.0000 0.21610  0.37780  0.22210  Biso   1.000  H
  H11      1.0000 0.21610  0.12220  0.72210  Biso   1.000  H
  H12      1.0000 0.78390  0.62220  0.77790  Biso   1.000  H
  H13      1.0000 0.60390  0.29170  0.57970  Biso   1.000  H
  H14      1.0000 0.39610  0.79170  0.92030  Biso   1.000  H
  H15      1.0000 0.39610  0.70830  0.42030  Biso   1.000  H
  H16      1.0000 0.60390  0.20830  0.07970  Biso   1.000  H
  H17      1.0000 0.60520  0.15580  0.65310  Biso   1.000  H
  H18      1.0000 0.39480  0.65580  0.84690  Biso   1.000  H
  H19      1.0000 0.39480  0.84420  0.34690  Biso   1.000  H
  H20      1.0000 0.60520  0.34420  0.15310  Biso   1.000  H
  H21      1.0000 0.52980  0.18150  0.45530  Biso   1.000  H
  H22      1.0000 0.47020  0.68150  0.04470  Biso   1.000  H
  H23      1.0000 0.47020  0.81850  0.54470  Biso   1.000  H
  H24      1.0000 0.52980  0.31850  0.95530  Biso   1.000  H
