data_image0
_cell_length_a       13.784
_cell_length_b       13.156
_cell_length_c       13.101
_cell_angle_alpha    90
_cell_angle_beta     94.3
_cell_angle_gamma    90

_symmetry_space_group_name_H-M    "P 1"
_symmetry_int_tables_number       1

loop_
  _symmetry_equiv_pos_as_xyz
  'x, y, z'

loop_
  _atom_site_label
  _atom_site_occupancy
  _atom_site_fract_x
  _atom_site_fract_y
  _atom_site_fract_z
  _atom_site_thermal_displace_type
  _atom_site_B_iso_or_equiv
  _atom_site_type_symbol
  Cu1      1.0000 0.75000  0.25000  0.50000  Biso   1.000  Cu
  Cu2      1.0000 0.25000  0.75000  0.50000  Biso   1.000  Cu
  Cu3      1.0000 0.25000  0.25000  0.00000  Biso   1.000  Cu
  Cu4      1.0000 0.75000  0.75000  0.00000  Biso   1.000  Cu
  Cl1      1.0000 0.11199  0.26936  0.66069  Biso   1.000  Cl
  Cl2      1.0000 0.61199  0.76936  0.66069  Biso   1.000  Cl
  Cl3      1.0000 0.88801  0.26936  0.83931  Biso   1.000  Cl
  Cl4      1.0000 0.38801  0.76936  0.83931  Biso   1.000  Cl
  Cl5      1.0000 0.88801  0.73064  0.33931  Biso   1.000  Cl
  Cl6      1.0000 0.38801  0.23064  0.33931  Biso   1.000  Cl
  Cl7      1.0000 0.11199  0.73064  0.16069  Biso   1.000  Cl
  Cl8      1.0000 0.61199  0.23064  0.16069  Biso   1.000  Cl
  Cl9      1.0000 0.14475  0.16661  0.47348  Biso   1.000  Cl
  Cl10     1.0000 0.64475  0.66661  0.47348  Biso   1.000  Cl
  Cl11     1.0000 0.85525  0.16661  0.02652  Biso   1.000  Cl
  Cl12     1.0000 0.35525  0.66661  0.02652  Biso   1.000  Cl
  Cl13     1.0000 0.85525  0.83339  0.52652  Biso   1.000  Cl
  Cl14     1.0000 0.35525  0.33339  0.52652  Biso   1.000  Cl
  Cl15     1.0000 0.14475  0.83339  0.97348  Biso   1.000  Cl
  Cl16     1.0000 0.64475  0.33339  0.97348  Biso   1.000  Cl
  Cl17     1.0000 0.03077  0.07245  0.61717  Biso   1.000  Cl
  Cl18     1.0000 0.53077  0.57245  0.61717  Biso   1.000  Cl
  Cl19     1.0000 0.96923  0.07245  0.88283  Biso   1.000  Cl
  Cl20     1.0000 0.46923  0.57245  0.88283  Biso   1.000  Cl
  Cl21     1.0000 0.96923  0.92755  0.38283  Biso   1.000  Cl
  Cl22     1.0000 0.46923  0.42755  0.38283  Biso   1.000  Cl
  Cl23     1.0000 0.03077  0.92755  0.11717  Biso   1.000  Cl
  Cl24     1.0000 0.53077  0.42755  0.11717  Biso   1.000  Cl
  N1       1.0000 0.72932  0.16548  0.62392  Biso   1.000  N
  N2       1.0000 0.22932  0.66548  0.62392  Biso   1.000  N
  N3       1.0000 0.27068  0.16548  0.87608  Biso   1.000  N
  N4       1.0000 0.77068  0.66548  0.87608  Biso   1.000  N
  N5       1.0000 0.27068  0.83452  0.37608  Biso   1.000  N
  N6       1.0000 0.77068  0.33452  0.37608  Biso   1.000  N
  N7       1.0000 0.72932  0.83452  0.12392  Biso   1.000  N
  N8       1.0000 0.22932  0.33452  0.12392  Biso   1.000  N
  N9       1.0000 0.61330  0.99850  0.94180  Biso   1.000  N
  N10      1.0000 0.11330  0.49850  0.94180  Biso   1.000  N
  N11      1.0000 0.38670  0.99850  0.55820  Biso   1.000  N
  N12      1.0000 0.88670  0.49850  0.55820  Biso   1.000  N
  N13      1.0000 0.38670  0.00150  0.05820  Biso   1.000  N
  N14      1.0000 0.88670  0.50150  0.05820  Biso   1.000  N
  N15      1.0000 0.61330  0.00150  0.44180  Biso   1.000  N
  N16      1.0000 0.11330  0.50150  0.44180  Biso   1.000  N
  H1       1.0000 0.60100  0.95890  0.99150  Biso   1.000  H
  H2       1.0000 0.10100  0.45890  0.99150  Biso   1.000  H
  H3       1.0000 0.39900  0.95890  0.50850  Biso   1.000  H
  H4       1.0000 0.89900  0.45890  0.50850  Biso   1.000  H
  H5       1.0000 0.39900  0.04110  0.00850  Biso   1.000  H
  H6       1.0000 0.89900  0.54110  0.00850  Biso   1.000  H
  H7       1.0000 0.60100  0.04110  0.49150  Biso   1.000  H
  H8       1.0000 0.10100  0.54110  0.49150  Biso   1.000  H
  H9       1.0000 0.58490  0.05650  0.93520  Biso   1.000  H
  H10      1.0000 0.08490  0.55650  0.93520  Biso   1.000  H
  H11      1.0000 0.41510  0.05650  0.56480  Biso   1.000  H
  H12      1.0000 0.91510  0.55650  0.56480  Biso   1.000  H
  H13      1.0000 0.41510  0.94350  0.06480  Biso   1.000  H
  H14      1.0000 0.91510  0.44350  0.06480  Biso   1.000  H
  H15      1.0000 0.58490  0.94350  0.43520  Biso   1.000  H
  H16      1.0000 0.08490  0.44350  0.43520  Biso   1.000  H
  O1       1.0000 0.88923  0.20359  0.51751  Biso   1.000  O
  O2       1.0000 0.38923  0.70359  0.51751  Biso   1.000  O
  O3       1.0000 0.11077  0.20359  0.98249  Biso   1.000  O
  O4       1.0000 0.61077  0.70359  0.98249  Biso   1.000  O
  O5       1.0000 0.11077  0.79641  0.48249  Biso   1.000  O
  O6       1.0000 0.61077  0.29641  0.48249  Biso   1.000  O
  O7       1.0000 0.88923  0.79641  0.01751  Biso   1.000  O
  O8       1.0000 0.38923  0.29641  0.01751  Biso   1.000  O
  O9       1.0000 0.98674  0.32700  0.46709  Biso   1.000  O
  O10      1.0000 0.48674  0.82700  0.46709  Biso   1.000  O
  O11      1.0000 0.01326  0.32700  0.03291  Biso   1.000  O
  O12      1.0000 0.51326  0.82700  0.03291  Biso   1.000  O
  O13      1.0000 0.01326  0.67300  0.53291  Biso   1.000  O
  O14      1.0000 0.51326  0.17300  0.53291  Biso   1.000  O
  O15      1.0000 0.98674  0.67300  0.96709  Biso   1.000  O
  O16      1.0000 0.48674  0.17300  0.96709  Biso   1.000  O
  O17      1.0000 0.71897  0.88806  0.88119  Biso   1.000  O
  O18      1.0000 0.21897  0.38806  0.88119  Biso   1.000  O
  O19      1.0000 0.28103  0.88806  0.61881  Biso   1.000  O
  O20      1.0000 0.78103  0.38806  0.61881  Biso   1.000  O
  O21      1.0000 0.28103  0.11194  0.11881  Biso   1.000  O
  O22      1.0000 0.78103  0.61194  0.11881  Biso   1.000  O
  O23      1.0000 0.71897  0.11194  0.38119  Biso   1.000  O
  O24      1.0000 0.21897  0.61194  0.38119  Biso   1.000  O
  C1       1.0000 0.96910  0.24700  0.50980  Biso   1.000  C
  C2       1.0000 0.46910  0.74700  0.50980  Biso   1.000  C
  C3       1.0000 0.03090  0.24700  0.99020  Biso   1.000  C
  C4       1.0000 0.53090  0.74700  0.99020  Biso   1.000  C
  C5       1.0000 0.03090  0.75300  0.49020  Biso   1.000  C
  C6       1.0000 0.53090  0.25300  0.49020  Biso   1.000  C
  C7       1.0000 0.96910  0.75300  0.00980  Biso   1.000  C
  C8       1.0000 0.46910  0.25300  0.00980  Biso   1.000  C
  C9       1.0000 0.05920  0.19070  0.56360  Biso   1.000  C
  C10      1.0000 0.55920  0.69070  0.56360  Biso   1.000  C
  C11      1.0000 0.94080  0.19070  0.93640  Biso   1.000  C
  C12      1.0000 0.44080  0.69070  0.93640  Biso   1.000  C
  C13      1.0000 0.94080  0.80930  0.43640  Biso   1.000  C
  C14      1.0000 0.44080  0.30930  0.43640  Biso   1.000  C
  C15      1.0000 0.05920  0.80930  0.06360  Biso   1.000  C
  C16      1.0000 0.55920  0.30930  0.06360  Biso   1.000  C
  C17      1.0000 0.77020  0.07320  0.63470  Biso   1.000  C
  C18      1.0000 0.27020  0.57320  0.63470  Biso   1.000  C
  C19      1.0000 0.22980  0.07320  0.86530  Biso   1.000  C
  C20      1.0000 0.72980  0.57320  0.86530  Biso   1.000  C
  C21      1.0000 0.22980  0.92680  0.36530  Biso   1.000  C
  C22      1.0000 0.72980  0.42680  0.36530  Biso   1.000  C
  C23      1.0000 0.77020  0.92680  0.13470  Biso   1.000  C
  C24      1.0000 0.27020  0.42680  0.13470  Biso   1.000  C
  H17      1.0000 0.81090  0.05120  0.58560  Biso   1.000  H
  H18      1.0000 0.31090  0.55120  0.58560  Biso   1.000  H
  H19      1.0000 0.18910  0.05120  0.91440  Biso   1.000  H
  H20      1.0000 0.68910  0.55120  0.91440  Biso   1.000  H
  H21      1.0000 0.18910  0.94880  0.41440  Biso   1.000  H
  H22      1.0000 0.68910  0.44880  0.41440  Biso   1.000  H
  H23      1.0000 0.81090  0.94880  0.08560  Biso   1.000  H
  H24      1.0000 0.31090  0.44880  0.08560  Biso   1.000  H
  C25      1.0000 0.75440  0.00970  0.71580  Biso   1.000  C
  C26      1.0000 0.25440  0.50970  0.71580  Biso   1.000  C
  C27      1.0000 0.24560  0.00970  0.78420  Biso   1.000  C
  C28      1.0000 0.74560  0.50970  0.78420  Biso   1.000  C
  C29      1.0000 0.24560  0.99030  0.28420  Biso   1.000  C
  C30      1.0000 0.74560  0.49030  0.28420  Biso   1.000  C
  C31      1.0000 0.75440  0.99030  0.21580  Biso   1.000  C
  C32      1.0000 0.25440  0.49030  0.21580  Biso   1.000  C
  H25      1.0000 0.78400  0.94620  0.72100  Biso   1.000  H
  H26      1.0000 0.28400  0.44620  0.72100  Biso   1.000  H
  H27      1.0000 0.21600  0.94620  0.77900  Biso   1.000  H
  H28      1.0000 0.71600  0.44620  0.77900  Biso   1.000  H
  H29      1.0000 0.21600  0.05380  0.27900  Biso   1.000  H
  H30      1.0000 0.71600  0.55380  0.27900  Biso   1.000  H
  H31      1.0000 0.78400  0.05380  0.22100  Biso   1.000  H
  H32      1.0000 0.28400  0.55380  0.22100  Biso   1.000  H
  C33      1.0000 0.69380  0.04160  0.78930  Biso   1.000  C
  C34      1.0000 0.19380  0.54160  0.78930  Biso   1.000  C
  C35      1.0000 0.30620  0.04160  0.71070  Biso   1.000  C
  C36      1.0000 0.80620  0.54160  0.71070  Biso   1.000  C
  C37      1.0000 0.30620  0.95840  0.21070  Biso   1.000  C
  C38      1.0000 0.80620  0.45840  0.21070  Biso   1.000  C
  C39      1.0000 0.69380  0.95840  0.28930  Biso   1.000  C
  C40      1.0000 0.19380  0.45840  0.28930  Biso   1.000  C
  C41      1.0000 0.65220  0.13730  0.77860  Biso   1.000  C
  C42      1.0000 0.15220  0.63730  0.77860  Biso   1.000  C
  C43      1.0000 0.34780  0.13730  0.72140  Biso   1.000  C
  C44      1.0000 0.84780  0.63730  0.72140  Biso   1.000  C
  C45      1.0000 0.34780  0.86270  0.22140  Biso   1.000  C
  C46      1.0000 0.84780  0.36270  0.22140  Biso   1.000  C
  C47      1.0000 0.65220  0.86270  0.27860  Biso   1.000  C
  C48      1.0000 0.15220  0.36270  0.27860  Biso   1.000  C
  H33      1.0000 0.61130  0.16130  0.82650  Biso   1.000  H
  H34      1.0000 0.11130  0.66130  0.82650  Biso   1.000  H
  H35      1.0000 0.38870  0.16130  0.67350  Biso   1.000  H
  H36      1.0000 0.88870  0.66130  0.67350  Biso   1.000  H
  H37      1.0000 0.38870  0.83870  0.17350  Biso   1.000  H
  H38      1.0000 0.88870  0.33870  0.17350  Biso   1.000  H
  H39      1.0000 0.61130  0.83870  0.32650  Biso   1.000  H
  H40      1.0000 0.11130  0.33870  0.32650  Biso   1.000  H
  C49      1.0000 0.67230  0.19670  0.69550  Biso   1.000  C
  C50      1.0000 0.17230  0.69670  0.69550  Biso   1.000  C
  C51      1.0000 0.32770  0.19670  0.80450  Biso   1.000  C
  C52      1.0000 0.82770  0.69670  0.80450  Biso   1.000  C
  C53      1.0000 0.32770  0.80330  0.30450  Biso   1.000  C
  C54      1.0000 0.82770  0.30330  0.30450  Biso   1.000  C
  C55      1.0000 0.67230  0.80330  0.19550  Biso   1.000  C
  C56      1.0000 0.17230  0.30330  0.19550  Biso   1.000  C
  H41      1.0000 0.64490  0.26110  0.68930  Biso   1.000  H
  H42      1.0000 0.14490  0.76110  0.68930  Biso   1.000  H
  H43      1.0000 0.35510  0.26110  0.81070  Biso   1.000  H
  H44      1.0000 0.85510  0.76110  0.81070  Biso   1.000  H
  H45      1.0000 0.35510  0.73890  0.31070  Biso   1.000  H
  H46      1.0000 0.85510  0.23890  0.31070  Biso   1.000  H
  H47      1.0000 0.64490  0.73890  0.18930  Biso   1.000  H
  H48      1.0000 0.14490  0.23890  0.18930  Biso   1.000  H
  C57      1.0000 0.67610  0.97000  0.87580  Biso   1.000  C
  C58      1.0000 0.17610  0.47000  0.87580  Biso   1.000  C
  C59      1.0000 0.32390  0.97000  0.62420  Biso   1.000  C
  C60      1.0000 0.82390  0.47000  0.62420  Biso   1.000  C
  C61      1.0000 0.32390  0.03000  0.12420  Biso   1.000  C
  C62      1.0000 0.82390  0.53000  0.12420  Biso   1.000  C
  C63      1.0000 0.67610  0.03000  0.37580  Biso   1.000  C
  C64      1.0000 0.17610  0.53000  0.37580  Biso   1.000  C
