data_image0
_cell_length_a       9.5727
_cell_length_b       10.9847
_cell_length_c       13.6468
_cell_angle_alpha    108.096
_cell_angle_beta     96.209
_cell_angle_gamma    107.815

_symmetry_space_group_name_H-M    "P 1"
_symmetry_int_tables_number       1

loop_
  _symmetry_equiv_pos_as_xyz
  'x, y, z'

loop_
  _atom_site_label
  _atom_site_occupancy
  _atom_site_fract_x
  _atom_site_fract_y
  _atom_site_fract_z
  _atom_site_thermal_displace_type
  _atom_site_B_iso_or_equiv
  _atom_site_type_symbol
  Cu1      1.0000 0.21443  0.38735  0.03753  Biso   1.000  Cu
  Cu2      1.0000 0.78557  0.61265  0.96247  Biso   1.000  Cu
  C1       1.0000 0.54212  0.52161  0.05834  Biso   1.000  C
  C2       1.0000 0.45788  0.47839  0.94166  Biso   1.000  C
  C3       1.0000 0.94781  0.43565  0.95147  Biso   1.000  C
  C4       1.0000 0.05219  0.56435  0.04853  Biso   1.000  C
  C5       1.0000 0.09926  0.20866  0.13739  Biso   1.000  C
  C6       1.0000 0.90074  0.79134  0.86261  Biso   1.000  C
  C7       1.0000 0.17184  0.13551  0.05230  Biso   1.000  C
  C8       1.0000 0.82816  0.86449  0.94770  Biso   1.000  C
  O1       1.0000 0.11222  0.32984  0.14312  Biso   1.000  O
  O2       1.0000 0.88778  0.67016  0.85688  Biso   1.000  O
  O3       1.0000 0.03731  0.15081  0.19410  Biso   1.000  O
  O4       1.0000 0.96269  0.84919  0.80590  Biso   1.000  O
  O5       1.0000 0.17338  0.02111  0.04351  Biso   1.000  O
  O6       1.0000 0.82662  0.97889  0.95649  Biso   1.000  O
  O7       1.0000 0.22837  0.20516  0.99726  Biso   1.000  O
  O8       1.0000 0.77163  0.79484  0.00274  Biso   1.000  O
  O9       1.0000 0.46749  0.50061  0.12358  Biso   1.000  O
  O10      1.0000 0.53251  0.49939  0.87642  Biso   1.000  O
  O11      1.0000 0.68521  0.57579  0.07714  Biso   1.000  O
  O12      1.0000 0.31479  0.42421  0.92286  Biso   1.000  O
  O13      1.0000 0.99071  0.33708  0.92229  Biso   1.000  O
  O14      1.0000 0.00929  0.66292  0.07771  Biso   1.000  O
  O15      1.0000 0.82541  0.44064  0.90947  Biso   1.000  O
  O16      1.0000 0.17459  0.55936  0.09053  Biso   1.000  O
  C9       1.0000 0.89511  0.41837  0.34060  Biso   1.000  C
  C10      1.0000 0.10489  0.58163  0.65940  Biso   1.000  C
  C11      1.0000 0.81739  0.47594  0.41332  Biso   1.000  C
  C12      1.0000 0.18261  0.52406  0.58668  Biso   1.000  C
  H1       1.0000 0.79430  0.55330  0.41090  Biso   1.000  H
  H2       1.0000 0.20570  0.44670  0.58910  Biso   1.000  H
  C13      1.0000 0.77512  0.42021  0.48755  Biso   1.000  C
  C14      1.0000 0.22488  0.57979  0.51245  Biso   1.000  C
  C15      1.0000 0.80909  0.30404  0.49000  Biso   1.000  C
  C16      1.0000 0.19091  0.69596  0.51000  Biso   1.000  C
  H3       1.0000 0.78030  0.26480  0.54100  Biso   1.000  H
  H4       1.0000 0.21970  0.73520  0.45900  Biso   1.000  H
  C17      1.0000 0.88333  0.24893  0.41869  Biso   1.000  C
  C18      1.0000 0.11667  0.75107  0.58131  Biso   1.000  C
  C19      1.0000 0.69460  0.48230  0.56608  Biso   1.000  C
  C20      1.0000 0.30540  0.51770  0.43392  Biso   1.000  C
  H5       1.0000 0.67310  0.43000  0.61270  Biso   1.000  H
  H6       1.0000 0.32690  0.57000  0.38730  Biso   1.000  H
  H7       1.0000 0.75830  0.57770  0.60840  Biso   1.000  H
  H8       1.0000 0.24170  0.42230  0.39160  Biso   1.000  H
  H9       1.0000 0.60000  0.47960  0.52840  Biso   1.000  H
  H10      1.0000 0.40000  0.52040  0.47160  Biso   1.000  H
  C21      1.0000 0.92970  0.12964  0.41584  Biso   1.000  C
  C22      1.0000 0.07030  0.87036  0.58416  Biso   1.000  C
  H11      1.0000 0.98110  0.10900  0.35790  Biso   1.000  H
  H12      1.0000 0.01890  0.89100  0.64210  Biso   1.000  H
  H13      1.0000 0.99810  0.15250  0.48310  Biso   1.000  H
  H14      1.0000 0.00190  0.84750  0.51690  Biso   1.000  H
  H15      1.0000 0.84030  0.04930  0.40470  Biso   1.000  H
  H16      1.0000 0.15970  0.95070  0.59530  Biso   1.000  H
  N1       1.0000 0.92242  0.30613  0.34491  Biso   1.000  N
  N2       1.0000 0.07758  0.69387  0.65509  Biso   1.000  N
  H17      1.0000 0.96750  0.26800  0.29800  Biso   1.000  H
  H18      1.0000 0.03250  0.73200  0.70200  Biso   1.000  H
  N3       1.0000 0.94255  0.47079  0.26894  Biso   1.000  N
  N4       1.0000 0.05745  0.52921  0.73106  Biso   1.000  N
  H19      1.0000 0.99300  0.43900  0.22300  Biso   1.000  H
  H20      1.0000 0.00700  0.56100  0.77700  Biso   1.000  H
  H21      1.0000 0.93100  0.54600  0.27100  Biso   1.000  H
  H22      1.0000 0.06900  0.45400  0.72900  Biso   1.000  H
  C23      1.0000 0.38902  0.99949  0.82335  Biso   1.000  C
  C24      1.0000 0.61098  0.00051  0.17665  Biso   1.000  C
  C25      1.0000 0.35957  0.82718  0.89901  Biso   1.000  C
  C26      1.0000 0.64043  0.17282  0.10099  Biso   1.000  C
  C27      1.0000 0.43889  0.76786  0.83439  Biso   1.000  C
  C28      1.0000 0.56111  0.23214  0.16561  Biso   1.000  C
  H23      1.0000 0.45690  0.68940  0.83950  Biso   1.000  H
  H24      1.0000 0.54310  0.31060  0.16050  Biso   1.000  H
  C29      1.0000 0.49367  0.82374  0.76022  Biso   1.000  C
  C30      1.0000 0.50633  0.17626  0.23978  Biso   1.000  C
  C31      1.0000 0.46822  0.93857  0.75443  Biso   1.000  C
  C32      1.0000 0.53178  0.06143  0.24557  Biso   1.000  C
  H25      1.0000 0.50400  0.97640  0.70410  Biso   1.000  H
  H26      1.0000 0.49600  0.02360  0.29590  Biso   1.000  H
  C33      1.0000 0.57940  0.75840  0.68783  Biso   1.000  C
  C34      1.0000 0.42060  0.24160  0.31217  Biso   1.000  C
  H27      1.0000 0.58700  0.67860  0.70260  Biso   1.000  H
  H28      1.0000 0.41300  0.32140  0.29740  Biso   1.000  H
  H29      1.0000 0.52650  0.72900  0.61410  Biso   1.000  H
  H30      1.0000 0.47350  0.27100  0.38590  Biso   1.000  H
  H31      1.0000 0.68070  0.82500  0.69950  Biso   1.000  H
  H32      1.0000 0.31930  0.17500  0.30050  Biso   1.000  H
  C35      1.0000 0.29150  0.77344  0.97754  Biso   1.000  C
  C36      1.0000 0.70850  0.22656  0.02246  Biso   1.000  C
  H33      1.0000 0.31470  0.69200  0.97590  Biso   1.000  H
  H34      1.0000 0.68530  0.30800  0.02410  Biso   1.000  H
  H35      1.0000 0.33310  0.84420  0.04850  Biso   1.000  H
  H36      1.0000 0.66690  0.15580  0.95150  Biso   1.000  H
  H37      1.0000 0.18210  0.74890  0.95970  Biso   1.000  H
  H38      1.0000 0.81790  0.25110  0.04030  Biso   1.000  H
  N5       1.0000 0.33669  0.94110  0.89222  Biso   1.000  N
  N6       1.0000 0.66331  0.05890  0.10778  Biso   1.000  N
  H39      1.0000 0.28560  0.97820  0.93450  Biso   1.000  H
  H40      1.0000 0.71440  0.02180  0.06550  Biso   1.000  H
  N7       1.0000 0.36317  0.11289  0.82287  Biso   1.000  N
  N8       1.0000 0.63683  0.88711  0.17713  Biso   1.000  N
  H41      1.0000 0.40500  0.14800  0.78200  Biso   1.000  H
  H42      1.0000 0.59500  0.85200  0.21800  Biso   1.000  H
  H43      1.0000 0.32300  0.15200  0.87500  Biso   1.000  H
  H44      1.0000 0.67700  0.84800  0.12500  Biso   1.000  H
  O17      1.0000 0.06229  0.91594  0.23026  Biso   1.000  O
  O18      1.0000 0.93771  0.08406  0.76974  Biso   1.000  O
  H45      1.0000 0.05400  0.85800  0.17500  Biso   1.000  H
  H46      1.0000 0.94600  0.14200  0.82500  Biso   1.000  H
  H47      1.0000 0.04500  0.97700  0.21500  Biso   1.000  H
  H48      1.0000 0.95500  0.02300  0.78500  Biso   1.000  H
  O19      1.0000 0.33990  0.21390  0.56952  Biso   1.000  O
  O20      1.0000 0.66010  0.78610  0.43048  Biso   1.000  O
  H49      1.0000 0.37500  0.29360  0.62140  Biso   1.000  H
  H50      1.0000 0.62500  0.70640  0.37860  Biso   1.000  H
  H51      1.0000 0.41500  0.19100  0.57280  Biso   1.000  H
  H52      1.0000 0.58500  0.80900  0.42720  Biso   1.000  H
  O21      1.0000 0.59770  0.23880  0.71320  Biso   1.000  O
  O22      1.0000 0.40230  0.76120  0.28680  Biso   1.000  O
  H53      1.0000 0.56900  0.29700  0.75250  Biso   1.000  H
  H54      1.0000 0.43100  0.70300  0.24750  Biso   1.000  H
  H55      1.0000 0.68000  0.25900  0.75300  Biso   1.000  H
  H56      1.0000 0.32000  0.74100  0.24700  Biso   1.000  H
  O23      1.0000 0.85035  0.71270  0.28614  Biso   1.000  O
  O24      1.0000 0.14965  0.28730  0.71386  Biso   1.000  O
  H57      1.0000 0.91300  0.77820  0.28350  Biso   1.000  H
  H58      1.0000 0.08700  0.22180  0.71650  Biso   1.000  H
  H59      1.0000 0.80100  0.66900  0.22900  Biso   1.000  H
  H60      1.0000 0.19900  0.33100  0.77100  Biso   1.000  H
  O25      1.0000 0.28370  0.95880  0.40085  Biso   1.000  O
  O26      1.0000 0.71630  0.04120  0.59915  Biso   1.000  O
  H61      1.0000 0.25300  0.86540  0.35200  Biso   1.000  H
  H62      1.0000 0.74700  0.13460  0.64800  Biso   1.000  H
  H63      1.0000 0.22500  0.97400  0.35570  Biso   1.000  H
  H64      1.0000 0.77500  0.02600  0.64430  Biso   1.000  H
