data_image0
_cell_length_a       11.13
_cell_length_b       11.13
_cell_length_c       17.7
_cell_angle_alpha    90
_cell_angle_beta     90
_cell_angle_gamma    90

_symmetry_space_group_name_H-M    "P 1"
_symmetry_int_tables_number       1

loop_
  _symmetry_equiv_pos_as_xyz
  'x, y, z'

loop_
  _atom_site_label
  _atom_site_occupancy
  _atom_site_fract_x
  _atom_site_fract_y
  _atom_site_fract_z
  _atom_site_thermal_displace_type
  _atom_site_B_iso_or_equiv
  _atom_site_type_symbol
  Cu1      1.0000 0.50000  0.50000  0.50000  Biso   1.000  Cu
  Cu2      1.0000 0.00000  0.00000  0.00000  Biso   1.000  Cu
  N1       1.0000 0.31870  0.50000  0.50000  Biso   1.000  N
  N2       1.0000 0.68130  0.50000  0.50000  Biso   1.000  N
  N3       1.0000 0.50000  0.31870  0.50000  Biso   1.000  N
  N4       1.0000 0.50000  0.68130  0.50000  Biso   1.000  N
  N5       1.0000 0.81870  0.00000  0.00000  Biso   1.000  N
  N6       1.0000 0.18130  0.00000  0.00000  Biso   1.000  N
  N7       1.0000 0.00000  0.81870  0.00000  Biso   1.000  N
  N8       1.0000 0.00000  0.18130  0.00000  Biso   1.000  N
  N9       1.0000 0.50000  0.50000  0.64000  Biso   1.000  N
  N10      1.0000 0.00000  0.00000  0.14000  Biso   1.000  N
  N11      1.0000 0.50000  0.50000  0.36000  Biso   1.000  N
  N12      1.0000 0.00000  0.00000  0.86000  Biso   1.000  N
  C1       1.0000 0.25740  0.55430  0.55260  Biso   1.000  C
  C2       1.0000 0.74260  0.44570  0.55260  Biso   1.000  C
  C3       1.0000 0.44570  0.25740  0.55260  Biso   1.000  C
  C4       1.0000 0.55430  0.74260  0.55260  Biso   1.000  C
  C5       1.0000 0.75740  0.05430  0.05260  Biso   1.000  C
  C6       1.0000 0.24260  0.94570  0.05260  Biso   1.000  C
  C7       1.0000 0.94570  0.75740  0.05260  Biso   1.000  C
  C8       1.0000 0.05430  0.24260  0.05260  Biso   1.000  C
  C9       1.0000 0.74260  0.44570  0.44740  Biso   1.000  C
  C10      1.0000 0.25740  0.55430  0.44740  Biso   1.000  C
  C11      1.0000 0.55430  0.74260  0.44740  Biso   1.000  C
  C12      1.0000 0.44570  0.25740  0.44740  Biso   1.000  C
  C13      1.0000 0.24260  0.94570  0.94740  Biso   1.000  C
  C14      1.0000 0.75740  0.05430  0.94740  Biso   1.000  C
  C15      1.0000 0.05430  0.24260  0.94740  Biso   1.000  C
  C16      1.0000 0.94570  0.75740  0.94740  Biso   1.000  C
  H1       1.0000 0.29907  0.59240  0.59135  Biso   1.000  H
  H2       1.0000 0.70093  0.40760  0.59135  Biso   1.000  H
  H3       1.0000 0.40760  0.29907  0.59135  Biso   1.000  H
  H4       1.0000 0.59240  0.70093  0.59135  Biso   1.000  H
  H5       1.0000 0.79907  0.09240  0.09135  Biso   1.000  H
  H6       1.0000 0.20093  0.90760  0.09135  Biso   1.000  H
  H7       1.0000 0.90760  0.79907  0.09135  Biso   1.000  H
  H8       1.0000 0.09240  0.20093  0.09135  Biso   1.000  H
  H9       1.0000 0.70093  0.40760  0.40865  Biso   1.000  H
  H10      1.0000 0.29907  0.59240  0.40865  Biso   1.000  H
  H11      1.0000 0.59240  0.70093  0.40865  Biso   1.000  H
  H12      1.0000 0.40760  0.29907  0.40865  Biso   1.000  H
  H13      1.0000 0.20093  0.90760  0.90865  Biso   1.000  H
  H14      1.0000 0.79907  0.09240  0.90865  Biso   1.000  H
  H15      1.0000 0.09240  0.20093  0.90865  Biso   1.000  H
  H16      1.0000 0.90760  0.79907  0.90865  Biso   1.000  H
  C17      1.0000 0.12950  0.55810  0.55350  Biso   1.000  C
  C18      1.0000 0.87050  0.44190  0.55350  Biso   1.000  C
  C19      1.0000 0.44190  0.12950  0.55350  Biso   1.000  C
  C20      1.0000 0.55810  0.87050  0.55350  Biso   1.000  C
  C21      1.0000 0.62950  0.05810  0.05350  Biso   1.000  C
  C22      1.0000 0.37050  0.94190  0.05350  Biso   1.000  C
  C23      1.0000 0.94190  0.62950  0.05350  Biso   1.000  C
  C24      1.0000 0.05810  0.37050  0.05350  Biso   1.000  C
  C25      1.0000 0.87050  0.44190  0.44650  Biso   1.000  C
  C26      1.0000 0.12950  0.55810  0.44650  Biso   1.000  C
  C27      1.0000 0.55810  0.87050  0.44650  Biso   1.000  C
  C28      1.0000 0.44190  0.12950  0.44650  Biso   1.000  C
  C29      1.0000 0.37050  0.94190  0.94650  Biso   1.000  C
  C30      1.0000 0.62950  0.05810  0.94650  Biso   1.000  C
  C31      1.0000 0.05810  0.37050  0.94650  Biso   1.000  C
  C32      1.0000 0.94190  0.62950  0.94650  Biso   1.000  C
  H17      1.0000 0.08974  0.60055  0.59119  Biso   1.000  H
  H18      1.0000 0.91026  0.39945  0.59119  Biso   1.000  H
  H19      1.0000 0.39945  0.08974  0.59119  Biso   1.000  H
  H20      1.0000 0.60055  0.91026  0.59119  Biso   1.000  H
  H21      1.0000 0.58974  0.10055  0.09119  Biso   1.000  H
  H22      1.0000 0.41026  0.89945  0.09119  Biso   1.000  H
  H23      1.0000 0.89945  0.58974  0.09119  Biso   1.000  H
  H24      1.0000 0.10055  0.41026  0.09119  Biso   1.000  H
  H25      1.0000 0.91026  0.39945  0.40881  Biso   1.000  H
  H26      1.0000 0.08974  0.60055  0.40881  Biso   1.000  H
  H27      1.0000 0.60055  0.91026  0.40881  Biso   1.000  H
  H28      1.0000 0.39945  0.08974  0.40881  Biso   1.000  H
  H29      1.0000 0.41026  0.89945  0.90881  Biso   1.000  H
  H30      1.0000 0.58974  0.10055  0.90881  Biso   1.000  H
  H31      1.0000 0.10055  0.41026  0.90881  Biso   1.000  H
  H32      1.0000 0.89945  0.58974  0.90881  Biso   1.000  H
  C33      1.0000 0.06610  0.50050  0.50000  Biso   1.000  C
  C34      1.0000 0.93390  0.49950  0.50000  Biso   1.000  C
  C35      1.0000 0.49950  0.06610  0.50000  Biso   1.000  C
  C36      1.0000 0.50050  0.93390  0.50000  Biso   1.000  C
  C37      1.0000 0.56610  0.00050  0.00000  Biso   1.000  C
  C38      1.0000 0.43390  0.99950  0.00000  Biso   1.000  C
  C39      1.0000 0.99950  0.56610  0.00000  Biso   1.000  C
  C40      1.0000 0.00050  0.43390  0.00000  Biso   1.000  C
  C41      1.0000 0.50000  0.50000  0.69440  Biso   1.000  C
  C42      1.0000 0.00000  0.00000  0.19440  Biso   1.000  C
  C43      1.0000 0.50000  0.50000  0.30560  Biso   1.000  C
  C44      1.0000 0.00000  0.00000  0.80560  Biso   1.000  C
  H33      1.0000 0.29826  0.40619  0.59124  Biso   1.000  H
  H34      1.0000 0.70174  0.59381  0.59124  Biso   1.000  H
  H35      1.0000 0.59381  0.29826  0.59124  Biso   1.000  H
  H36      1.0000 0.40619  0.70174  0.59124  Biso   1.000  H
  H37      1.0000 0.79826  0.90619  0.09124  Biso   1.000  H
  H38      1.0000 0.20174  0.09381  0.09124  Biso   1.000  H
  H39      1.0000 0.09381  0.79826  0.09124  Biso   1.000  H
  H40      1.0000 0.90619  0.20174  0.09124  Biso   1.000  H
  H41      1.0000 0.70174  0.59381  0.40876  Biso   1.000  H
  H42      1.0000 0.29826  0.40619  0.40876  Biso   1.000  H
  H43      1.0000 0.40619  0.70174  0.40876  Biso   1.000  H
  H44      1.0000 0.59381  0.29826  0.40876  Biso   1.000  H
  H45      1.0000 0.20174  0.09381  0.90876  Biso   1.000  H
  H46      1.0000 0.79826  0.90619  0.90876  Biso   1.000  H
  H47      1.0000 0.90619  0.20174  0.90876  Biso   1.000  H
  H48      1.0000 0.09381  0.79826  0.90876  Biso   1.000  H
  H49      1.0000 0.08936  0.39944  0.59062  Biso   1.000  H
  H50      1.0000 0.91064  0.60056  0.59062  Biso   1.000  H
  H51      1.0000 0.60056  0.08936  0.59062  Biso   1.000  H
  H52      1.0000 0.39944  0.91064  0.59062  Biso   1.000  H
  H53      1.0000 0.58936  0.89944  0.09062  Biso   1.000  H
  H54      1.0000 0.41064  0.10056  0.09062  Biso   1.000  H
  H55      1.0000 0.10056  0.58936  0.09062  Biso   1.000  H
  H56      1.0000 0.89944  0.41064  0.09062  Biso   1.000  H
  H57      1.0000 0.91064  0.60056  0.40938  Biso   1.000  H
  H58      1.0000 0.08936  0.39944  0.40938  Biso   1.000  H
  H59      1.0000 0.39944  0.91064  0.40938  Biso   1.000  H
  H60      1.0000 0.60056  0.08936  0.40938  Biso   1.000  H
  H61      1.0000 0.41064  0.10056  0.90938  Biso   1.000  H
  H62      1.0000 0.58936  0.89944  0.90938  Biso   1.000  H
  H63      1.0000 0.89944  0.41064  0.90938  Biso   1.000  H
  H64      1.0000 0.10056  0.58936  0.90938  Biso   1.000  H
  C45      1.0000 0.25690  0.44500  0.55260  Biso   1.000  C
  C46      1.0000 0.74310  0.55500  0.55260  Biso   1.000  C
  C47      1.0000 0.55500  0.25690  0.55260  Biso   1.000  C
  C48      1.0000 0.44500  0.74310  0.55260  Biso   1.000  C
  C49      1.0000 0.75690  0.94500  0.05260  Biso   1.000  C
  C50      1.0000 0.24310  0.05500  0.05260  Biso   1.000  C
  C51      1.0000 0.05500  0.75690  0.05260  Biso   1.000  C
  C52      1.0000 0.94500  0.24310  0.05260  Biso   1.000  C
  C53      1.0000 0.74310  0.55500  0.44740  Biso   1.000  C
  C54      1.0000 0.25690  0.44500  0.44740  Biso   1.000  C
  C55      1.0000 0.44500  0.74310  0.44740  Biso   1.000  C
  C56      1.0000 0.55500  0.25690  0.44740  Biso   1.000  C
  C57      1.0000 0.24310  0.05500  0.94740  Biso   1.000  C
  C58      1.0000 0.75690  0.94500  0.94740  Biso   1.000  C
  C59      1.0000 0.94500  0.24310  0.94740  Biso   1.000  C
  C60      1.0000 0.05500  0.75690  0.94740  Biso   1.000  C
  C61      1.0000 0.12940  0.44210  0.55310  Biso   1.000  C
  C62      1.0000 0.87060  0.55790  0.55310  Biso   1.000  C
  C63      1.0000 0.55790  0.12940  0.55310  Biso   1.000  C
  C64      1.0000 0.44210  0.87060  0.55310  Biso   1.000  C
  C65      1.0000 0.62940  0.94210  0.05310  Biso   1.000  C
  C66      1.0000 0.37060  0.05790  0.05310  Biso   1.000  C
  C67      1.0000 0.05790  0.62940  0.05310  Biso   1.000  C
  C68      1.0000 0.94210  0.37060  0.05310  Biso   1.000  C
  C69      1.0000 0.87060  0.55790  0.44690  Biso   1.000  C
  C70      1.0000 0.12940  0.44210  0.44690  Biso   1.000  C
  C71      1.0000 0.44210  0.87060  0.44690  Biso   1.000  C
  C72      1.0000 0.55790  0.12940  0.44690  Biso   1.000  C
  C73      1.0000 0.37060  0.05790  0.94690  Biso   1.000  C
  C74      1.0000 0.62940  0.94210  0.94690  Biso   1.000  C
  C75      1.0000 0.94210  0.37060  0.94690  Biso   1.000  C
  C76      1.0000 0.05790  0.62940  0.94690  Biso   1.000  C
