data_image0
_cell_length_a       14.94
_cell_length_b       14.94
_cell_length_c       32.69
_cell_angle_alpha    90
_cell_angle_beta     90
_cell_angle_gamma    120

_symmetry_space_group_name_H-M    "P 1"
_symmetry_int_tables_number       1

loop_
  _symmetry_equiv_pos_as_xyz
  'x, y, z'

loop_
  _atom_site_label
  _atom_site_occupancy
  _atom_site_fract_x
  _atom_site_fract_y
  _atom_site_fract_z
  _atom_site_thermal_displace_type
  _atom_site_B_iso_or_equiv
  _atom_site_type_symbol
  Cu1      1.0000 0.12880  0.00000  0.00000  Biso   1.000  Cu
  Cu2      1.0000 0.12880  0.12880  0.33333  Biso   1.000  Cu
  Cu3      1.0000 0.00000  0.12880  0.66667  Biso   1.000  Cu
  Cu4      1.0000 0.87120  0.00000  0.00000  Biso   1.000  Cu
  Cu5      1.0000 0.87120  0.87120  0.33333  Biso   1.000  Cu
  Cu6      1.0000 0.00000  0.87120  0.66667  Biso   1.000  Cu
  O1       1.0000 0.00000  0.00000  0.00000  Biso   1.000  O
  O2       1.0000 0.00000  0.00000  0.33333  Biso   1.000  O
  O3       1.0000 0.00000  0.00000  0.66667  Biso   1.000  O
  N1       1.0000 0.26540  0.00000  0.00000  Biso   1.000  N
  N2       1.0000 0.26540  0.26540  0.33333  Biso   1.000  N
  N3       1.0000 0.00000  0.26540  0.66667  Biso   1.000  N
  N4       1.0000 0.73460  0.00000  0.00000  Biso   1.000  N
  N5       1.0000 0.73460  0.73460  0.33333  Biso   1.000  N
  N6       1.0000 0.00000  0.73460  0.66667  Biso   1.000  N
  N7       1.0000 0.14080  0.03060  0.06070  Biso   1.000  N
  N8       1.0000 0.11020  0.14080  0.39403  Biso   1.000  N
  N9       1.0000 0.96940  0.11020  0.72737  Biso   1.000  N
  N10      1.0000 0.85920  0.96940  0.06070  Biso   1.000  N
  N11      1.0000 0.88980  0.85920  0.39403  Biso   1.000  N
  N12      1.0000 0.03060  0.88980  0.72737  Biso   1.000  N
  N13      1.0000 0.96940  0.85920  0.60597  Biso   1.000  N
  N14      1.0000 0.11020  0.96940  0.93930  Biso   1.000  N
  N15      1.0000 0.14080  0.11020  0.27263  Biso   1.000  N
  N16      1.0000 0.03060  0.14080  0.60597  Biso   1.000  N
  N17      1.0000 0.88980  0.03060  0.93930  Biso   1.000  N
  N18      1.0000 0.85920  0.88980  0.27263  Biso   1.000  N
  N19      1.0000 0.02750  0.80850  0.01520  Biso   1.000  N
  N20      1.0000 0.21900  0.02750  0.34853  Biso   1.000  N
  N21      1.0000 0.19150  0.21900  0.68187  Biso   1.000  N
  N22      1.0000 0.97250  0.19150  0.01520  Biso   1.000  N
  N23      1.0000 0.78100  0.97250  0.34853  Biso   1.000  N
  N24      1.0000 0.80850  0.78100  0.68187  Biso   1.000  N
  N25      1.0000 0.19150  0.97250  0.65147  Biso   1.000  N
  N26      1.0000 0.21900  0.19150  0.98480  Biso   1.000  N
  N27      1.0000 0.02750  0.21900  0.31813  Biso   1.000  N
  N28      1.0000 0.80850  0.02750  0.65147  Biso   1.000  N
  N29      1.0000 0.78100  0.80850  0.98480  Biso   1.000  N
  N30      1.0000 0.97250  0.78100  0.31813  Biso   1.000  N
  C1       1.0000 0.35120  0.08280  0.01230  Biso   1.000  C
  C2       1.0000 0.26840  0.35120  0.34563  Biso   1.000  C
  C3       1.0000 0.91720  0.26840  0.67897  Biso   1.000  C
  C4       1.0000 0.64880  0.91720  0.01230  Biso   1.000  C
  C5       1.0000 0.73160  0.64880  0.34563  Biso   1.000  C
  C6       1.0000 0.08280  0.73160  0.67897  Biso   1.000  C
  C7       1.0000 0.91720  0.64880  0.65437  Biso   1.000  C
  C8       1.0000 0.26840  0.91720  0.98770  Biso   1.000  C
  C9       1.0000 0.35120  0.26840  0.32103  Biso   1.000  C
  C10      1.0000 0.08280  0.35120  0.65437  Biso   1.000  C
  C11      1.0000 0.73160  0.08280  0.98770  Biso   1.000  C
  C12      1.0000 0.64880  0.73160  0.32103  Biso   1.000  C
  H1       1.0000 0.34817  0.14063  0.02076  Biso   1.000  H
  H2       1.0000 0.20754  0.34817  0.35409  Biso   1.000  H
  H3       1.0000 0.85937  0.20754  0.68743  Biso   1.000  H
  H4       1.0000 0.65183  0.85937  0.02076  Biso   1.000  H
  H5       1.0000 0.79246  0.65183  0.35409  Biso   1.000  H
  H6       1.0000 0.14063  0.79246  0.68743  Biso   1.000  H
  H7       1.0000 0.85937  0.65183  0.64591  Biso   1.000  H
  H8       1.0000 0.20754  0.85937  0.97924  Biso   1.000  H
  H9       1.0000 0.34817  0.20754  0.31257  Biso   1.000  H
  H10      1.0000 0.14063  0.34817  0.64591  Biso   1.000  H
  H11      1.0000 0.79246  0.14063  0.97924  Biso   1.000  H
  H12      1.0000 0.65183  0.79246  0.31257  Biso   1.000  H
  C13      1.0000 0.44550  0.08590  0.01290  Biso   1.000  C
  C14      1.0000 0.35960  0.44550  0.34623  Biso   1.000  C
  C15      1.0000 0.91410  0.35960  0.67957  Biso   1.000  C
  C16      1.0000 0.55450  0.91410  0.01290  Biso   1.000  C
  C17      1.0000 0.64040  0.55450  0.34623  Biso   1.000  C
  C18      1.0000 0.08590  0.64040  0.67957  Biso   1.000  C
  C19      1.0000 0.91410  0.55450  0.65377  Biso   1.000  C
  C20      1.0000 0.35960  0.91410  0.98710  Biso   1.000  C
  C21      1.0000 0.44550  0.35960  0.32043  Biso   1.000  C
  C22      1.0000 0.08590  0.44550  0.65377  Biso   1.000  C
  C23      1.0000 0.64040  0.08590  0.98710  Biso   1.000  C
  C24      1.0000 0.55450  0.64040  0.32043  Biso   1.000  C
  H13      1.0000 0.50476  0.14471  0.02191  Biso   1.000  H
  H14      1.0000 0.36005  0.50476  0.35524  Biso   1.000  H
  H15      1.0000 0.85529  0.36005  0.68858  Biso   1.000  H
  H16      1.0000 0.49524  0.85529  0.02191  Biso   1.000  H
  H17      1.0000 0.63995  0.49524  0.35524  Biso   1.000  H
  H18      1.0000 0.14471  0.63995  0.68858  Biso   1.000  H
  H19      1.0000 0.85529  0.49524  0.64476  Biso   1.000  H
  H20      1.0000 0.36005  0.85529  0.97809  Biso   1.000  H
  H21      1.0000 0.50476  0.36005  0.31142  Biso   1.000  H
  H22      1.0000 0.14471  0.50476  0.64476  Biso   1.000  H
  H23      1.0000 0.63995  0.14471  0.97809  Biso   1.000  H
  H24      1.0000 0.49524  0.63995  0.31142  Biso   1.000  H
  C25      1.0000 0.45000  0.00000  0.00000  Biso   1.000  C
  C26      1.0000 0.45000  0.45000  0.33333  Biso   1.000  C
  C27      1.0000 0.00000  0.45000  0.66667  Biso   1.000  C
  C28      1.0000 0.55000  0.00000  0.00000  Biso   1.000  C
  C29      1.0000 0.55000  0.55000  0.33333  Biso   1.000  C
  C30      1.0000 0.00000  0.55000  0.66667  Biso   1.000  C
  C31      1.0000 0.16310  0.97560  0.08760  Biso   1.000  C
  C32      1.0000 0.18750  0.16310  0.42093  Biso   1.000  C
  C33      1.0000 0.02440  0.18750  0.75427  Biso   1.000  C
  C34      1.0000 0.83690  0.02440  0.08760  Biso   1.000  C
  C35      1.0000 0.81250  0.83690  0.42093  Biso   1.000  C
  C36      1.0000 0.97560  0.81250  0.75427  Biso   1.000  C
  C37      1.0000 0.02440  0.83690  0.57907  Biso   1.000  C
  C38      1.0000 0.18750  0.02440  0.91240  Biso   1.000  C
  C39      1.0000 0.16310  0.18750  0.24573  Biso   1.000  C
  C40      1.0000 0.97560  0.16310  0.57907  Biso   1.000  C
  C41      1.0000 0.81250  0.97560  0.91240  Biso   1.000  C
  C42      1.0000 0.83690  0.81250  0.24573  Biso   1.000  C
  H25      1.0000 0.17771  0.92618  0.07750  Biso   1.000  H
  H26      1.0000 0.25153  0.17771  0.41083  Biso   1.000  H
  H27      1.0000 0.07382  0.25153  0.74417  Biso   1.000  H
  H28      1.0000 0.82229  0.07382  0.07750  Biso   1.000  H
  H29      1.0000 0.74847  0.82229  0.41083  Biso   1.000  H
  H30      1.0000 0.92618  0.74847  0.74417  Biso   1.000  H
  H31      1.0000 0.07382  0.82229  0.58917  Biso   1.000  H
  H32      1.0000 0.25153  0.07382  0.92250  Biso   1.000  H
  H33      1.0000 0.17771  0.25153  0.25583  Biso   1.000  H
  H34      1.0000 0.92618  0.17771  0.58917  Biso   1.000  H
  H35      1.0000 0.74847  0.92618  0.92250  Biso   1.000  H
  H36      1.0000 0.82229  0.74847  0.25583  Biso   1.000  H
  C43      1.0000 0.16510  0.98900  0.12740  Biso   1.000  C
  C44      1.0000 0.17610  0.16510  0.46073  Biso   1.000  C
  C45      1.0000 0.01100  0.17610  0.79407  Biso   1.000  C
  C46      1.0000 0.83490  0.01100  0.12740  Biso   1.000  C
  C47      1.0000 0.82390  0.83490  0.46073  Biso   1.000  C
  C48      1.0000 0.98900  0.82390  0.79407  Biso   1.000  C
  C49      1.0000 0.01100  0.83490  0.53927  Biso   1.000  C
  C50      1.0000 0.17610  0.01100  0.87260  Biso   1.000  C
  C51      1.0000 0.16510  0.17610  0.20593  Biso   1.000  C
  C52      1.0000 0.98900  0.16510  0.53927  Biso   1.000  C
  C53      1.0000 0.82390  0.98900  0.87260  Biso   1.000  C
  C54      1.0000 0.83490  0.82390  0.20593  Biso   1.000  C
  H37      1.0000 0.18101  0.94899  0.14439  Biso   1.000  H
  H38      1.0000 0.23202  0.18101  0.47772  Biso   1.000  H
  H39      1.0000 0.05101  0.23202  0.81106  Biso   1.000  H
  H40      1.0000 0.81899  0.05101  0.14439  Biso   1.000  H
  H41      1.0000 0.76798  0.81899  0.47772  Biso   1.000  H
  H42      1.0000 0.94899  0.76798  0.81106  Biso   1.000  H
  H43      1.0000 0.05101  0.81899  0.52228  Biso   1.000  H
  H44      1.0000 0.23202  0.05101  0.85561  Biso   1.000  H
  H45      1.0000 0.18101  0.23202  0.18894  Biso   1.000  H
  H46      1.0000 0.94899  0.18101  0.52228  Biso   1.000  H
  H47      1.0000 0.76798  0.94899  0.85561  Biso   1.000  H
  H48      1.0000 0.81899  0.76798  0.18894  Biso   1.000  H
  C55      1.0000 0.14370  0.06210  0.14480  Biso   1.000  C
  C56      1.0000 0.08160  0.14370  0.47813  Biso   1.000  C
  C57      1.0000 0.93790  0.08160  0.81147  Biso   1.000  C
  C58      1.0000 0.85630  0.93790  0.14480  Biso   1.000  C
  C59      1.0000 0.91840  0.85630  0.47813  Biso   1.000  C
  C60      1.0000 0.06210  0.91840  0.81147  Biso   1.000  C
  C61      1.0000 0.93790  0.85630  0.52187  Biso   1.000  C
  C62      1.0000 0.08160  0.93790  0.85520  Biso   1.000  C
  C63      1.0000 0.14370  0.08160  0.18853  Biso   1.000  C
  C64      1.0000 0.06210  0.14370  0.52187  Biso   1.000  C
  C65      1.0000 0.91840  0.06210  0.85520  Biso   1.000  C
  C66      1.0000 0.85630  0.91840  0.18853  Biso   1.000  C
  C67      1.0000 0.12140  0.12100  0.11630  Biso   1.000  C
  C68      1.0000 0.00040  0.12140  0.44963  Biso   1.000  C
  C69      1.0000 0.87900  0.00040  0.78297  Biso   1.000  C
  C70      1.0000 0.87860  0.87900  0.11630  Biso   1.000  C
  C71      1.0000 0.99960  0.87860  0.44963  Biso   1.000  C
  C72      1.0000 0.12100  0.99960  0.78297  Biso   1.000  C
  C73      1.0000 0.87900  0.87860  0.55037  Biso   1.000  C
  C74      1.0000 0.00040  0.87900  0.88370  Biso   1.000  C
  C75      1.0000 0.12140  0.00040  0.21703  Biso   1.000  C
  C76      1.0000 0.12100  0.12140  0.55037  Biso   1.000  C
  C77      1.0000 0.99960  0.12100  0.88370  Biso   1.000  C
  C78      1.0000 0.87860  0.99960  0.21703  Biso   1.000  C
  H49      1.0000 0.10865  0.17267  0.12518  Biso   1.000  H
  H50      1.0000 0.93598  0.10865  0.45851  Biso   1.000  H
  H51      1.0000 0.82733  0.93598  0.79185  Biso   1.000  H
  H52      1.0000 0.89135  0.82733  0.12518  Biso   1.000  H
  H53      1.0000 0.06402  0.89135  0.45851  Biso   1.000  H
  H54      1.0000 0.17267  0.06402  0.79185  Biso   1.000  H
  H55      1.0000 0.82733  0.89135  0.54149  Biso   1.000  H
  H56      1.0000 0.93598  0.82733  0.87482  Biso   1.000  H
  H57      1.0000 0.10865  0.93598  0.20815  Biso   1.000  H
  H58      1.0000 0.17267  0.10865  0.54149  Biso   1.000  H
  H59      1.0000 0.06402  0.17267  0.87482  Biso   1.000  H
  H60      1.0000 0.89135  0.06402  0.20815  Biso   1.000  H
  C79      1.0000 0.11960  0.09890  0.07580  Biso   1.000  C
  C80      1.0000 0.02070  0.11960  0.40913  Biso   1.000  C
  C81      1.0000 0.90110  0.02070  0.74247  Biso   1.000  C
  C82      1.0000 0.88040  0.90110  0.07580  Biso   1.000  C
  C83      1.0000 0.97930  0.88040  0.40913  Biso   1.000  C
  C84      1.0000 0.09890  0.97930  0.74247  Biso   1.000  C
  C85      1.0000 0.90110  0.88040  0.59087  Biso   1.000  C
  C86      1.0000 0.02070  0.90110  0.92420  Biso   1.000  C
  C87      1.0000 0.11960  0.02070  0.25753  Biso   1.000  C
  C88      1.0000 0.09890  0.11960  0.59087  Biso   1.000  C
  C89      1.0000 0.97930  0.09890  0.92420  Biso   1.000  C
  C90      1.0000 0.88040  0.97930  0.25753  Biso   1.000  C
  H61      1.0000 0.10184  0.13510  0.05749  Biso   1.000  H
  H62      1.0000 0.96674  0.10184  0.39082  Biso   1.000  H
  H63      1.0000 0.86490  0.96674  0.72416  Biso   1.000  H
  H64      1.0000 0.89816  0.86490  0.05749  Biso   1.000  H
  H65      1.0000 0.03326  0.89816  0.39082  Biso   1.000  H
  H66      1.0000 0.13510  0.03326  0.72416  Biso   1.000  H
  H67      1.0000 0.86490  0.89816  0.60918  Biso   1.000  H
  H68      1.0000 0.96674  0.86490  0.94251  Biso   1.000  H
  H69      1.0000 0.10184  0.96674  0.27584  Biso   1.000  H
  H70      1.0000 0.13510  0.10184  0.60918  Biso   1.000  H
  H71      1.0000 0.03326  0.13510  0.94251  Biso   1.000  H
  H72      1.0000 0.89816  0.03326  0.27584  Biso   1.000  H
  C91      1.0000 0.97900  0.72520  0.01940  Biso   1.000  C
  C92      1.0000 0.25380  0.97900  0.35273  Biso   1.000  C
  C93      1.0000 0.27480  0.25380  0.68607  Biso   1.000  C
  C94      1.0000 0.02100  0.27480  0.01940  Biso   1.000  C
  C95      1.0000 0.74620  0.02100  0.35273  Biso   1.000  C
  C96      1.0000 0.72520  0.74620  0.68607  Biso   1.000  C
  C97      1.0000 0.27480  0.02100  0.64727  Biso   1.000  C
  C98      1.0000 0.25380  0.27480  0.98060  Biso   1.000  C
  C99      1.0000 0.97900  0.25380  0.31393  Biso   1.000  C
  C100     1.0000 0.72520  0.97900  0.64727  Biso   1.000  C
  C101     1.0000 0.74620  0.72520  0.98060  Biso   1.000  C
  C102     1.0000 0.02100  0.74620  0.31393  Biso   1.000  C
  C103     1.0000 0.93600  0.61500  0.02300  Biso   1.000  C
  C104     1.0000 0.32100  0.93600  0.35633  Biso   1.000  C
  C105     1.0000 0.38500  0.32100  0.68967  Biso   1.000  C
  C106     1.0000 0.06400  0.38500  0.02300  Biso   1.000  C
  C107     1.0000 0.67900  0.06400  0.35633  Biso   1.000  C
  C108     1.0000 0.61500  0.67900  0.68967  Biso   1.000  C
  C109     1.0000 0.38500  0.06400  0.64367  Biso   1.000  C
  C110     1.0000 0.32100  0.38500  0.97700  Biso   1.000  C
  C111     1.0000 0.93600  0.32100  0.31033  Biso   1.000  C
  C112     1.0000 0.61500  0.93600  0.64367  Biso   1.000  C
  C113     1.0000 0.67900  0.61500  0.97700  Biso   1.000  C
  C114     1.0000 0.06400  0.67900  0.31033  Biso   1.000  C
  H73      1.0000 0.86444  0.58343  0.02989  Biso   1.000  H
  H74      1.0000 0.28101  0.86444  0.36322  Biso   1.000  H
  H75      1.0000 0.41657  0.28101  0.69656  Biso   1.000  H
  H76      1.0000 0.13556  0.41657  0.02989  Biso   1.000  H
  H77      1.0000 0.71899  0.13556  0.36322  Biso   1.000  H
  H78      1.0000 0.58343  0.71899  0.69656  Biso   1.000  H
  H79      1.0000 0.41657  0.13556  0.63678  Biso   1.000  H
  H80      1.0000 0.28101  0.41657  0.97011  Biso   1.000  H
  H81      1.0000 0.86444  0.28101  0.30344  Biso   1.000  H
  H82      1.0000 0.58343  0.86444  0.63678  Biso   1.000  H
  H83      1.0000 0.71899  0.58343  0.97011  Biso   1.000  H
  H84      1.0000 0.13556  0.71899  0.30344  Biso   1.000  H
  H85      1.0000 0.94274  0.58828  0.99682  Biso   1.000  H
  H86      1.0000 0.35446  0.94274  0.33015  Biso   1.000  H
  H87      1.0000 0.41172  0.35446  0.66349  Biso   1.000  H
  H88      1.0000 0.05726  0.41172  0.99682  Biso   1.000  H
  H89      1.0000 0.64554  0.05726  0.33015  Biso   1.000  H
  H90      1.0000 0.58828  0.64554  0.66349  Biso   1.000  H
  H91      1.0000 0.41172  0.05726  0.66985  Biso   1.000  H
  H92      1.0000 0.35446  0.41172  0.00318  Biso   1.000  H
  H93      1.0000 0.94274  0.35446  0.33651  Biso   1.000  H
  H94      1.0000 0.58828  0.94274  0.66985  Biso   1.000  H
  H95      1.0000 0.64554  0.58828  0.00318  Biso   1.000  H
  H96      1.0000 0.05726  0.64554  0.33651  Biso   1.000  H
  H97      1.0000 0.97264  0.60050  0.04328  Biso   1.000  H
  H98      1.0000 0.37214  0.97264  0.37661  Biso   1.000  H
  H99      1.0000 0.39950  0.37214  0.70995  Biso   1.000  H
  H100     1.0000 0.02736  0.39950  0.04328  Biso   1.000  H
  H101     1.0000 0.62786  0.02736  0.37661  Biso   1.000  H
  H102     1.0000 0.60050  0.62786  0.70995  Biso   1.000  H
  H103     1.0000 0.39950  0.02736  0.62339  Biso   1.000  H
  H104     1.0000 0.37214  0.39950  0.95672  Biso   1.000  H
  H105     1.0000 0.97264  0.37214  0.29005  Biso   1.000  H
  H106     1.0000 0.60050  0.97264  0.62339  Biso   1.000  H
  H107     1.0000 0.62786  0.60050  0.95672  Biso   1.000  H
  H108     1.0000 0.02736  0.62786  0.29005  Biso   1.000  H
