data_image0
_cell_length_a       5.191
_cell_length_b       10.84
_cell_length_c       11.063
_cell_angle_alpha    83.12
_cell_angle_beta     86.92
_cell_angle_gamma    85.6

_symmetry_space_group_name_H-M    "P 1"
_symmetry_int_tables_number       1

loop_
  _symmetry_equiv_pos_as_xyz
  'x, y, z'

loop_
  _atom_site_label
  _atom_site_occupancy
  _atom_site_fract_x
  _atom_site_fract_y
  _atom_site_fract_z
  _atom_site_thermal_displace_type
  _atom_site_B_iso_or_equiv
  _atom_site_type_symbol
  Cu1      1.0000 0.21090  0.04660  0.95410  Biso   1.000  Cu
  Cu2      1.0000 0.78910  0.95340  0.04590  Biso   1.000  Cu
  O1       1.0000 0.15210  0.16200  0.07530  Biso   1.000  O
  O2       1.0000 0.84790  0.83800  0.92470  Biso   1.000  O
  O3       1.0000 0.21010  0.92210  0.84290  Biso   1.000  O
  O4       1.0000 0.78990  0.07790  0.15710  Biso   1.000  O
  C1       1.0000 0.96080  0.15510  0.15140  Biso   1.000  C
  C2       1.0000 0.03920  0.84490  0.84860  Biso   1.000  C
  C3       1.0000 0.94280  0.24590  0.24440  Biso   1.000  C
  C4       1.0000 0.05720  0.75410  0.75560  Biso   1.000  C
  C5       1.0000 0.94510  0.38050  0.19000  Biso   1.000  C
  C6       1.0000 0.05490  0.61950  0.81000  Biso   1.000  C
  C7       1.0000 0.95310  0.46700  0.28730  Biso   1.000  C
  C8       1.0000 0.04690  0.53300  0.71270  Biso   1.000  C
  C9       1.0000 0.72340  0.41780  0.10940  Biso   1.000  C
  C10      1.0000 0.27660  0.58220  0.89060  Biso   1.000  C
  O5       1.0000 0.99130  0.16040  0.84460  Biso   1.000  O
  O6       1.0000 0.00870  0.83960  0.15540  Biso   1.000  O
  O7       1.0000 0.37230  0.91990  0.08090  Biso   1.000  O
  O8       1.0000 0.62770  0.08010  0.91910  Biso   1.000  O
  C11      1.0000 0.75410  0.15390  0.84540  Biso   1.000  C
  C12      1.0000 0.24590  0.84610  0.15460  Biso   1.000  C
  C13      1.0000 0.60520  0.23780  0.74870  Biso   1.000  C
  C14      1.0000 0.39480  0.76220  0.25130  Biso   1.000  C
  C15      1.0000 0.53690  0.16500  0.64420  Biso   1.000  C
  C16      1.0000 0.46310  0.83500  0.35580  Biso   1.000  C
  C17      1.0000 0.75350  0.09220  0.59170  Biso   1.000  C
  C18      1.0000 0.24650  0.90780  0.40830  Biso   1.000  C
  C19      1.0000 0.40920  0.26060  0.54770  Biso   1.000  C
  C20      1.0000 0.59080  0.73940  0.45230  Biso   1.000  C
  H1       1.0000 0.78400  0.23620  0.29210  Biso   1.000  H
  H2       1.0000 0.21600  0.76380  0.70790  Biso   1.000  H
  H3       1.0000 0.08300  0.22620  0.29820  Biso   1.000  H
  H4       1.0000 0.91700  0.77380  0.70180  Biso   1.000  H
  H5       1.0000 0.10200  0.38760  0.14040  Biso   1.000  H
  H6       1.0000 0.89800  0.61240  0.85960  Biso   1.000  H
  H7       1.0000 0.95780  0.55170  0.25040  Biso   1.000  H
  H8       1.0000 0.04220  0.44830  0.74960  Biso   1.000  H
  H9       1.0000 0.10440  0.44450  0.33350  Biso   1.000  H
  H10      1.0000 0.89560  0.55550  0.66650  Biso   1.000  H
  H11      1.0000 0.80140  0.45900  0.34040  Biso   1.000  H
  H12      1.0000 0.19860  0.54100  0.65960  Biso   1.000  H
  H13      1.0000 0.72750  0.36130  0.04870  Biso   1.000  H
  H14      1.0000 0.27250  0.63870  0.95130  Biso   1.000  H
  H15      1.0000 0.73610  0.50120  0.07030  Biso   1.000  H
  H16      1.0000 0.26390  0.49880  0.92970  Biso   1.000  H
  H17      1.0000 0.56390  0.41300  0.15730  Biso   1.000  H
  H18      1.0000 0.43610  0.58700  0.84270  Biso   1.000  H
  H19      1.0000 0.44990  0.27330  0.78580  Biso   1.000  H
  H20      1.0000 0.55010  0.72670  0.21420  Biso   1.000  H
  H21      1.0000 0.70850  0.30440  0.71520  Biso   1.000  H
  H22      1.0000 0.29150  0.69560  0.28480  Biso   1.000  H
  H23      1.0000 0.40840  0.10910  0.67600  Biso   1.000  H
  H24      1.0000 0.59160  0.89090  0.32400  Biso   1.000  H
  H25      1.0000 0.69520  0.04850  0.52890  Biso   1.000  H
  H26      1.0000 0.30480  0.95150  0.47110  Biso   1.000  H
  H27      1.0000 0.82750  0.03340  0.65440  Biso   1.000  H
  H28      1.0000 0.17250  0.96660  0.34560  Biso   1.000  H
  H29      1.0000 0.88150  0.14740  0.55750  Biso   1.000  H
  H30      1.0000 0.11850  0.85260  0.44250  Biso   1.000  H
  H31      1.0000 0.36160  0.21950  0.48080  Biso   1.000  H
  H32      1.0000 0.63840  0.78050  0.51920  Biso   1.000  H
  H33      1.0000 0.53230  0.32040  0.51890  Biso   1.000  H
  H34      1.0000 0.46770  0.67960  0.48110  Biso   1.000  H
  H35      1.0000 0.25820  0.30240  0.58230  Biso   1.000  H
  H36      1.0000 0.74180  0.69760  0.41770  Biso   1.000  H
