data_image0
_cell_length_a       5.179
_cell_length_b       10.548
_cell_length_c       12.355
_cell_angle_alpha    101.64
_cell_angle_beta     97.76
_cell_angle_gamma    96.71

_symmetry_space_group_name_H-M    "P 1"
_symmetry_int_tables_number       1

loop_
  _symmetry_equiv_pos_as_xyz
  'x, y, z'

loop_
  _atom_site_label
  _atom_site_occupancy
  _atom_site_fract_x
  _atom_site_fract_y
  _atom_site_fract_z
  _atom_site_thermal_displace_type
  _atom_site_B_iso_or_equiv
  _atom_site_type_symbol
  Cu1      1.0000 0.22460  0.56020  0.98990  Biso   1.000  Cu
  Cu2      1.0000 0.77540  0.43980  0.01010  Biso   1.000  Cu
  O1       1.0000 0.26300  0.63100  0.14800  Biso   1.000  O
  O2       1.0000 0.73700  0.36900  0.85200  Biso   1.000  O
  O3       1.0000 0.11700  0.47400  0.83800  Biso   1.000  O
  O4       1.0000 0.88300  0.52600  0.16200  Biso   1.000  O
  O5       1.0000 0.34700  0.39600  0.02100  Biso   1.000  O
  O6       1.0000 0.65300  0.60400  0.97900  Biso   1.000  O
  O7       1.0000 0.03600  0.70300  0.96300  Biso   1.000  O
  O8       1.0000 0.96400  0.29700  0.03700  Biso   1.000  O
  C1       1.0000 0.09000  0.60600  0.20800  Biso   1.000  C
  C2       1.0000 0.91000  0.39400  0.79200  Biso   1.000  C
  C3       1.0000 0.14700  0.67500  0.33200  Biso   1.000  C
  C4       1.0000 0.85300  0.32500  0.66800  Biso   1.000  C
  C5       1.0000 0.96000  0.71700  0.36700  Biso   1.000  C
  C6       1.0000 0.04000  0.28300  0.63300  Biso   1.000  C
  C7       1.0000 0.90800  0.82900  0.30600  Biso   1.000  C
  C8       1.0000 0.09200  0.17100  0.69400  Biso   1.000  C
  C9       1.0000 0.02000  0.76700  0.49000  Biso   1.000  C
  C10      1.0000 0.98000  0.23300  0.51000  Biso   1.000  C
  C11      1.0000 0.21300  0.29800  0.04200  Biso   1.000  C
  C12      1.0000 0.78700  0.70200  0.95800  Biso   1.000  C
  C13      1.0000 0.33400  0.18000  0.07300  Biso   1.000  C
  C14      1.0000 0.66600  0.82000  0.92700  Biso   1.000  C
  C15      1.0000 0.31300  0.19000  0.20100  Biso   1.000  C
  C16      1.0000 0.68700  0.81000  0.79900  Biso   1.000  C
  C17      1.0000 0.43800  0.04600  0.19700  Biso   1.000  C
  C18      1.0000 0.56200  0.95400  0.80300  Biso   1.000  C
  C19      1.0000 0.45000  0.29000  0.26600  Biso   1.000  C
  C20      1.0000 0.55000  0.71000  0.73400  Biso   1.000  C
