data_image0
_cell_length_a       7.4795
_cell_length_b       11.4662
_cell_length_c       23.901
_cell_angle_alpha    90
_cell_angle_beta     98.773
_cell_angle_gamma    90

_symmetry_space_group_name_H-M    "P 1"
_symmetry_int_tables_number       1

loop_
  _symmetry_equiv_pos_as_xyz
  'x, y, z'

loop_
  _atom_site_label
  _atom_site_occupancy
  _atom_site_fract_x
  _atom_site_fract_y
  _atom_site_fract_z
  _atom_site_thermal_displace_type
  _atom_site_B_iso_or_equiv
  _atom_site_type_symbol
  Cu1      1.0000 0.11144  0.42469  0.83089  Biso   1.000  Cu
  Cu2      1.0000 0.88856  0.92469  0.16911  Biso   1.000  Cu
  O1       1.0000 0.14800  0.45490  0.75570  Biso   1.000  O
  O2       1.0000 0.85200  0.95490  0.24430  Biso   1.000  O
  O3       1.0000 0.59060  0.60390  0.85850  Biso   1.000  O
  O4       1.0000 0.40940  0.10390  0.14150  Biso   1.000  O
  O5       1.0000 0.91280  0.86680  0.09260  Biso   1.000  O
  O6       1.0000 0.08720  0.36680  0.90740  Biso   1.000  O
  O7       1.0000 0.79440  0.72090  0.13540  Biso   1.000  O
  O8       1.0000 0.20560  0.22090  0.86460  Biso   1.000  O
  N1       1.0000 0.34110  0.50620  0.85880  Biso   1.000  N
  N2       1.0000 0.65890  0.00620  0.14120  Biso   1.000  N
  N3       1.0000 0.43320  0.50650  0.91480  Biso   1.000  N
  N4       1.0000 0.56680  0.00650  0.08520  Biso   1.000  N
  N5       1.0000 0.85150  0.37910  0.80170  Biso   1.000  N
  N6       1.0000 0.14850  0.87910  0.19830  Biso   1.000  N
  C1       1.0000 0.26070  0.52190  0.73480  Biso   1.000  C
  C2       1.0000 0.73930  0.02190  0.26520  Biso   1.000  C
  C3       1.0000 0.23920  0.53940  0.67550  Biso   1.000  C
  C4       1.0000 0.76080  0.03940  0.32450  Biso   1.000  C
  H1       1.0000 0.14170  0.50380  0.65140  Biso   1.000  H
  H2       1.0000 0.85830  0.00380  0.34860  Biso   1.000  H
  C5       1.0000 0.36170  0.60890  0.65310  Biso   1.000  C
  C6       1.0000 0.63830  0.10890  0.34690  Biso   1.000  C
  H3       1.0000 0.34760  0.61730  0.61320  Biso   1.000  H
  H4       1.0000 0.65240  0.11730  0.38680  Biso   1.000  H
  C7       1.0000 0.50310  0.66670  0.68530  Biso   1.000  C
  C8       1.0000 0.49690  0.16670  0.31470  Biso   1.000  C
  H5       1.0000 0.58150  0.71610  0.66830  Biso   1.000  H
  H6       1.0000 0.41850  0.21610  0.33170  Biso   1.000  H
  C9       1.0000 0.52590  0.65020  0.74230  Biso   1.000  C
  C10      1.0000 0.47410  0.15020  0.25770  Biso   1.000  C
  H7       1.0000 0.62250  0.68850  0.76560  Biso   1.000  H
  H8       1.0000 0.37750  0.18850  0.23440  Biso   1.000  H
  C11      1.0000 0.41050  0.57820  0.76740  Biso   1.000  C
  C12      1.0000 0.58950  0.07820  0.23260  Biso   1.000  C
  C13      1.0000 0.44240  0.56150  0.82660  Biso   1.000  C
  C14      1.0000 0.55760  0.06150  0.17340  Biso   1.000  C
  C15      1.0000 0.57810  0.56660  0.91300  Biso   1.000  C
  C16      1.0000 0.42190  0.06660  0.08700  Biso   1.000  C
  C17      1.0000 0.73360  0.59130  0.95830  Biso   1.000  C
  C18      1.0000 0.26640  0.09130  0.04170  Biso   1.000  C
  H9       1.0000 0.79270  0.51420  0.96820  Biso   1.000  H
  H10      1.0000 0.20730  0.01420  0.03180  Biso   1.000  H
  C19      1.0000 0.87700  0.66780  0.94400  Biso   1.000  C
  C20      1.0000 0.12300  0.16780  0.05600  Biso   1.000  C
  H11      1.0000 0.82840  0.71990  0.91220  Biso   1.000  H
  H12      1.0000 0.17160  0.21990  0.08780  Biso   1.000  H
  H13      1.0000 0.97600  0.62070  0.93240  Biso   1.000  H
  H14      1.0000 0.02400  0.12070  0.06760  Biso   1.000  H
  C21      1.0000 0.55420  0.73940  0.00220  Biso   1.000  C
  C22      1.0000 0.44580  0.23940  0.99780  Biso   1.000  C
  H15      1.0000 0.43510  0.71060  0.98500  Biso   1.000  H
  H16      1.0000 0.56490  0.21060  0.01500  Biso   1.000  H
  H17      1.0000 0.60060  0.79340  0.97600  Biso   1.000  H
  H18      1.0000 0.39940  0.29340  0.02400  Biso   1.000  H
  H19      1.0000 0.54340  0.78000  0.03760  Biso   1.000  H
  H20      1.0000 0.45660  0.28000  0.96240  Biso   1.000  H
  C23      1.0000 0.59670  0.54430  0.04620  Biso   1.000  C
  C24      1.0000 0.40330  0.04430  0.95380  Biso   1.000  C
  H21      1.0000 0.47790  0.52340  0.02540  Biso   1.000  H
  H22      1.0000 0.52210  0.02340  0.97460  Biso   1.000  H
  H23      1.0000 0.58250  0.57300  0.08390  Biso   1.000  H
  H24      1.0000 0.41750  0.07300  0.91610  Biso   1.000  H
  H25      1.0000 0.67520  0.47550  0.05000  Biso   1.000  H
  H26      1.0000 0.32480  0.97550  0.95000  Biso   1.000  H
  C25      1.0000 0.68120  0.63930  0.01420  Biso   1.000  C
  C26      1.0000 0.31880  0.13930  0.98580  Biso   1.000  C
  C27      1.0000 0.86850  0.68570  0.04370  Biso   1.000  C
  C28      1.0000 0.13150  0.18570  0.95630  Biso   1.000  C
  C29      1.0000 0.94980  0.74160  0.99780  Biso   1.000  C
  C30      1.0000 0.05020  0.24160  0.00220  Biso   1.000  C
  H27      1.0000 0.08350  0.73880  0.00590  Biso   1.000  H
  H28      1.0000 0.91650  0.23880  0.99410  Biso   1.000  H
  H29      1.0000 0.91090  0.82400  0.99270  Biso   1.000  H
  H30      1.0000 0.08910  0.32400  0.00730  Biso   1.000  H
  C31      1.0000 0.99270  0.57760  0.06690  Biso   1.000  C
  C32      1.0000 0.00730  0.07760  0.93310  Biso   1.000  C
  H31      1.0000 0.11220  0.60590  0.08410  Biso   1.000  H
  H32      1.0000 0.88780  0.10590  0.91590  Biso   1.000  H
  H33      1.0000 0.00590  0.52490  0.03550  Biso   1.000  H
  H34      1.0000 0.99410  0.02490  0.96450  Biso   1.000  H
  H35      1.0000 0.93630  0.53560  0.09540  Biso   1.000  H
  H36      1.0000 0.06370  0.03560  0.90460  Biso   1.000  H
  C33      1.0000 0.85510  0.76320  0.09440  Biso   1.000  C
  C34      1.0000 0.14490  0.26320  0.90560  Biso   1.000  C
  C35      1.0000 0.74040  0.33330  0.83510  Biso   1.000  C
  C36      1.0000 0.25960  0.83330  0.16490  Biso   1.000  C
  H37      1.0000 0.78010  0.33290  0.87470  Biso   1.000  H
  H38      1.0000 0.21990  0.83290  0.12530  Biso   1.000  H
  C37      1.0000 0.57800  0.28860  0.81610  Biso   1.000  C
  C38      1.0000 0.42200  0.78860  0.18390  Biso   1.000  C
  H39      1.0000 0.50540  0.25760  0.84180  Biso   1.000  H
  H40      1.0000 0.49460  0.75760  0.15820  Biso   1.000  H
  C39      1.0000 0.51830  0.28780  0.76040  Biso   1.000  C
  C40      1.0000 0.48170  0.78780  0.23960  Biso   1.000  C
  H41      1.0000 0.40250  0.25680  0.74610  Biso   1.000  H
  H42      1.0000 0.59750  0.75680  0.25390  Biso   1.000  H
  C41      1.0000 0.62760  0.33270  0.72410  Biso   1.000  C
  C42      1.0000 0.37240  0.83270  0.27590  Biso   1.000  C
  H43      1.0000 0.59060  0.33130  0.68430  Biso   1.000  H
  H44      1.0000 0.40940  0.83130  0.31570  Biso   1.000  H
  C43      1.0000 0.78870  0.37870  0.74670  Biso   1.000  C
  C44      1.0000 0.21130  0.87870  0.25330  Biso   1.000  C
  H45      1.0000 0.86140  0.41270  0.72170  Biso   1.000  H
  H46      1.0000 0.13860  0.91270  0.27830  Biso   1.000  H
  Cu3      1.0000 0.42026  0.97719  0.66159  Biso   1.000  Cu
  Cu4      1.0000 0.57974  0.47719  0.33841  Biso   1.000  Cu
  O9       1.0000 0.38930  0.94350  0.73770  Biso   1.000  O
  O10      1.0000 0.61070  0.44350  0.26230  Biso   1.000  O
  O11      1.0000 0.93620  0.80250  0.63540  Biso   1.000  O
  O12      1.0000 0.06380  0.30250  0.36460  Biso   1.000  O
  O13      1.0000 0.56300  0.54230  0.41490  Biso   1.000  O
  O14      1.0000 0.43700  0.04230  0.58510  Biso   1.000  O
  O15      1.0000 0.67180  0.67440  0.36280  Biso   1.000  O
  O16      1.0000 0.32820  0.17440  0.63720  Biso   1.000  O
  N7       1.0000 0.19380  0.89510  0.63460  Biso   1.000  N
  N8       1.0000 0.80620  0.39510  0.36540  Biso   1.000  N
  N9       1.0000 0.09920  0.89660  0.57940  Biso   1.000  N
  N10      1.0000 0.90080  0.39660  0.42060  Biso   1.000  N
  N11      1.0000 0.68010  0.02550  0.69090  Biso   1.000  N
  N12      1.0000 0.31990  0.52550  0.30910  Biso   1.000  N
  C45      1.0000 0.27420  0.87730  0.75900  Biso   1.000  C
  C46      1.0000 0.72580  0.37730  0.24100  Biso   1.000  C
  C47      1.0000 0.29430  0.86110  0.81900  Biso   1.000  C
  C48      1.0000 0.70570  0.36110  0.18100  Biso   1.000  C
  H47      1.0000 0.39090  0.89900  0.84240  Biso   1.000  H
  H48      1.0000 0.60910  0.39900  0.15760  Biso   1.000  H
  C49      1.0000 0.17990  0.79350  0.84310  Biso   1.000  C
  C50      1.0000 0.82010  0.29350  0.15690  Biso   1.000  C
  H49      1.0000 0.19840  0.78410  0.88310  Biso   1.000  H
  H50      1.0000 0.80160  0.28410  0.11690  Biso   1.000  H
  C51      1.0000 0.03620  0.73770  0.81080  Biso   1.000  C
  C52      1.0000 0.96380  0.23770  0.18920  Biso   1.000  C
  H51      1.0000 0.95640  0.69040  0.82830  Biso   1.000  H
  H52      1.0000 0.04360  0.19040  0.17170  Biso   1.000  H
  C53      1.0000 0.01030  0.75120  0.75390  Biso   1.000  C
  C54      1.0000 0.98970  0.25120  0.24610  Biso   1.000  C
  H53      1.0000 0.91040  0.71350  0.73190  Biso   1.000  H
  H54      1.0000 0.08960  0.21350  0.26810  Biso   1.000  H
  C55      1.0000 0.12650  0.81920  0.72640  Biso   1.000  C
  C56      1.0000 0.87350  0.31920  0.27360  Biso   1.000  C
  C57      1.0000 0.09580  0.84000  0.66650  Biso   1.000  C
  C58      1.0000 0.90420  0.34000  0.33350  Biso   1.000  C
  C59      1.0000 0.94920  0.84450  0.58210  Biso   1.000  C
  C60      1.0000 0.05080  0.34450  0.41790  Biso   1.000  C
  C61      1.0000 0.78850  0.82630  0.53870  Biso   1.000  C
  C62      1.0000 0.21150  0.32630  0.46130  Biso   1.000  C
  H55      1.0000 0.68000  0.83180  0.55840  Biso   1.000  H
  H56      1.0000 0.32000  0.33180  0.44160  Biso   1.000  H
  C63      1.0000 0.76330  0.91550  0.49140  Biso   1.000  C
  C64      1.0000 0.23670  0.41550  0.50860  Biso   1.000  C
  H57      1.0000 0.69390  0.98320  0.50220  Biso   1.000  H
  H58      1.0000 0.30610  0.48320  0.49780  Biso   1.000  H
  H59      1.0000 0.88240  0.94350  0.48370  Biso   1.000  H
  H60      1.0000 0.11760  0.44350  0.51630  Biso   1.000  H
  C65      1.0000 0.77620  0.70590  0.50670  Biso   1.000  C
  C66      1.0000 0.22380  0.20590  0.49330  Biso   1.000  C
  C67      1.0000 0.95340  0.68360  0.48390  Biso   1.000  C
  C68      1.0000 0.04660  0.18360  0.51610  Biso   1.000  C
  H61      1.0000 0.97870  0.74920  0.46000  Biso   1.000  H
  H62      1.0000 0.02130  0.24920  0.54000  Biso   1.000  H
  H63      1.0000 0.94270  0.61170  0.46140  Biso   1.000  H
  H64      1.0000 0.05730  0.11170  0.53860  Biso   1.000  H
  H65      1.0000 0.05230  0.67550  0.51560  Biso   1.000  H
  H66      1.0000 0.94770  0.17550  0.48440  Biso   1.000  H
  C69      1.0000 0.74030  0.60270  0.54450  Biso   1.000  C
  C70      1.0000 0.25970  0.10270  0.45550  Biso   1.000  C
  H67      1.0000 0.84400  0.59240  0.57450  Biso   1.000  H
  H68      1.0000 0.15600  0.09240  0.42550  Biso   1.000  H
  H69      1.0000 0.72240  0.53160  0.52160  Biso   1.000  H
  H70      1.0000 0.27760  0.03160  0.47840  Biso   1.000  H
  H71      1.0000 0.63150  0.61840  0.56150  Biso   1.000  H
  H72      1.0000 0.36850  0.11840  0.43850  Biso   1.000  H
  C71      1.0000 0.66210  0.85710  0.43960  Biso   1.000  C
  C72      1.0000 0.33790  0.35710  0.56040  Biso   1.000  C
  H73      1.0000 0.73730  0.85520  0.40900  Biso   1.000  H
  H74      1.0000 0.26270  0.35520  0.59100  Biso   1.000  H
  H75      1.0000 0.54920  0.90020  0.42590  Biso   1.000  H
  H76      1.0000 0.45080  0.40020  0.57410  Biso   1.000  H
  C73      1.0000 0.43200  0.73200  0.47440  Biso   1.000  C
  C74      1.0000 0.56800  0.23200  0.52560  Biso   1.000  C
  H77      1.0000 0.34020  0.74960  0.44170  Biso   1.000  H
  H78      1.0000 0.65980  0.24960  0.55830  Biso   1.000  H
  H79      1.0000 0.42600  0.79020  0.50410  Biso   1.000  H
  H80      1.0000 0.57400  0.29020  0.49590  Biso   1.000  H
  H81      1.0000 0.40960  0.65430  0.48890  Biso   1.000  H
  H82      1.0000 0.59040  0.15430  0.51110  Biso   1.000  H
  C75      1.0000 0.61900  0.73490  0.45650  Biso   1.000  C
  C76      1.0000 0.38100  0.23490  0.54350  Biso   1.000  C
  C77      1.0000 0.62330  0.64440  0.40780  Biso   1.000  C
  C78      1.0000 0.37670  0.14440  0.59220  Biso   1.000  C
  C79      1.0000 0.74550  0.02380  0.74730  Biso   1.000  C
  C80      1.0000 0.25450  0.52380  0.25270  Biso   1.000  C
  H83      1.0000 0.67500  0.98860  0.77260  Biso   1.000  H
  H84      1.0000 0.32500  0.48860  0.22740  Biso   1.000  H
  C81      1.0000 0.91040  0.07160  0.76890  Biso   1.000  C
  C82      1.0000 0.08960  0.57160  0.23110  Biso   1.000  C
  H85      1.0000 0.95180  0.06910  0.80840  Biso   1.000  H
  H86      1.0000 0.04820  0.56910  0.19160  Biso   1.000  H
  C83      1.0000 0.01180  0.12100  0.73460  Biso   1.000  C
  C84      1.0000 0.98820  0.62100  0.26540  Biso   1.000  C
  H87      1.0000 0.12330  0.15680  0.74960  Biso   1.000  H
  H88      1.0000 0.87670  0.65680  0.25040  Biso   1.000  H
  C85      1.0000 0.95470  0.12000  0.67760  Biso   1.000  C
  C86      1.0000 0.04530  0.62000  0.32240  Biso   1.000  C
  H89      1.0000 0.02640  0.15370  0.65230  Biso   1.000  H
  H90      1.0000 0.97360  0.65370  0.34770  Biso   1.000  H
  C87      1.0000 0.78620  0.06750  0.65720  Biso   1.000  C
  C88      1.0000 0.21380  0.56750  0.34280  Biso   1.000  C
  H91      1.0000 0.74880  0.06270  0.61740  Biso   1.000  H
  H92      1.0000 0.25120  0.56270  0.38260  Biso   1.000  H
