data_image0
_cell_length_a       13.458
_cell_length_b       13.046
_cell_length_c       13.826
_cell_angle_alpha    90
_cell_angle_beta     96.922
_cell_angle_gamma    90

_symmetry_space_group_name_H-M    "P 1"
_symmetry_int_tables_number       1

loop_
  _symmetry_equiv_pos_as_xyz
  'x, y, z'

loop_
  _atom_site_label
  _atom_site_occupancy
  _atom_site_fract_x
  _atom_site_fract_y
  _atom_site_fract_z
  _atom_site_thermal_displace_type
  _atom_site_B_iso_or_equiv
  _atom_site_type_symbol
  Cu1      1.0000 0.98031  0.43885  0.92210  Biso   1.000  Cu
  Cu2      1.0000 0.51969  0.93885  0.07790  Biso   1.000  Cu
  Cu3      1.0000 0.01969  0.56115  0.07790  Biso   1.000  Cu
  Cu4      1.0000 0.48031  0.06115  0.92210  Biso   1.000  Cu
  N1       1.0000 0.89210  0.41190  0.53840  Biso   1.000  N
  N2       1.0000 0.60790  0.91190  0.46160  Biso   1.000  N
  N3       1.0000 0.10790  0.58810  0.46160  Biso   1.000  N
  N4       1.0000 0.39210  0.08810  0.53840  Biso   1.000  N
  C1       1.0000 0.88160  0.31600  0.50540  Biso   1.000  C
  C2       1.0000 0.61840  0.81600  0.49460  Biso   1.000  C
  C3       1.0000 0.11840  0.68400  0.49460  Biso   1.000  C
  C4       1.0000 0.38160  0.18400  0.50540  Biso   1.000  C
  H1       1.0000 0.86890  0.30810  0.43820  Biso   1.000  H
  H2       1.0000 0.63110  0.80810  0.56180  Biso   1.000  H
  H3       1.0000 0.13110  0.69190  0.56180  Biso   1.000  H
  H4       1.0000 0.36890  0.19190  0.43820  Biso   1.000  H
  N5       1.0000 0.88750  0.22940  0.55880  Biso   1.000  N
  N6       1.0000 0.61250  0.72940  0.44120  Biso   1.000  N
  N7       1.0000 0.11250  0.77060  0.44120  Biso   1.000  N
  N8       1.0000 0.38750  0.27060  0.55880  Biso   1.000  N
  C5       1.0000 0.90630  0.24940  0.65450  Biso   1.000  C
  C6       1.0000 0.59370  0.74940  0.34550  Biso   1.000  C
  C7       1.0000 0.09370  0.75060  0.34550  Biso   1.000  C
  C8       1.0000 0.40630  0.25060  0.65450  Biso   1.000  C
  C9       1.0000 0.92150  0.34500  0.70040  Biso   1.000  C
  C10      1.0000 0.57850  0.84500  0.29960  Biso   1.000  C
  C11      1.0000 0.07850  0.65500  0.29960  Biso   1.000  C
  C12      1.0000 0.42150  0.15500  0.70040  Biso   1.000  C
  C13      1.0000 0.91210  0.42920  0.63410  Biso   1.000  C
  C14      1.0000 0.58790  0.92920  0.36590  Biso   1.000  C
  C15      1.0000 0.08790  0.57080  0.36590  Biso   1.000  C
  C16      1.0000 0.41210  0.07080  0.63410  Biso   1.000  C
  N9       1.0000 0.91780  0.52600  0.66930  Biso   1.000  N
  N10      1.0000 0.58220  0.02600  0.33070  Biso   1.000  N
  N11      1.0000 0.08220  0.47400  0.33070  Biso   1.000  N
  N12      1.0000 0.41780  0.97400  0.66930  Biso   1.000  N
  H5       1.0000 0.90860  0.57720  0.63010  Biso   1.000  H
  H6       1.0000 0.59140  0.07720  0.36990  Biso   1.000  H
  H7       1.0000 0.09140  0.42280  0.36990  Biso   1.000  H
  H8       1.0000 0.40860  0.92280  0.63010  Biso   1.000  H
  H9       1.0000 0.93070  0.53640  0.73100  Biso   1.000  H
  H10      1.0000 0.56930  0.03640  0.26900  Biso   1.000  H
  H11      1.0000 0.06930  0.46360  0.26900  Biso   1.000  H
  H12      1.0000 0.43070  0.96360  0.73100  Biso   1.000  H
  N13      1.0000 0.94160  0.33780  0.79950  Biso   1.000  N
  N14      1.0000 0.55840  0.83780  0.20050  Biso   1.000  N
  N15      1.0000 0.05840  0.66220  0.20050  Biso   1.000  N
  N16      1.0000 0.44160  0.16220  0.79950  Biso   1.000  N
  C17      1.0000 0.93700  0.23540  0.81600  Biso   1.000  C
  C18      1.0000 0.56300  0.73540  0.18400  Biso   1.000  C
  C19      1.0000 0.06300  0.76460  0.18400  Biso   1.000  C
  C20      1.0000 0.43700  0.26460  0.81600  Biso   1.000  C
  H13      1.0000 0.94600  0.20630  0.87790  Biso   1.000  H
  H14      1.0000 0.55400  0.70630  0.12210  Biso   1.000  H
  H15      1.0000 0.05400  0.79370  0.12210  Biso   1.000  H
  H16      1.0000 0.44600  0.29370  0.87790  Biso   1.000  H
  N17      1.0000 0.91780  0.17980  0.73250  Biso   1.000  N
  N18      1.0000 0.58220  0.67980  0.26750  Biso   1.000  N
  N19      1.0000 0.08220  0.82020  0.26750  Biso   1.000  N
  N20      1.0000 0.41780  0.32020  0.73250  Biso   1.000  N
  C21      1.0000 0.90670  0.06990  0.72570  Biso   1.000  C
  C22      1.0000 0.59330  0.56990  0.27430  Biso   1.000  C
  C23      1.0000 0.09330  0.93010  0.27430  Biso   1.000  C
  C24      1.0000 0.40670  0.43010  0.72570  Biso   1.000  C
  H17      1.0000 0.91410  0.04080  0.79000  Biso   1.000  H
  H18      1.0000 0.58590  0.54080  0.21000  Biso   1.000  H
  H19      1.0000 0.08590  0.95920  0.21000  Biso   1.000  H
  H20      1.0000 0.41410  0.45920  0.79000  Biso   1.000  H
  H21      1.0000 0.95690  0.04220  0.68940  Biso   1.000  H
  H22      1.0000 0.54310  0.54220  0.31060  Biso   1.000  H
  H23      1.0000 0.04310  0.95780  0.31060  Biso   1.000  H
  H24      1.0000 0.45690  0.45780  0.68940  Biso   1.000  H
  H25      1.0000 0.84150  0.05350  0.69320  Biso   1.000  H
  H26      1.0000 0.65850  0.55350  0.30680  Biso   1.000  H
  H27      1.0000 0.15850  0.94650  0.30680  Biso   1.000  H
  H28      1.0000 0.34150  0.44650  0.69320  Biso   1.000  H
  C25      1.0000 0.16580  0.27130  0.13350  Biso   1.000  C
  C26      1.0000 0.33420  0.77130  0.86650  Biso   1.000  C
  C27      1.0000 0.83420  0.72870  0.86650  Biso   1.000  C
  C28      1.0000 0.66580  0.22870  0.13350  Biso   1.000  C
  C29      1.0000 0.15570  0.25110  0.23220  Biso   1.000  C
  C30      1.0000 0.34430  0.75110  0.76780  Biso   1.000  C
  C31      1.0000 0.84430  0.74890  0.76780  Biso   1.000  C
  C32      1.0000 0.65570  0.24890  0.23220  Biso   1.000  C
  H29      1.0000 0.11440  0.29100  0.26620  Biso   1.000  H
  H30      1.0000 0.38560  0.79100  0.73380  Biso   1.000  H
  H31      1.0000 0.88560  0.70900  0.73380  Biso   1.000  H
  H32      1.0000 0.61440  0.20900  0.26620  Biso   1.000  H
  C33      1.0000 0.21010  0.16890  0.27700  Biso   1.000  C
  C34      1.0000 0.28990  0.66890  0.72300  Biso   1.000  C
  C35      1.0000 0.78990  0.83110  0.72300  Biso   1.000  C
  C36      1.0000 0.71010  0.33110  0.27700  Biso   1.000  C
  H33      1.0000 0.20180  0.15060  0.34050  Biso   1.000  H
  H34      1.0000 0.29820  0.65060  0.65950  Biso   1.000  H
  H35      1.0000 0.79820  0.84940  0.65950  Biso   1.000  H
  H36      1.0000 0.70180  0.34940  0.34050  Biso   1.000  H
  C37      1.0000 0.27580  0.11500  0.22730  Biso   1.000  C
  C38      1.0000 0.22420  0.61500  0.77270  Biso   1.000  C
  C39      1.0000 0.72420  0.88500  0.77270  Biso   1.000  C
  C40      1.0000 0.77580  0.38500  0.22730  Biso   1.000  C
  H37      1.0000 0.31310  0.06210  0.25860  Biso   1.000  H
  H38      1.0000 0.18690  0.56210  0.74140  Biso   1.000  H
  H39      1.0000 0.68690  0.93790  0.74140  Biso   1.000  H
  H40      1.0000 0.81310  0.43790  0.25860  Biso   1.000  H
  C41      1.0000 0.28720  0.13760  0.13340  Biso   1.000  C
  C42      1.0000 0.21280  0.63760  0.86660  Biso   1.000  C
  C43      1.0000 0.71280  0.86240  0.86660  Biso   1.000  C
  C44      1.0000 0.78720  0.36240  0.13340  Biso   1.000  C
  C45      1.0000 0.23010  0.21640  0.08620  Biso   1.000  C
  C46      1.0000 0.26990  0.71640  0.91380  Biso   1.000  C
  C47      1.0000 0.76990  0.78360  0.91380  Biso   1.000  C
  C48      1.0000 0.73010  0.28360  0.08620  Biso   1.000  C
  H41      1.0000 0.23640  0.23120  0.02150  Biso   1.000  H
  H42      1.0000 0.26360  0.73120  0.97850  Biso   1.000  H
  H43      1.0000 0.76360  0.76880  0.97850  Biso   1.000  H
  H44      1.0000 0.73640  0.26880  0.02150  Biso   1.000  H
  C49      1.0000 0.10540  0.35840  0.07990  Biso   1.000  C
  C50      1.0000 0.39460  0.85840  0.92010  Biso   1.000  C
  C51      1.0000 0.89460  0.64160  0.92010  Biso   1.000  C
  C52      1.0000 0.60540  0.14160  0.07990  Biso   1.000  C
  O1       1.0000 0.07280  0.34140  0.99190  Biso   1.000  O
  O2       1.0000 0.42720  0.84140  0.00810  Biso   1.000  O
  O3       1.0000 0.92720  0.65860  0.00810  Biso   1.000  O
  O4       1.0000 0.57280  0.15860  0.99190  Biso   1.000  O
  O5       1.0000 0.09920  0.44090  0.12750  Biso   1.000  O
  O6       1.0000 0.40080  0.94090  0.87250  Biso   1.000  O
  O7       1.0000 0.90080  0.55910  0.87250  Biso   1.000  O
  O8       1.0000 0.59920  0.05910  0.12750  Biso   1.000  O
  C53      1.0000 0.36300  0.07930  0.08140  Biso   1.000  C
  C54      1.0000 0.13700  0.57930  0.91860  Biso   1.000  C
  C55      1.0000 0.63700  0.92070  0.91860  Biso   1.000  C
  C56      1.0000 0.86300  0.42070  0.08140  Biso   1.000  C
  O9       1.0000 0.40640  0.00500  0.12750  Biso   1.000  O
  O10      1.0000 0.09360  0.50500  0.87250  Biso   1.000  O
  O11      1.0000 0.59360  0.99500  0.87250  Biso   1.000  O
  O12      1.0000 0.90640  0.49500  0.12750  Biso   1.000  O
  O13      1.0000 0.37430  0.10730  0.99840  Biso   1.000  O
  O14      1.0000 0.12570  0.60730  0.00160  Biso   1.000  O
  O15      1.0000 0.62570  0.89270  0.00160  Biso   1.000  O
  O16      1.0000 0.87430  0.39270  0.99840  Biso   1.000  O
  C57      1.0000 0.15290  0.25400  0.62950  Biso   1.000  C
  C58      1.0000 0.34710  0.75400  0.37050  Biso   1.000  C
  C59      1.0000 0.84710  0.74600  0.37050  Biso   1.000  C
  C60      1.0000 0.65290  0.24600  0.62950  Biso   1.000  C
  C61      1.0000 0.17050  0.26990  0.72780  Biso   1.000  C
  C62      1.0000 0.32950  0.76990  0.27220  Biso   1.000  C
  C63      1.0000 0.82950  0.73010  0.27220  Biso   1.000  C
  C64      1.0000 0.67050  0.23010  0.72780  Biso   1.000  C
  H45      1.0000 0.17240  0.33590  0.75330  Biso   1.000  H
  H46      1.0000 0.32760  0.83590  0.24670  Biso   1.000  H
  H47      1.0000 0.82760  0.66410  0.24670  Biso   1.000  H
  H48      1.0000 0.67240  0.16410  0.75330  Biso   1.000  H
  C65      1.0000 0.18500  0.18660  0.78770  Biso   1.000  C
  C66      1.0000 0.31500  0.68660  0.21230  Biso   1.000  C
  C67      1.0000 0.81500  0.81340  0.21230  Biso   1.000  C
  C68      1.0000 0.68500  0.31340  0.78770  Biso   1.000  C
  H49      1.0000 0.19980  0.19620  0.85460  Biso   1.000  H
  H50      1.0000 0.30020  0.69620  0.14540  Biso   1.000  H
  H51      1.0000 0.80020  0.80380  0.14540  Biso   1.000  H
  H52      1.0000 0.69980  0.30380  0.85460  Biso   1.000  H
  C69      1.0000 0.17780  0.08540  0.74950  Biso   1.000  C
  C70      1.0000 0.32220  0.58540  0.25050  Biso   1.000  C
  C71      1.0000 0.82220  0.91460  0.25050  Biso   1.000  C
  C72      1.0000 0.67780  0.41460  0.74950  Biso   1.000  C
  H53      1.0000 0.18720  0.02920  0.79100  Biso   1.000  H
  H54      1.0000 0.31280  0.52920  0.20900  Biso   1.000  H
  H55      1.0000 0.81280  0.97080  0.20900  Biso   1.000  H
  H56      1.0000 0.68720  0.47080  0.79100  Biso   1.000  H
  C73      1.0000 0.15750  0.07150  0.65300  Biso   1.000  C
  C74      1.0000 0.34250  0.57150  0.34700  Biso   1.000  C
  C75      1.0000 0.84250  0.92850  0.34700  Biso   1.000  C
  C76      1.0000 0.65750  0.42850  0.65300  Biso   1.000  C
  C77      1.0000 0.14520  0.15200  0.59030  Biso   1.000  C
  C78      1.0000 0.35480  0.65200  0.40970  Biso   1.000  C
  C79      1.0000 0.85480  0.84800  0.40970  Biso   1.000  C
  C80      1.0000 0.64520  0.34800  0.59030  Biso   1.000  C
  H57      1.0000 0.13210  0.14120  0.52350  Biso   1.000  H
  H58      1.0000 0.36790  0.64120  0.47650  Biso   1.000  H
  H59      1.0000 0.86790  0.85880  0.47650  Biso   1.000  H
  H60      1.0000 0.63210  0.35880  0.52350  Biso   1.000  H
  C81      1.0000 0.13760  0.33670  0.55680  Biso   1.000  C
  C82      1.0000 0.36240  0.83670  0.44320  Biso   1.000  C
  C83      1.0000 0.86240  0.66330  0.44320  Biso   1.000  C
  C84      1.0000 0.63760  0.16330  0.55680  Biso   1.000  C
  O17      1.0000 0.12110  0.32210  0.46840  Biso   1.000  O
  O18      1.0000 0.37890  0.82210  0.53160  Biso   1.000  O
  O19      1.0000 0.87890  0.67790  0.53160  Biso   1.000  O
  O20      1.0000 0.62110  0.17790  0.46840  Biso   1.000  O
  O21      1.0000 0.14530  0.43210  0.59520  Biso   1.000  O
  O22      1.0000 0.35470  0.93210  0.40480  Biso   1.000  O
  O23      1.0000 0.85470  0.56790  0.40480  Biso   1.000  O
  O24      1.0000 0.64530  0.06790  0.59520  Biso   1.000  O
  H61      1.0000 0.13600  0.47460  0.55130  Biso   1.000  H
  H62      1.0000 0.36400  0.97460  0.44870  Biso   1.000  H
  H63      1.0000 0.86400  0.52540  0.44870  Biso   1.000  H
  H64      1.0000 0.63600  0.02540  0.55130  Biso   1.000  H
  C85      1.0000 0.14930  0.96100  0.61470  Biso   1.000  C
  C86      1.0000 0.35070  0.46100  0.38530  Biso   1.000  C
  C87      1.0000 0.85070  0.03900  0.38530  Biso   1.000  C
  C88      1.0000 0.64930  0.53900  0.61470  Biso   1.000  C
  O25      1.0000 0.14140  0.88750  0.66550  Biso   1.000  O
  O26      1.0000 0.35860  0.38750  0.33450  Biso   1.000  O
  O27      1.0000 0.85860  0.11250  0.33450  Biso   1.000  O
  O28      1.0000 0.64140  0.61250  0.66550  Biso   1.000  O
  O29      1.0000 0.14290  0.95980  0.52010  Biso   1.000  O
  O30      1.0000 0.35710  0.45980  0.47990  Biso   1.000  O
  O31      1.0000 0.85710  0.04020  0.47990  Biso   1.000  O
  O32      1.0000 0.64290  0.54020  0.52010  Biso   1.000  O
  H65      1.0000 0.13820  0.90040  0.50080  Biso   1.000  H
  H66      1.0000 0.36180  0.40040  0.49920  Biso   1.000  H
  H67      1.0000 0.86180  0.09960  0.49920  Biso   1.000  H
  H68      1.0000 0.63820  0.59960  0.50080  Biso   1.000  H
