data_image0
_cell_length_a       9.289
_cell_length_b       10.21
_cell_length_c       17.241
_cell_angle_alpha    90
_cell_angle_beta     99.938
_cell_angle_gamma    90

_symmetry_space_group_name_H-M    "P 1"
_symmetry_int_tables_number       1

loop_
  _symmetry_equiv_pos_as_xyz
  'x, y, z'

loop_
  _atom_site_label
  _atom_site_occupancy
  _atom_site_fract_x
  _atom_site_fract_y
  _atom_site_fract_z
  _atom_site_thermal_displace_type
  _atom_site_B_iso_or_equiv
  _atom_site_type_symbol
  Cu1      1.0000 0.92970  0.06019  0.83656  Biso   1.000  Cu
  Cu2      1.0000 0.07030  0.56019  0.66344  Biso   1.000  Cu
  Cu3      1.0000 0.07030  0.93981  0.16344  Biso   1.000  Cu
  Cu4      1.0000 0.92970  0.43981  0.33656  Biso   1.000  Cu
  N1       1.0000 0.48590  0.86030  0.92443  Biso   1.000  N
  N2       1.0000 0.51410  0.36030  0.57557  Biso   1.000  N
  N3       1.0000 0.51410  0.13970  0.07557  Biso   1.000  N
  N4       1.0000 0.48590  0.63970  0.42443  Biso   1.000  N
  C1       1.0000 0.42590  0.76420  0.87672  Biso   1.000  C
  C2       1.0000 0.57410  0.26420  0.62328  Biso   1.000  C
  C3       1.0000 0.57410  0.23580  0.12328  Biso   1.000  C
  C4       1.0000 0.42590  0.73580  0.37672  Biso   1.000  C
  H1       1.0000 0.33980  0.72930  0.88850  Biso   1.000  H
  H2       1.0000 0.66020  0.22930  0.61150  Biso   1.000  H
  H3       1.0000 0.66020  0.27070  0.11150  Biso   1.000  H
  H4       1.0000 0.33980  0.77070  0.38850  Biso   1.000  H
  N5       1.0000 0.47230  0.71150  0.81458  Biso   1.000  N
  N6       1.0000 0.52770  0.21150  0.68542  Biso   1.000  N
  N7       1.0000 0.52770  0.28850  0.18542  Biso   1.000  N
  N8       1.0000 0.47230  0.78850  0.31458  Biso   1.000  N
  C5       1.0000 0.59670  0.76960  0.80210  Biso   1.000  C
  C6       1.0000 0.40330  0.26960  0.69790  Biso   1.000  C
  C7       1.0000 0.40330  0.23040  0.19790  Biso   1.000  C
  C8       1.0000 0.59670  0.73040  0.30210  Biso   1.000  C
  C9       1.0000 0.67080  0.87040  0.84557  Biso   1.000  C
  C10      1.0000 0.32920  0.37040  0.65443  Biso   1.000  C
  C11      1.0000 0.32920  0.12960  0.15443  Biso   1.000  C
  C12      1.0000 0.67080  0.62960  0.34557  Biso   1.000  C
  C13      1.0000 0.61280  0.91660  0.91135  Biso   1.000  C
  C14      1.0000 0.38720  0.41660  0.58865  Biso   1.000  C
  C15      1.0000 0.38720  0.08340  0.08865  Biso   1.000  C
  C16      1.0000 0.61280  0.58340  0.41135  Biso   1.000  C
  N9       1.0000 0.67260  0.01160  0.95897  Biso   1.000  N
  N10      1.0000 0.32740  0.51160  0.54103  Biso   1.000  N
  N11      1.0000 0.32740  0.98840  0.04103  Biso   1.000  N
  N12      1.0000 0.67260  0.48840  0.45897  Biso   1.000  N
  H5       1.0000 0.63130  0.03690  0.99740  Biso   1.000  H
  H6       1.0000 0.36870  0.53690  0.50260  Biso   1.000  H
  H7       1.0000 0.36870  0.96310  0.00260  Biso   1.000  H
  H8       1.0000 0.63130  0.46310  0.49740  Biso   1.000  H
  H9       1.0000 0.75250  0.04790  0.95140  Biso   1.000  H
  H10      1.0000 0.24750  0.54790  0.54860  Biso   1.000  H
  H11      1.0000 0.24750  0.95210  0.04860  Biso   1.000  H
  H12      1.0000 0.75250  0.45210  0.45140  Biso   1.000  H
  N13      1.0000 0.79320  0.90450  0.81328  Biso   1.000  N
  N14      1.0000 0.20680  0.40450  0.68672  Biso   1.000  N
  N15      1.0000 0.20680  0.09550  0.18672  Biso   1.000  N
  N16      1.0000 0.79320  0.59550  0.31328  Biso   1.000  N
  C17      1.0000 0.79040  0.82540  0.75256  Biso   1.000  C
  C18      1.0000 0.20960  0.32540  0.74744  Biso   1.000  C
  C19      1.0000 0.20960  0.17460  0.24744  Biso   1.000  C
  C20      1.0000 0.79040  0.67460  0.25256  Biso   1.000  C
  H13      1.0000 0.86060  0.82600  0.72010  Biso   1.000  H
  H14      1.0000 0.13940  0.32600  0.77990  Biso   1.000  H
  H15      1.0000 0.13940  0.17400  0.27990  Biso   1.000  H
  H16      1.0000 0.86060  0.67400  0.22010  Biso   1.000  H
  N17      1.0000 0.67350  0.74270  0.74249  Biso   1.000  N
  N18      1.0000 0.32650  0.24270  0.75751  Biso   1.000  N
  N19      1.0000 0.32650  0.25730  0.25751  Biso   1.000  N
  N20      1.0000 0.67350  0.75730  0.24249  Biso   1.000  N
  C21      1.0000 0.63350  0.64700  0.67910  Biso   1.000  C
  C22      1.0000 0.36650  0.14700  0.82090  Biso   1.000  C
  C23      1.0000 0.36650  0.35300  0.32090  Biso   1.000  C
  C24      1.0000 0.63350  0.85300  0.17910  Biso   1.000  C
  H17      1.0000 0.54680  0.67580  0.64480  Biso   1.000  H
  H18      1.0000 0.45320  0.17580  0.85520  Biso   1.000  H
  H19      1.0000 0.45320  0.32420  0.35520  Biso   1.000  H
  H20      1.0000 0.54680  0.82420  0.14480  Biso   1.000  H
  H21      1.0000 0.61560  0.56360  0.70130  Biso   1.000  H
  H22      1.0000 0.38440  0.06360  0.79870  Biso   1.000  H
  H23      1.0000 0.38440  0.43640  0.29870  Biso   1.000  H
  H24      1.0000 0.61560  0.93640  0.20130  Biso   1.000  H
  H25      1.0000 0.71200  0.63890  0.64970  Biso   1.000  H
  H26      1.0000 0.28800  0.13890  0.85030  Biso   1.000  H
  H27      1.0000 0.28800  0.36110  0.35030  Biso   1.000  H
  H28      1.0000 0.71200  0.86110  0.14970  Biso   1.000  H
  C25      1.0000 0.14110  0.03220  0.62211  Biso   1.000  C
  C26      1.0000 0.85890  0.53220  0.87789  Biso   1.000  C
  C27      1.0000 0.85890  0.96780  0.37789  Biso   1.000  C
  C28      1.0000 0.14110  0.46780  0.12211  Biso   1.000  C
  C29      1.0000 0.25730  0.96920  0.59701  Biso   1.000  C
  C30      1.0000 0.74270  0.46920  0.90299  Biso   1.000  C
  C31      1.0000 0.74270  0.03080  0.40299  Biso   1.000  C
  C32      1.0000 0.25730  0.53080  0.09701  Biso   1.000  C
  H29      1.0000 0.30840  0.90410  0.62800  Biso   1.000  H
  H30      1.0000 0.69160  0.40410  0.87200  Biso   1.000  H
  H31      1.0000 0.69160  0.09590  0.37200  Biso   1.000  H
  H32      1.0000 0.30840  0.59590  0.12800  Biso   1.000  H
  C33      1.0000 0.29750  0.00330  0.52536  Biso   1.000  C
  C34      1.0000 0.70250  0.50330  0.97464  Biso   1.000  C
  C35      1.0000 0.70250  0.99670  0.47464  Biso   1.000  C
  C36      1.0000 0.29750  0.49670  0.02536  Biso   1.000  C
  H33      1.0000 0.37520  0.96050  0.50870  Biso   1.000  H
  H34      1.0000 0.62480  0.46050  0.99130  Biso   1.000  H
  H35      1.0000 0.62480  0.03950  0.49130  Biso   1.000  H
  H36      1.0000 0.37520  0.53950  0.00870  Biso   1.000  H
  C37      1.0000 0.22220  0.10090  0.47872  Biso   1.000  C
  C38      1.0000 0.77780  0.60090  0.02128  Biso   1.000  C
  C39      1.0000 0.77780  0.89910  0.52128  Biso   1.000  C
  C40      1.0000 0.22220  0.39910  0.97872  Biso   1.000  C
  H37      1.0000 0.24910  0.12280  0.43090  Biso   1.000  H
  H38      1.0000 0.75090  0.62280  0.06910  Biso   1.000  H
  H39      1.0000 0.75090  0.87720  0.56910  Biso   1.000  H
  H40      1.0000 0.24910  0.37720  0.93090  Biso   1.000  H
  C41      1.0000 0.10650  0.16580  0.50377  Biso   1.000  C
  C42      1.0000 0.89350  0.66580  0.99623  Biso   1.000  C
  C43      1.0000 0.89350  0.83420  0.49623  Biso   1.000  C
  C44      1.0000 0.10650  0.33420  0.00377  Biso   1.000  C
  C45      1.0000 0.06620  0.13070  0.57523  Biso   1.000  C
  C46      1.0000 0.93380  0.63070  0.92477  Biso   1.000  C
  C47      1.0000 0.93380  0.86930  0.42477  Biso   1.000  C
  C48      1.0000 0.06620  0.36930  0.07523  Biso   1.000  C
  H41      1.0000 0.98860  0.17350  0.59190  Biso   1.000  H
  H42      1.0000 0.01140  0.67350  0.90810  Biso   1.000  H
  H43      1.0000 0.01140  0.82650  0.40810  Biso   1.000  H
  H44      1.0000 0.98860  0.32650  0.09190  Biso   1.000  H
  C49      1.0000 0.09420  0.99900  0.69925  Biso   1.000  C
  C50      1.0000 0.90580  0.49900  0.80075  Biso   1.000  C
  C51      1.0000 0.90580  0.00100  0.30075  Biso   1.000  C
  C52      1.0000 0.09420  0.50100  0.19925  Biso   1.000  C
  O1       1.0000 0.99810  0.06920  0.72134  Biso   1.000  O
  O2       1.0000 0.00190  0.56920  0.77866  Biso   1.000  O
  O3       1.0000 0.00190  0.93080  0.27866  Biso   1.000  O
  O4       1.0000 0.99810  0.43080  0.22134  Biso   1.000  O
  O5       1.0000 0.15660  0.90230  0.73832  Biso   1.000  O
  O6       1.0000 0.84340  0.40230  0.76168  Biso   1.000  O
  O7       1.0000 0.84340  0.09770  0.26168  Biso   1.000  O
  O8       1.0000 0.15660  0.59770  0.23832  Biso   1.000  O
  C53      1.0000 0.02310  0.27150  0.45485  Biso   1.000  C
  C54      1.0000 0.97690  0.77150  0.04515  Biso   1.000  C
  C55      1.0000 0.97690  0.72850  0.54515  Biso   1.000  C
  C56      1.0000 0.02310  0.22850  0.95485  Biso   1.000  C
  O9       1.0000 0.93750  0.34330  0.48449  Biso   1.000  O
  O10      1.0000 0.06250  0.84330  0.01551  Biso   1.000  O
  O11      1.0000 0.06250  0.65670  0.51551  Biso   1.000  O
  O12      1.0000 0.93750  0.15670  0.98449  Biso   1.000  O
  O13      1.0000 0.04340  0.28445  0.38383  Biso   1.000  O
  O14      1.0000 0.95660  0.78445  0.11617  Biso   1.000  O
  O15      1.0000 0.95660  0.71555  0.61617  Biso   1.000  O
  O16      1.0000 0.04340  0.21555  0.88383  Biso   1.000  O
  O17      1.0000 0.76100  0.17731  0.80907  Biso   1.000  O
  O18      1.0000 0.23900  0.67731  0.69093  Biso   1.000  O
  O19      1.0000 0.23900  0.82269  0.19093  Biso   1.000  O
  O20      1.0000 0.76100  0.32269  0.30907  Biso   1.000  O
  O21      1.0000 0.09900  0.94918  0.87952  Biso   1.000  O
  O22      1.0000 0.90100  0.44918  0.62048  Biso   1.000  O
  O23      1.0000 0.90100  0.05082  0.12048  Biso   1.000  O
  O24      1.0000 0.09900  0.55082  0.37952  Biso   1.000  O
  H45      1.0000 0.79960  0.25500  0.80610  Biso   1.000  H
  H46      1.0000 0.20040  0.75500  0.69390  Biso   1.000  H
  H47      1.0000 0.20040  0.74500  0.19390  Biso   1.000  H
  H48      1.0000 0.79960  0.24500  0.30610  Biso   1.000  H
  H49      1.0000 0.68630  0.17950  0.77170  Biso   1.000  H
  H50      1.0000 0.31370  0.67950  0.72830  Biso   1.000  H
  H51      1.0000 0.31370  0.82050  0.22830  Biso   1.000  H
  H52      1.0000 0.68630  0.32050  0.27170  Biso   1.000  H
  H53      1.0000 0.09600  0.89510  0.91890  Biso   1.000  H
  H54      1.0000 0.90400  0.39510  0.58110  Biso   1.000  H
  H55      1.0000 0.90400  0.10490  0.08110  Biso   1.000  H
  H56      1.0000 0.09600  0.60490  0.41890  Biso   1.000  H
  H57      1.0000 0.11570  0.90100  0.83680  Biso   1.000  H
  H58      1.0000 0.88430  0.40100  0.66320  Biso   1.000  H
  H59      1.0000 0.88430  0.09900  0.16320  Biso   1.000  H
  H60      1.0000 0.11570  0.59900  0.33680  Biso   1.000  H
