data_image0
_cell_length_a       16.628
_cell_length_b       16.628
_cell_length_c       11.049
_cell_angle_alpha    90
_cell_angle_beta     90
_cell_angle_gamma    90

_symmetry_space_group_name_H-M    "P 1"
_symmetry_int_tables_number       1

loop_
  _symmetry_equiv_pos_as_xyz
  'x, y, z'

loop_
  _atom_site_label
  _atom_site_occupancy
  _atom_site_fract_x
  _atom_site_fract_y
  _atom_site_fract_z
  _atom_site_thermal_displace_type
  _atom_site_B_iso_or_equiv
  _atom_site_type_symbol
  Cu1      1.0000 0.71006  0.70352  0.00676  Biso   1.000  Cu
  Cu2      1.0000 0.28994  0.29648  0.00676  Biso   1.000  Cu
  Cu3      1.0000 0.21006  0.79648  0.49324  Biso   1.000  Cu
  Cu4      1.0000 0.78994  0.20352  0.49324  Biso   1.000  Cu
  Cu5      1.0000 0.20352  0.21006  0.50676  Biso   1.000  Cu
  Cu6      1.0000 0.79648  0.78994  0.50676  Biso   1.000  Cu
  Cu7      1.0000 0.29648  0.71006  0.99324  Biso   1.000  Cu
  Cu8      1.0000 0.70352  0.28994  0.99324  Biso   1.000  Cu
  N1       1.0000 0.61110  0.68860  0.88510  Biso   1.000  N
  N2       1.0000 0.38890  0.31140  0.88510  Biso   1.000  N
  N3       1.0000 0.11110  0.81140  0.61490  Biso   1.000  N
  N4       1.0000 0.88890  0.18860  0.61490  Biso   1.000  N
  N5       1.0000 0.18860  0.11110  0.38510  Biso   1.000  N
  N6       1.0000 0.81140  0.88890  0.38510  Biso   1.000  N
  N7       1.0000 0.31140  0.61110  0.11490  Biso   1.000  N
  N8       1.0000 0.68860  0.38890  0.11490  Biso   1.000  N
  C1       1.0000 0.62630  0.66210  0.77640  Biso   1.000  C
  C2       1.0000 0.37370  0.33790  0.77640  Biso   1.000  C
  C3       1.0000 0.12630  0.83790  0.72360  Biso   1.000  C
  C4       1.0000 0.87370  0.16210  0.72360  Biso   1.000  C
  C5       1.0000 0.16210  0.12630  0.27640  Biso   1.000  C
  C6       1.0000 0.83790  0.87370  0.27640  Biso   1.000  C
  C7       1.0000 0.33790  0.62630  0.22360  Biso   1.000  C
  C8       1.0000 0.66210  0.37370  0.22360  Biso   1.000  C
  N9       1.0000 0.56970  0.64360  0.69270  Biso   1.000  N
  N10      1.0000 0.43030  0.35640  0.69270  Biso   1.000  N
  N11      1.0000 0.06970  0.85640  0.80730  Biso   1.000  N
  N12      1.0000 0.93030  0.14360  0.80730  Biso   1.000  N
  N13      1.0000 0.14360  0.06970  0.19270  Biso   1.000  N
  N14      1.0000 0.85640  0.93030  0.19270  Biso   1.000  N
  N15      1.0000 0.35640  0.56970  0.30730  Biso   1.000  N
  N16      1.0000 0.64360  0.43030  0.30730  Biso   1.000  N
  C9       1.0000 0.49620  0.65580  0.74230  Biso   1.000  C
  C10      1.0000 0.50380  0.34420  0.74230  Biso   1.000  C
  C11      1.0000 0.99620  0.84420  0.75770  Biso   1.000  C
  C12      1.0000 0.00380  0.15580  0.75770  Biso   1.000  C
  C13      1.0000 0.15580  0.99620  0.24230  Biso   1.000  C
  C14      1.0000 0.84420  0.00380  0.24230  Biso   1.000  C
  C15      1.0000 0.34420  0.49620  0.25770  Biso   1.000  C
  C16      1.0000 0.65580  0.50380  0.25770  Biso   1.000  C
  N17      1.0000 0.38900  0.69130  0.87300  Biso   1.000  N
  N18      1.0000 0.61100  0.30870  0.87300  Biso   1.000  N
  N19      1.0000 0.88900  0.80870  0.62700  Biso   1.000  N
  N20      1.0000 0.11100  0.19130  0.62700  Biso   1.000  N
  N21      1.0000 0.19130  0.88900  0.37300  Biso   1.000  N
  N22      1.0000 0.80870  0.11100  0.37300  Biso   1.000  N
  N23      1.0000 0.30870  0.38900  0.12700  Biso   1.000  N
  N24      1.0000 0.69130  0.61100  0.12700  Biso   1.000  N
  C17      1.0000 0.36160  0.66470  0.75880  Biso   1.000  C
  C18      1.0000 0.63840  0.33530  0.75880  Biso   1.000  C
  C19      1.0000 0.86160  0.83530  0.74120  Biso   1.000  C
  C20      1.0000 0.13840  0.16470  0.74120  Biso   1.000  C
  C21      1.0000 0.16470  0.86160  0.25880  Biso   1.000  C
  C22      1.0000 0.83530  0.13840  0.25880  Biso   1.000  C
  C23      1.0000 0.33530  0.36160  0.24120  Biso   1.000  C
  C24      1.0000 0.66470  0.63840  0.24120  Biso   1.000  C
  N25      1.0000 0.42400  0.64570  0.68680  Biso   1.000  N
  N26      1.0000 0.57600  0.35430  0.68680  Biso   1.000  N
  N27      1.0000 0.92400  0.85430  0.81320  Biso   1.000  N
  N28      1.0000 0.07600  0.14570  0.81320  Biso   1.000  N
  N29      1.0000 0.14570  0.92400  0.18680  Biso   1.000  N
  N30      1.0000 0.85430  0.07600  0.18680  Biso   1.000  N
  N31      1.0000 0.35430  0.42400  0.31320  Biso   1.000  N
  N32      1.0000 0.64570  0.57600  0.31320  Biso   1.000  N
  C25      1.0000 0.53410  0.68500  0.86100  Biso   1.000  C
  C26      1.0000 0.46590  0.31500  0.86100  Biso   1.000  C
  C27      1.0000 0.03410  0.81500  0.63900  Biso   1.000  C
  C28      1.0000 0.96590  0.18500  0.63900  Biso   1.000  C
  C29      1.0000 0.18500  0.03410  0.36100  Biso   1.000  C
  C30      1.0000 0.81500  0.96590  0.36100  Biso   1.000  C
  C31      1.0000 0.31500  0.53410  0.13900  Biso   1.000  C
  C32      1.0000 0.68500  0.46590  0.13900  Biso   1.000  C
  C33      1.0000 0.46840  0.70400  0.92910  Biso   1.000  C
  C34      1.0000 0.53160  0.29600  0.92910  Biso   1.000  C
  C35      1.0000 0.96840  0.79600  0.57090  Biso   1.000  C
  C36      1.0000 0.03160  0.20400  0.57090  Biso   1.000  C
  C37      1.0000 0.20400  0.96840  0.42910  Biso   1.000  C
  C38      1.0000 0.79600  0.03160  0.42910  Biso   1.000  C
  C39      1.0000 0.29600  0.46840  0.07090  Biso   1.000  C
  C40      1.0000 0.70400  0.53160  0.07090  Biso   1.000  C
  N33      1.0000 0.49230  0.73170  0.04560  Biso   1.000  N
  N34      1.0000 0.50770  0.26830  0.04560  Biso   1.000  N
  N35      1.0000 0.99230  0.76830  0.45440  Biso   1.000  N
  N36      1.0000 0.00770  0.23170  0.45440  Biso   1.000  N
  N37      1.0000 0.23170  0.99230  0.54560  Biso   1.000  N
  N38      1.0000 0.76830  0.00770  0.54560  Biso   1.000  N
  N39      1.0000 0.26830  0.49230  0.95440  Biso   1.000  N
  N40      1.0000 0.73170  0.50770  0.95440  Biso   1.000  N
  C41      1.0000 0.59550  0.61020  0.55300  Biso   1.000  C
  C42      1.0000 0.40450  0.38980  0.55300  Biso   1.000  C
  C43      1.0000 0.09550  0.88980  0.94700  Biso   1.000  C
  C44      1.0000 0.90450  0.11020  0.94700  Biso   1.000  C
  C45      1.0000 0.11020  0.09550  0.05300  Biso   1.000  C
  C46      1.0000 0.88980  0.90450  0.05300  Biso   1.000  C
  C47      1.0000 0.38980  0.59550  0.44700  Biso   1.000  C
  C48      1.0000 0.61020  0.40450  0.44700  Biso   1.000  C
  C49      1.0000 0.07310  0.65900  0.88660  Biso   1.000  C
  C50      1.0000 0.92690  0.34100  0.88660  Biso   1.000  C
  C51      1.0000 0.57310  0.84100  0.61340  Biso   1.000  C
  C52      1.0000 0.42690  0.15900  0.61340  Biso   1.000  C
  C53      1.0000 0.15900  0.57310  0.38660  Biso   1.000  C
  C54      1.0000 0.84100  0.42690  0.38660  Biso   1.000  C
  C55      1.0000 0.34100  0.07310  0.11340  Biso   1.000  C
  C56      1.0000 0.65900  0.92690  0.11340  Biso   1.000  C
  C57      1.0000 0.99860  0.67260  0.94440  Biso   1.000  C
  C58      1.0000 0.00140  0.32740  0.94440  Biso   1.000  C
  C59      1.0000 0.49860  0.82740  0.55560  Biso   1.000  C
  C60      1.0000 0.50140  0.17260  0.55560  Biso   1.000  C
  C61      1.0000 0.17260  0.49860  0.44440  Biso   1.000  C
  C62      1.0000 0.82740  0.50140  0.44440  Biso   1.000  C
  C63      1.0000 0.32740  0.99860  0.05560  Biso   1.000  C
  C64      1.0000 0.67260  0.00140  0.05560  Biso   1.000  C
  H1       1.0000 0.99720  0.69390  0.02220  Biso   1.000  H
  H2       1.0000 0.00280  0.30610  0.02220  Biso   1.000  H
  H3       1.0000 0.49720  0.80610  0.47780  Biso   1.000  H
  H4       1.0000 0.50280  0.19390  0.47780  Biso   1.000  H
  H5       1.0000 0.19390  0.49720  0.52220  Biso   1.000  H
  H6       1.0000 0.80610  0.50280  0.52220  Biso   1.000  H
  H7       1.0000 0.30610  0.99720  0.97780  Biso   1.000  H
  H8       1.0000 0.69390  0.00280  0.97780  Biso   1.000  H
  C65      1.0000 0.92830  0.65420  0.88550  Biso   1.000  C
  C66      1.0000 0.07170  0.34580  0.88550  Biso   1.000  C
  C67      1.0000 0.42830  0.84580  0.61450  Biso   1.000  C
  C68      1.0000 0.57170  0.15420  0.61450  Biso   1.000  C
  C69      1.0000 0.15420  0.42830  0.38550  Biso   1.000  C
  C70      1.0000 0.84580  0.57170  0.38550  Biso   1.000  C
  C71      1.0000 0.34580  0.92830  0.11450  Biso   1.000  C
  C72      1.0000 0.65420  0.07170  0.11450  Biso   1.000  C
  C73      1.0000 0.93020  0.62260  0.77010  Biso   1.000  C
  C74      1.0000 0.06980  0.37740  0.77010  Biso   1.000  C
  C75      1.0000 0.43020  0.87740  0.72990  Biso   1.000  C
  C76      1.0000 0.56980  0.12260  0.72990  Biso   1.000  C
  C77      1.0000 0.12260  0.43020  0.27010  Biso   1.000  C
  C78      1.0000 0.87740  0.56980  0.27010  Biso   1.000  C
  C79      1.0000 0.37740  0.93020  0.22990  Biso   1.000  C
  C80      1.0000 0.62260  0.06980  0.22990  Biso   1.000  C
  H9       1.0000 0.88250  0.61120  0.72970  Biso   1.000  H
  H10      1.0000 0.11750  0.38880  0.72970  Biso   1.000  H
  H11      1.0000 0.38250  0.88880  0.77030  Biso   1.000  H
  H12      1.0000 0.61750  0.11120  0.77030  Biso   1.000  H
  H13      1.0000 0.11120  0.38250  0.22970  Biso   1.000  H
  H14      1.0000 0.88880  0.61750  0.22970  Biso   1.000  H
  H15      1.0000 0.38880  0.88250  0.27030  Biso   1.000  H
  H16      1.0000 0.61120  0.11750  0.27030  Biso   1.000  H
  C81      1.0000 0.00520  0.60750  0.71300  Biso   1.000  C
  C82      1.0000 0.99480  0.39250  0.71300  Biso   1.000  C
  C83      1.0000 0.50520  0.89250  0.78700  Biso   1.000  C
  C84      1.0000 0.49480  0.10750  0.78700  Biso   1.000  C
  C85      1.0000 0.10750  0.50520  0.21300  Biso   1.000  C
  C86      1.0000 0.89250  0.49480  0.21300  Biso   1.000  C
  C87      1.0000 0.39250  0.00520  0.28700  Biso   1.000  C
  C88      1.0000 0.60750  0.99480  0.28700  Biso   1.000  C
  H17      1.0000 0.00680  0.58520  0.63580  Biso   1.000  H
  H18      1.0000 0.99320  0.41480  0.63580  Biso   1.000  H
  H19      1.0000 0.50680  0.91480  0.86420  Biso   1.000  H
  H20      1.0000 0.49320  0.08520  0.86420  Biso   1.000  H
  H21      1.0000 0.08520  0.50680  0.13580  Biso   1.000  H
  H22      1.0000 0.91480  0.49320  0.13580  Biso   1.000  H
  H23      1.0000 0.41480  0.00680  0.36420  Biso   1.000  H
  H24      1.0000 0.58520  0.99320  0.36420  Biso   1.000  H
  C89      1.0000 0.07460  0.62570  0.77170  Biso   1.000  C
  C90      1.0000 0.92540  0.37430  0.77170  Biso   1.000  C
  C91      1.0000 0.57460  0.87430  0.72830  Biso   1.000  C
  C92      1.0000 0.42540  0.12570  0.72830  Biso   1.000  C
  C93      1.0000 0.12570  0.57460  0.27170  Biso   1.000  C
  C94      1.0000 0.87430  0.42540  0.27170  Biso   1.000  C
  C95      1.0000 0.37430  0.07460  0.22830  Biso   1.000  C
  C96      1.0000 0.62570  0.92540  0.22830  Biso   1.000  C
  H25      1.0000 0.12370  0.61580  0.73420  Biso   1.000  H
  H26      1.0000 0.87630  0.38420  0.73420  Biso   1.000  H
  H27      1.0000 0.62370  0.88420  0.76580  Biso   1.000  H
  H28      1.0000 0.37630  0.11580  0.76580  Biso   1.000  H
  H29      1.0000 0.11580  0.62370  0.23420  Biso   1.000  H
  H30      1.0000 0.88420  0.37630  0.23420  Biso   1.000  H
  H31      1.0000 0.38420  0.12370  0.26580  Biso   1.000  H
  H32      1.0000 0.61580  0.87630  0.26580  Biso   1.000  H
  C97      1.0000 0.14330  0.68290  0.95600  Biso   1.000  C
  C98      1.0000 0.85670  0.31710  0.95600  Biso   1.000  C
  C99      1.0000 0.64330  0.81710  0.54400  Biso   1.000  C
  C100     1.0000 0.35670  0.18290  0.54400  Biso   1.000  C
  C101     1.0000 0.18290  0.64330  0.45600  Biso   1.000  C
  C102     1.0000 0.81710  0.35670  0.45600  Biso   1.000  C
  C103     1.0000 0.31710  0.14330  0.04400  Biso   1.000  C
  C104     1.0000 0.68290  0.85670  0.04400  Biso   1.000  C
  O1       1.0000 0.14200  0.71510  0.05520  Biso   1.000  O
  O2       1.0000 0.85800  0.28490  0.05520  Biso   1.000  O
  O3       1.0000 0.64200  0.78490  0.44480  Biso   1.000  O
  O4       1.0000 0.35800  0.21510  0.44480  Biso   1.000  O
  O5       1.0000 0.21510  0.64200  0.55520  Biso   1.000  O
  O6       1.0000 0.78490  0.35800  0.55520  Biso   1.000  O
  O7       1.0000 0.28490  0.14200  0.94480  Biso   1.000  O
  O8       1.0000 0.71510  0.85800  0.94480  Biso   1.000  O
  O9       1.0000 0.21460  0.67100  0.90710  Biso   1.000  O
  O10      1.0000 0.78540  0.32900  0.90710  Biso   1.000  O
  O11      1.0000 0.71460  0.82900  0.59290  Biso   1.000  O
  O12      1.0000 0.28540  0.17100  0.59290  Biso   1.000  O
  O13      1.0000 0.17100  0.71460  0.40710  Biso   1.000  O
  O14      1.0000 0.82900  0.28540  0.40710  Biso   1.000  O
  O15      1.0000 0.32900  0.21460  0.09290  Biso   1.000  O
  O16      1.0000 0.67100  0.78540  0.09290  Biso   1.000  O
  C105     1.0000 0.84660  0.67290  0.93670  Biso   1.000  C
  C106     1.0000 0.15340  0.32710  0.93670  Biso   1.000  C
  C107     1.0000 0.34660  0.82710  0.56330  Biso   1.000  C
  C108     1.0000 0.65340  0.17290  0.56330  Biso   1.000  C
  C109     1.0000 0.17290  0.34660  0.43670  Biso   1.000  C
  C110     1.0000 0.82710  0.65340  0.43670  Biso   1.000  C
  C111     1.0000 0.32710  0.84660  0.06330  Biso   1.000  C
  C112     1.0000 0.67290  0.15340  0.06330  Biso   1.000  C
  O17      1.0000 0.83830  0.71380  0.01250  Biso   1.000  O
  O18      1.0000 0.16170  0.28620  0.01250  Biso   1.000  O
  O19      1.0000 0.33830  0.78620  0.48750  Biso   1.000  O
  O20      1.0000 0.66170  0.21380  0.48750  Biso   1.000  O
  O21      1.0000 0.21380  0.33830  0.51250  Biso   1.000  O
  O22      1.0000 0.78620  0.66170  0.51250  Biso   1.000  O
  O23      1.0000 0.28620  0.83830  0.98750  Biso   1.000  O
  O24      1.0000 0.71380  0.16170  0.98750  Biso   1.000  O
  O25      1.0000 0.78430  0.64230  0.88100  Biso   1.000  O
  O26      1.0000 0.21570  0.35770  0.88100  Biso   1.000  O
  O27      1.0000 0.28430  0.85770  0.61900  Biso   1.000  O
  O28      1.0000 0.71570  0.14230  0.61900  Biso   1.000  O
  O29      1.0000 0.14230  0.28430  0.38100  Biso   1.000  O
  O30      1.0000 0.85770  0.71570  0.38100  Biso   1.000  O
  O31      1.0000 0.35770  0.78430  0.11900  Biso   1.000  O
  O32      1.0000 0.64230  0.21570  0.11900  Biso   1.000  O
  C113     1.0000 0.46870  0.68190  0.85200  Biso   1.000  C
  C114     1.0000 0.53130  0.31810  0.85200  Biso   1.000  C
  C115     1.0000 0.96870  0.81810  0.64800  Biso   1.000  C
  C116     1.0000 0.03130  0.18190  0.64800  Biso   1.000  C
  C117     1.0000 0.18190  0.96870  0.35200  Biso   1.000  C
  C118     1.0000 0.81810  0.03130  0.35200  Biso   1.000  C
  C119     1.0000 0.31810  0.46870  0.14800  Biso   1.000  C
  C120     1.0000 0.68190  0.53130  0.14800  Biso   1.000  C
  C121     1.0000 0.52900  0.70400  0.94400  Biso   1.000  C
  C122     1.0000 0.47100  0.29600  0.94400  Biso   1.000  C
  C123     1.0000 0.02900  0.79600  0.55600  Biso   1.000  C
  C124     1.0000 0.97100  0.20400  0.55600  Biso   1.000  C
  C125     1.0000 0.20400  0.02900  0.44400  Biso   1.000  C
  C126     1.0000 0.79600  0.97100  0.44400  Biso   1.000  C
  C127     1.0000 0.29600  0.52900  0.05600  Biso   1.000  C
  C128     1.0000 0.70400  0.47100  0.05600  Biso   1.000  C
  N41      1.0000 0.52910  0.72940  0.05500  Biso   1.000  N
  N42      1.0000 0.47090  0.27060  0.05500  Biso   1.000  N
  N43      1.0000 0.02910  0.77060  0.44500  Biso   1.000  N
  N44      1.0000 0.97090  0.22940  0.44500  Biso   1.000  N
  N45      1.0000 0.22940  0.02910  0.55500  Biso   1.000  N
  N46      1.0000 0.77060  0.97090  0.55500  Biso   1.000  N
  N47      1.0000 0.27060  0.52910  0.94500  Biso   1.000  N
  N48      1.0000 0.72940  0.47090  0.94500  Biso   1.000  N
  C129     1.0000 0.41090  0.61510  0.56400  Biso   1.000  C
  C130     1.0000 0.58910  0.38490  0.56400  Biso   1.000  C
  C131     1.0000 0.91090  0.88490  0.93600  Biso   1.000  C
  C132     1.0000 0.08910  0.11510  0.93600  Biso   1.000  C
  C133     1.0000 0.11510  0.91090  0.06400  Biso   1.000  C
  C134     1.0000 0.88490  0.08910  0.06400  Biso   1.000  C
  C135     1.0000 0.38490  0.41090  0.43600  Biso   1.000  C
  C136     1.0000 0.61510  0.58910  0.43600  Biso   1.000  C
