data_image0
_cell_length_a       9.236
_cell_length_b       12.465
_cell_length_c       23.213
_cell_angle_alpha    90.297
_cell_angle_beta     96.642
_cell_angle_gamma    104.656

_symmetry_space_group_name_H-M    "P 1"
_symmetry_int_tables_number       1

loop_
  _symmetry_equiv_pos_as_xyz
  'x, y, z'

loop_
  _atom_site_label
  _atom_site_occupancy
  _atom_site_fract_x
  _atom_site_fract_y
  _atom_site_fract_z
  _atom_site_thermal_displace_type
  _atom_site_B_iso_or_equiv
  _atom_site_type_symbol
  Cu1      1.0000 0.53793  0.39197  0.13804  Biso   1.000  Cu
  Cu2      1.0000 0.46207  0.60803  0.86196  Biso   1.000  Cu
  Cu3      1.0000 0.47270  0.10194  0.50191  Biso   1.000  Cu
  Cu4      1.0000 0.52730  0.89806  0.49809  Biso   1.000  Cu
  Cu5      1.0000 0.96288  0.09657  0.99484  Biso   1.000  Cu
  Cu6      1.0000 0.03712  0.90343  0.00516  Biso   1.000  Cu
  Cu7      1.0000 0.05673  0.61344  0.64096  Biso   1.000  Cu
  Cu8      1.0000 0.94327  0.38656  0.35904  Biso   1.000  Cu
  N1       1.0000 0.13770  0.38400  0.44290  Biso   1.000  N
  N2       1.0000 0.86230  0.61600  0.55710  Biso   1.000  N
  C1       1.0000 0.17360  0.47390  0.47890  Biso   1.000  C
  C2       1.0000 0.82640  0.52610  0.52110  Biso   1.000  C
  H1       1.0000 0.11770  0.52550  0.47030  Biso   1.000  H
  H2       1.0000 0.88230  0.47450  0.52970  Biso   1.000  H
  N3       1.0000 0.27670  0.49980  0.52450  Biso   1.000  N
  N4       1.0000 0.72330  0.50020  0.47550  Biso   1.000  N
  C3       1.0000 0.35310  0.42080  0.53380  Biso   1.000  C
  C4       1.0000 0.64690  0.57920  0.46620  Biso   1.000  C
  C5       1.0000 0.33090  0.32480  0.49970  Biso   1.000  C
  C6       1.0000 0.66910  0.67520  0.50030  Biso   1.000  C
  C7       1.0000 0.21840  0.30700  0.45240  Biso   1.000  C
  C8       1.0000 0.78160  0.69300  0.54760  Biso   1.000  C
  N5       1.0000 0.18590  0.21930  0.41540  Biso   1.000  N
  N6       1.0000 0.81410  0.78070  0.58460  Biso   1.000  N
  H3       1.0000 0.11600  0.21300  0.38680  Biso   1.000  H
  H4       1.0000 0.88400  0.78700  0.61320  Biso   1.000  H
  H5       1.0000 0.23500  0.16930  0.42030  Biso   1.000  H
  H6       1.0000 0.76500  0.83070  0.57970  Biso   1.000  H
  N7       1.0000 0.43180  0.26440  0.52120  Biso   1.000  N
  N8       1.0000 0.56820  0.73560  0.47880  Biso   1.000  N
  C9       1.0000 0.51040  0.32540  0.56740  Biso   1.000  C
  C10      1.0000 0.48960  0.67460  0.43260  Biso   1.000  C
  H7       1.0000 0.58670  0.30490  0.59100  Biso   1.000  H
  H8       1.0000 0.41330  0.69510  0.40900  Biso   1.000  H
  C11      1.0000 0.52460  0.50220  0.62400  Biso   1.000  C
  C12      1.0000 0.47540  0.49780  0.37600  Biso   1.000  C
  H9       1.0000 0.47440  0.56090  0.61940  Biso   1.000  H
  H10      1.0000 0.52560  0.43910  0.38060  Biso   1.000  H
  H11      1.0000 0.63100  0.53220  0.62380  Biso   1.000  H
  H12      1.0000 0.36900  0.46780  0.37620  Biso   1.000  H
  H13      1.0000 0.50610  0.46740  0.66010  Biso   1.000  H
  H14      1.0000 0.49390  0.53260  0.33990  Biso   1.000  H
  N9       1.0000 0.46760  0.42090  0.57660  Biso   1.000  N
  N10      1.0000 0.53240  0.57910  0.42340  Biso   1.000  N
  N11      1.0000 0.67010  0.38230  0.05710  Biso   1.000  N
  N12      1.0000 0.32990  0.61770  0.94290  Biso   1.000  N
  C13      1.0000 0.68350  0.46810  0.02190  Biso   1.000  C
  C14      1.0000 0.31650  0.53190  0.97810  Biso   1.000  C
  H15      1.0000 0.63010  0.51930  0.02990  Biso   1.000  H
  H16      1.0000 0.36990  0.48070  0.97010  Biso   1.000  H
  N13      1.0000 0.76230  0.49030  0.97710  Biso   1.000  N
  N14      1.0000 0.23770  0.50970  0.02290  Biso   1.000  N
  C15      1.0000 0.83540  0.41230  0.96870  Biso   1.000  C
  C16      1.0000 0.16460  0.58770  0.03130  Biso   1.000  C
  C17      1.0000 0.83050  0.31820  0.00060  Biso   1.000  C
  C18      1.0000 0.16950  0.68180  0.99940  Biso   1.000  C
  C19      1.0000 0.74190  0.30230  0.04710  Biso   1.000  C
  C20      1.0000 0.25810  0.69770  0.95290  Biso   1.000  C
  N15      1.0000 0.72740  0.21610  0.08060  Biso   1.000  N
  N16      1.0000 0.27260  0.78390  0.91940  Biso   1.000  N
  H17      1.0000 0.67280  0.21060  0.10860  Biso   1.000  H
  H18      1.0000 0.32720  0.78940  0.89140  Biso   1.000  H
  H19      1.0000 0.77240  0.16540  0.07450  Biso   1.000  H
  H20      1.0000 0.22760  0.83460  0.92550  Biso   1.000  H
  N17      1.0000 0.91960  0.25660  0.97944  Biso   1.000  N
  N18      1.0000 0.08040  0.74340  0.02056  Biso   1.000  N
  C21      1.0000 0.97440  0.31390  0.93490  Biso   1.000  C
  C22      1.0000 0.02560  0.68610  0.06510  Biso   1.000  C
  H21      1.0000 0.03740  0.29130  0.91150  Biso   1.000  H
  H22      1.0000 0.96260  0.70870  0.08850  Biso   1.000  H
  N19      1.0000 0.92880  0.40790  0.92726  Biso   1.000  N
  N20      1.0000 0.07120  0.59210  0.07274  Biso   1.000  N
  C23      1.0000 0.96570  0.48700  0.88130  Biso   1.000  C
  C24      1.0000 0.03430  0.51300  0.11870  Biso   1.000  C
  H23      1.0000 0.91910  0.54680  0.88560  Biso   1.000  H
  H24      1.0000 0.08090  0.45320  0.11440  Biso   1.000  H
  H25      1.0000 0.92910  0.45000  0.84410  Biso   1.000  H
  H26      1.0000 0.07090  0.55000  0.15590  Biso   1.000  H
  H27      1.0000 0.07310  0.51600  0.88410  Biso   1.000  H
  H28      1.0000 0.92690  0.48400  0.11590  Biso   1.000  H
  C25      1.0000 0.50800  0.12780  0.24070  Biso   1.000  C
  C26      1.0000 0.49200  0.87220  0.75930  Biso   1.000  C
  C27      1.0000 0.54280  0.04190  0.21200  Biso   1.000  C
  C28      1.0000 0.45720  0.95810  0.78800  Biso   1.000  C
  H29      1.0000 0.55780  0.04800  0.17310  Biso   1.000  H
  H30      1.0000 0.44220  0.95200  0.82690  Biso   1.000  H
  C29      1.0000 0.55540  0.94700  0.24060  Biso   1.000  C
  C30      1.0000 0.44460  0.05300  0.75940  Biso   1.000  C
  H31      1.0000 0.57570  0.88850  0.22070  Biso   1.000  H
  H32      1.0000 0.42430  0.11150  0.77930  Biso   1.000  H
  C31      1.0000 0.53770  0.93990  0.29900  Biso   1.000  C
  C32      1.0000 0.46230  0.06010  0.70100  Biso   1.000  C
  H33      1.0000 0.54530  0.87600  0.31830  Biso   1.000  H
  H34      1.0000 0.45470  0.12400  0.68170  Biso   1.000  H
  C33      1.0000 0.50860  0.02760  0.32890  Biso   1.000  C
  C34      1.0000 0.49140  0.97240  0.67110  Biso   1.000  C
  C35      1.0000 0.49090  0.12080  0.29920  Biso   1.000  C
  C36      1.0000 0.50910  0.87920  0.70080  Biso   1.000  C
  H35      1.0000 0.46750  0.17860  0.31860  Biso   1.000  H
  H36      1.0000 0.53250  0.82140  0.68140  Biso   1.000  H
  C37      1.0000 0.48920  0.23000  0.21060  Biso   1.000  C
  C38      1.0000 0.51080  0.77000  0.78940  Biso   1.000  C
  O1       1.0000 0.44980  0.30210  0.23677  Biso   1.000  O
  O2       1.0000 0.55020  0.69790  0.76323  Biso   1.000  O
  O3       1.0000 0.52100  0.23900  0.15793  Biso   1.000  O
  O4       1.0000 0.47900  0.76100  0.84207  Biso   1.000  O
  C39      1.0000 0.50170  0.02370  0.39230  Biso   1.000  C
  C40      1.0000 0.49830  0.97630  0.60770  Biso   1.000  C
  O5       1.0000 0.48190  0.10630  0.41828  Biso   1.000  O
  O6       1.0000 0.51810  0.89370  0.58172  Biso   1.000  O
  O7       1.0000 0.51820  0.93620  0.41628  Biso   1.000  O
  O8       1.0000 0.48180  0.06380  0.58372  Biso   1.000  O
  C41      1.0000 0.92560  0.13870  0.55970  Biso   1.000  C
  C42      1.0000 0.07440  0.86130  0.44030  Biso   1.000  C
  C43      1.0000 0.95840  0.24600  0.58370  Biso   1.000  C
  C44      1.0000 0.04160  0.75400  0.41630  Biso   1.000  C
  H37      1.0000 0.89200  0.29010  0.57480  Biso   1.000  H
  H38      1.0000 0.10800  0.70990  0.42520  Biso   1.000  H
  C45      1.0000 0.09130  0.28770  0.62130  Biso   1.000  C
  C46      1.0000 0.90870  0.71230  0.37870  Biso   1.000  C
  C47      1.0000 0.19040  0.22140  0.63330  Biso   1.000  C
  C48      1.0000 0.80960  0.77860  0.36670  Biso   1.000  C
  H39      1.0000 0.27750  0.24740  0.65910  Biso   1.000  H
  H40      1.0000 0.72250  0.75260  0.34090  Biso   1.000  H
  C49      1.0000 0.16040  0.11630  0.60710  Biso   1.000  C
  C50      1.0000 0.83960  0.88370  0.39290  Biso   1.000  C
  H41      1.0000 0.22960  0.07370  0.61410  Biso   1.000  H
  H42      1.0000 0.77040  0.92630  0.38590  Biso   1.000  H
  C51      1.0000 0.03000  0.07520  0.57100  Biso   1.000  C
  C52      1.0000 0.97000  0.92480  0.42900  Biso   1.000  C
  H43      1.0000 0.01050  0.00470  0.55380  Biso   1.000  H
  H44      1.0000 0.98950  0.99530  0.44620  Biso   1.000  H
  C53      1.0000 0.77380  0.09080  0.52680  Biso   1.000  C
  C54      1.0000 0.22620  0.90920  0.47320  Biso   1.000  C
  O9       1.0000 0.69280  0.15570  0.51430  Biso   1.000  O
  O10      1.0000 0.30720  0.84430  0.48570  Biso   1.000  O
  O11      1.0000 0.73650  0.98790  0.51680  Biso   1.000  O
  O12      1.0000 0.26350  0.01210  0.48320  Biso   1.000  O
  C55      1.0000 0.12180  0.40330  0.64820  Biso   1.000  C
  C56      1.0000 0.87820  0.59670  0.35180  Biso   1.000  C
  O13      1.0000 0.05600  0.46580  0.61890  Biso   1.000  O
  O14      1.0000 0.94400  0.53420  0.38110  Biso   1.000  O
  O15      1.0000 0.20290  0.42770  0.69620  Biso   1.000  O
  O16      1.0000 0.79710  0.57230  0.30380  Biso   1.000  O
  C57      1.0000 0.97560  0.13210  0.25410  Biso   1.000  C
  C58      1.0000 0.02440  0.86790  0.74590  Biso   1.000  C
  C59      1.0000 0.98700  0.12720  0.19550  Biso   1.000  C
  C60      1.0000 0.01300  0.87280  0.80450  Biso   1.000  C
  H45      1.0000 0.95210  0.17680  0.17130  Biso   1.000  H
  H46      1.0000 0.04790  0.82320  0.82870  Biso   1.000  H
  C61      1.0000 0.05060  0.04840  0.17200  Biso   1.000  C
  C62      1.0000 0.94940  0.95160  0.82800  Biso   1.000  C
  C63      1.0000 0.10440  0.97530  0.20890  Biso   1.000  C
  C64      1.0000 0.89560  0.02470  0.79110  Biso   1.000  C
  H47      1.0000 0.14850  0.92370  0.19380  Biso   1.000  H
  H48      1.0000 0.85150  0.07630  0.80620  Biso   1.000  H
  C65      1.0000 0.09270  0.97860  0.26750  Biso   1.000  C
  C66      1.0000 0.90730  0.02140  0.73250  Biso   1.000  C
  H49      1.0000 0.12830  0.92940  0.29170  Biso   1.000  H
  H50      1.0000 0.87170  0.07060  0.70830  Biso   1.000  H
  C67      1.0000 0.02710  0.05660  0.29030  Biso   1.000  C
  C68      1.0000 0.97290  0.94340  0.70970  Biso   1.000  C
  H51      1.0000 0.01760  0.05820  0.32970  Biso   1.000  H
  H52      1.0000 0.98240  0.94180  0.67030  Biso   1.000  H
  C69      1.0000 0.91100  0.21990  0.27740  Biso   1.000  C
  C70      1.0000 0.08900  0.78010  0.72260  Biso   1.000  C
  O17      1.0000 0.84360  0.27160  0.24465  Biso   1.000  O
  O18      1.0000 0.15640  0.72840  0.75535  Biso   1.000  O
  O19      1.0000 0.94100  0.23770  0.33319  Biso   1.000  O
  O20      1.0000 0.05900  0.76230  0.66681  Biso   1.000  O
  C71      1.0000 0.05200  0.04030  0.10810  Biso   1.000  C
  C72      1.0000 0.94800  0.95970  0.89190  Biso   1.000  C
  O21      1.0000 0.02040  0.11810  0.07893  Biso   1.000  O
  O22      1.0000 0.97960  0.88190  0.92107  Biso   1.000  O
  O23      1.0000 0.07620  0.95440  0.08726  Biso   1.000  O
  O24      1.0000 0.92380  0.04560  0.91274  Biso   1.000  O
  C73      1.0000 0.60930  0.85870  0.05790  Biso   1.000  C
  C74      1.0000 0.39070  0.14130  0.94210  Biso   1.000  C
  C75      1.0000 0.50550  0.91880  0.06710  Biso   1.000  C
  C76      1.0000 0.49450  0.08120  0.93290  Biso   1.000  C
  H53      1.0000 0.51360  0.98780  0.05080  Biso   1.000  H
  H54      1.0000 0.48640  0.01220  0.94920  Biso   1.000  H
  C77      1.0000 0.39010  0.87660  0.10020  Biso   1.000  C
  C78      1.0000 0.60990  0.12340  0.89980  Biso   1.000  C
  H55      1.0000 0.31980  0.91640  0.10550  Biso   1.000  H
  H56      1.0000 0.68020  0.08360  0.89450  Biso   1.000  H
  C79      1.0000 0.37930  0.77480  0.12550  Biso   1.000  C
  C80      1.0000 0.62070  0.22520  0.87450  Biso   1.000  C
  H57      1.0000 0.30340  0.74770  0.14870  Biso   1.000  H
  H58      1.0000 0.69660  0.25230  0.85130  Biso   1.000  H
  C81      1.0000 0.48160  0.71280  0.11650  Biso   1.000  C
  C82      1.0000 0.51840  0.28720  0.88350  Biso   1.000  C
  C83      1.0000 0.59410  0.75430  0.08180  Biso   1.000  C
  C84      1.0000 0.40590  0.24570  0.91820  Biso   1.000  C
  H59      1.0000 0.66020  0.71220  0.07430  Biso   1.000  H
  H60      1.0000 0.33980  0.28780  0.92570  Biso   1.000  H
  C85      1.0000 0.74160  0.90710  0.02670  Biso   1.000  C
  C86      1.0000 0.25840  0.09290  0.97330  Biso   1.000  C
  O25      1.0000 0.76640  0.00720  0.01391  Biso   1.000  O
  O26      1.0000 0.23360  0.99280  0.98609  Biso   1.000  O
  O27      1.0000 0.82680  0.84520  0.01840  Biso   1.000  O
  O28      1.0000 0.17320  0.15480  0.98160  Biso   1.000  O
  C87      1.0000 0.46870  0.60090  0.14250  Biso   1.000  C
  C88      1.0000 0.53130  0.39910  0.85750  Biso   1.000  C
  O29      1.0000 0.55010  0.54460  0.12340  Biso   1.000  O
  O30      1.0000 0.44990  0.45540  0.87660  Biso   1.000  O
  O31      1.0000 0.38210  0.57210  0.18030  Biso   1.000  O
  O32      1.0000 0.61790  0.42790  0.81970  Biso   1.000  O
  O33      1.0000 0.73170  0.44010  0.19558  Biso   1.000  O
  O34      1.0000 0.26830  0.55990  0.80442  Biso   1.000  O
  O35      1.0000 0.33020  0.34790  0.09111  Biso   1.000  O
  O36      1.0000 0.66980  0.65210  0.90889  Biso   1.000  O
  O37      1.0000 0.23490  0.66640  0.59730  Biso   1.000  O
  O38      1.0000 0.76510  0.33360  0.40270  Biso   1.000  O
  O39      1.0000 0.89630  0.54760  0.68952  Biso   1.000  O
  O40      1.0000 0.10370  0.45240  0.31048  Biso   1.000  O
  H61      1.0000 0.76350  0.49020  0.22350  Biso   1.000  H
  H62      1.0000 0.23650  0.50980  0.77650  Biso   1.000  H
  H63      1.0000 0.76910  0.38700  0.20840  Biso   1.000  H
  H64      1.0000 0.23090  0.61300  0.79160  Biso   1.000  H
  H65      1.0000 0.29910  0.35280  0.12370  Biso   1.000  H
  H66      1.0000 0.70090  0.64720  0.87630  Biso   1.000  H
  H67      1.0000 0.29780  0.39550  0.07060  Biso   1.000  H
  H68      1.0000 0.70220  0.60450  0.92940  Biso   1.000  H
  H69      1.0000 0.25230  0.61680  0.57550  Biso   1.000  H
  H70      1.0000 0.74770  0.38320  0.42450  Biso   1.000  H
  H71      1.0000 0.30280  0.72540  0.59130  Biso   1.000  H
  H72      1.0000 0.69720  0.27460  0.40870  Biso   1.000  H
  H73      1.0000 0.86910  0.57950  0.71800  Biso   1.000  H
  H74      1.0000 0.13090  0.42050  0.28200  Biso   1.000  H
  H75      1.0000 0.86340  0.47810  0.69520  Biso   1.000  H
  H76      1.0000 0.13660  0.52190  0.30480  Biso   1.000  H
  O41      1.0000 0.79890  0.62020  0.77937  Biso   1.000  O
  O42      1.0000 0.20110  0.37980  0.22063  Biso   1.000  O
  O43      1.0000 0.02470  0.29370  0.78030  Biso   1.000  O
  O44      1.0000 0.97530  0.70630  0.21970  Biso   1.000  O
  O45      1.0000 0.76180  0.33790  0.72240  Biso   1.000  O
  O46      1.0000 0.23820  0.66210  0.27760  Biso   1.000  O
