data_image0
_cell_length_a       9.628
_cell_length_b       19.315
_cell_length_c       14.872
_cell_angle_alpha    90
_cell_angle_beta     108.705
_cell_angle_gamma    90

_symmetry_space_group_name_H-M    "P 1"
_symmetry_int_tables_number       1

loop_
  _symmetry_equiv_pos_as_xyz
  'x, y, z'

loop_
  _atom_site_label
  _atom_site_occupancy
  _atom_site_fract_x
  _atom_site_fract_y
  _atom_site_fract_z
  _atom_site_thermal_displace_type
  _atom_site_B_iso_or_equiv
  _atom_site_type_symbol
  Cu1      1.0000 0.38471  0.48670  0.92346  Biso   1.000  Cu
  Cu2      1.0000 0.11529  0.98670  0.07654  Biso   1.000  Cu
  Cu3      1.0000 0.61529  0.51330  0.07654  Biso   1.000  Cu
  Cu4      1.0000 0.88471  0.01330  0.92346  Biso   1.000  Cu
  Cu5      1.0000 0.14904  0.29379  0.51515  Biso   1.000  Cu
  Cu6      1.0000 0.35096  0.79379  0.48485  Biso   1.000  Cu
  Cu7      1.0000 0.85096  0.70621  0.48485  Biso   1.000  Cu
  Cu8      1.0000 0.64904  0.20621  0.51515  Biso   1.000  Cu
  N1       1.0000 0.20080  0.46680  0.79410  Biso   1.000  N
  N2       1.0000 0.29920  0.96680  0.20590  Biso   1.000  N
  N3       1.0000 0.79920  0.53320  0.20590  Biso   1.000  N
  N4       1.0000 0.70080  0.03320  0.79410  Biso   1.000  N
  C1       1.0000 0.08280  0.50560  0.78060  Biso   1.000  C
  C2       1.0000 0.41720  0.00560  0.21940  Biso   1.000  C
  C3       1.0000 0.91720  0.49440  0.21940  Biso   1.000  C
  C4       1.0000 0.58280  0.99440  0.78060  Biso   1.000  C
  H1       1.0000 0.08910  0.53950  0.82610  Biso   1.000  H
  H2       1.0000 0.41090  0.03950  0.17390  Biso   1.000  H
  H3       1.0000 0.91090  0.46050  0.17390  Biso   1.000  H
  H4       1.0000 0.58910  0.96050  0.82610  Biso   1.000  H
  N5       1.0000 0.95580  0.50210  0.71010  Biso   1.000  N
  N6       1.0000 0.54420  0.00210  0.28990  Biso   1.000  N
  N7       1.0000 0.04420  0.49790  0.28990  Biso   1.000  N
  N8       1.0000 0.45580  0.99790  0.71010  Biso   1.000  N
  C5       1.0000 0.96390  0.45180  0.64970  Biso   1.000  C
  C6       1.0000 0.53610  0.95180  0.35030  Biso   1.000  C
  C7       1.0000 0.03610  0.54820  0.35030  Biso   1.000  C
  C8       1.0000 0.46390  0.04820  0.64970  Biso   1.000  C
  C9       1.0000 0.07770  0.40570  0.65040  Biso   1.000  C
  C10      1.0000 0.42230  0.90570  0.34960  Biso   1.000  C
  C11      1.0000 0.92230  0.59430  0.34960  Biso   1.000  C
  C12      1.0000 0.57770  0.09430  0.65040  Biso   1.000  C
  C13      1.0000 0.20310  0.41250  0.72890  Biso   1.000  C
  C14      1.0000 0.29690  0.91250  0.27110  Biso   1.000  C
  C15      1.0000 0.79690  0.58750  0.27110  Biso   1.000  C
  C16      1.0000 0.70310  0.08750  0.72890  Biso   1.000  C
  N9       1.0000 0.32050  0.37040  0.74150  Biso   1.000  N
  N10      1.0000 0.17950  0.87040  0.25850  Biso   1.000  N
  N11      1.0000 0.67950  0.62960  0.25850  Biso   1.000  N
  N12      1.0000 0.82050  0.12960  0.74150  Biso   1.000  N
  H5       1.0000 0.31840  0.33870  0.70060  Biso   1.000  H
  H6       1.0000 0.18160  0.83870  0.29940  Biso   1.000  H
  H7       1.0000 0.68160  0.66130  0.29940  Biso   1.000  H
  H8       1.0000 0.81840  0.16130  0.70060  Biso   1.000  H
  H9       1.0000 0.39710  0.37550  0.79060  Biso   1.000  H
  H10      1.0000 0.10290  0.87550  0.20940  Biso   1.000  H
  H11      1.0000 0.60290  0.62450  0.20940  Biso   1.000  H
  H12      1.0000 0.89710  0.12450  0.79060  Biso   1.000  H
  N13      1.0000 0.04420  0.36080  0.57680  Biso   1.000  N
  N14      1.0000 0.45580  0.86080  0.42320  Biso   1.000  N
  N15      1.0000 0.95580  0.63920  0.42320  Biso   1.000  N
  N16      1.0000 0.54420  0.13920  0.57680  Biso   1.000  N
  C17      1.0000 0.90610  0.37780  0.52880  Biso   1.000  C
  C18      1.0000 0.59390  0.87780  0.47120  Biso   1.000  C
  C19      1.0000 0.09390  0.62220  0.47120  Biso   1.000  C
  C20      1.0000 0.40610  0.12220  0.52880  Biso   1.000  C
  H13      1.0000 0.85010  0.35570  0.47350  Biso   1.000  H
  H14      1.0000 0.64990  0.85570  0.52650  Biso   1.000  H
  H15      1.0000 0.14990  0.64430  0.52650  Biso   1.000  H
  H16      1.0000 0.35010  0.14430  0.47350  Biso   1.000  H
  N17      1.0000 0.85630  0.43120  0.57000  Biso   1.000  N
  N18      1.0000 0.64370  0.93120  0.43000  Biso   1.000  N
  N19      1.0000 0.14370  0.56880  0.43000  Biso   1.000  N
  N20      1.0000 0.35630  0.06880  0.57000  Biso   1.000  N
  C21      1.0000 0.70050  0.46240  0.52810  Biso   1.000  C
  C22      1.0000 0.79950  0.96240  0.47190  Biso   1.000  C
  C23      1.0000 0.29950  0.53760  0.47190  Biso   1.000  C
  C24      1.0000 0.20050  0.03760  0.52810  Biso   1.000  C
  H17      1.0000 0.66920  0.48050  0.57850  Biso   1.000  H
  H18      1.0000 0.83080  0.98050  0.42150  Biso   1.000  H
  H19      1.0000 0.33080  0.51950  0.42150  Biso   1.000  H
  H20      1.0000 0.16920  0.01950  0.57850  Biso   1.000  H
  H21      1.0000 0.63360  0.42700  0.49490  Biso   1.000  H
  H22      1.0000 0.86640  0.92700  0.50510  Biso   1.000  H
  H23      1.0000 0.36640  0.57300  0.50510  Biso   1.000  H
  H24      1.0000 0.13360  0.07300  0.49490  Biso   1.000  H
  H25      1.0000 0.70210  0.49900  0.48480  Biso   1.000  H
  H26      1.0000 0.79790  0.99900  0.51520  Biso   1.000  H
  H27      1.0000 0.29790  0.50100  0.51520  Biso   1.000  H
  H28      1.0000 0.20210  0.00100  0.48480  Biso   1.000  H
  C25      1.0000 0.44810  0.31520  0.10790  Biso   1.000  C
  C26      1.0000 0.05190  0.81520  0.89210  Biso   1.000  C
  C27      1.0000 0.55190  0.68480  0.89210  Biso   1.000  C
  C28      1.0000 0.94810  0.18480  0.10790  Biso   1.000  C
  C29      1.0000 0.51430  0.30480  0.20490  Biso   1.000  C
  C30      1.0000 0.98570  0.80480  0.79510  Biso   1.000  C
  C31      1.0000 0.48570  0.69520  0.79510  Biso   1.000  C
  C32      1.0000 0.01430  0.19520  0.20490  Biso   1.000  C
  H29      1.0000 0.58020  0.33730  0.24090  Biso   1.000  H
  H30      1.0000 0.91980  0.83730  0.75910  Biso   1.000  H
  H31      1.0000 0.41980  0.66270  0.75910  Biso   1.000  H
  H32      1.0000 0.08020  0.16270  0.24090  Biso   1.000  H
  C33      1.0000 0.48190  0.24600  0.24810  Biso   1.000  C
  C34      1.0000 0.01810  0.74600  0.75190  Biso   1.000  C
  C35      1.0000 0.51810  0.75400  0.75190  Biso   1.000  C
  C36      1.0000 0.98190  0.25400  0.24810  Biso   1.000  C
  C37      1.0000 0.38480  0.19660  0.19350  Biso   1.000  C
  C38      1.0000 0.11520  0.69660  0.80650  Biso   1.000  C
  C39      1.0000 0.61520  0.80340  0.80650  Biso   1.000  C
  C40      1.0000 0.88480  0.30340  0.19350  Biso   1.000  C
  H33      1.0000 0.36080  0.15780  0.22240  Biso   1.000  H
  H34      1.0000 0.13920  0.65780  0.77760  Biso   1.000  H
  H35      1.0000 0.63920  0.84220  0.77760  Biso   1.000  H
  H36      1.0000 0.86080  0.34220  0.22240  Biso   1.000  H
  C41      1.0000 0.32390  0.20570  0.09560  Biso   1.000  C
  C42      1.0000 0.17610  0.70570  0.90440  Biso   1.000  C
  C43      1.0000 0.67610  0.79430  0.90440  Biso   1.000  C
  C44      1.0000 0.82390  0.29430  0.09560  Biso   1.000  C
  H37      1.0000 0.26270  0.17190  0.05890  Biso   1.000  H
  H38      1.0000 0.23730  0.67190  0.94110  Biso   1.000  H
  H39      1.0000 0.73730  0.82810  0.94110  Biso   1.000  H
  H40      1.0000 0.76270  0.32810  0.05890  Biso   1.000  H
  C45      1.0000 0.35420  0.26460  0.05300  Biso   1.000  C
  C46      1.0000 0.14580  0.76460  0.94700  Biso   1.000  C
  C47      1.0000 0.64580  0.73540  0.94700  Biso   1.000  C
  C48      1.0000 0.85420  0.23540  0.05300  Biso   1.000  C
  H41      1.0000 0.31240  0.27080  0.98780  Biso   1.000  H
  H42      1.0000 0.18760  0.77080  0.01220  Biso   1.000  H
  H43      1.0000 0.68760  0.72920  0.01220  Biso   1.000  H
  H44      1.0000 0.81240  0.22920  0.98780  Biso   1.000  H
  C49      1.0000 0.47140  0.38219  0.06420  Biso   1.000  C
  C50      1.0000 0.02860  0.88219  0.93580  Biso   1.000  C
  C51      1.0000 0.52860  0.61781  0.93580  Biso   1.000  C
  C52      1.0000 0.97140  0.11781  0.06420  Biso   1.000  C
  O1       1.0000 0.38180  0.39670  0.98360  Biso   1.000  O
  O2       1.0000 0.11820  0.89670  0.01640  Biso   1.000  O
  O3       1.0000 0.61820  0.60330  0.01640  Biso   1.000  O
  O4       1.0000 0.88180  0.10330  0.98360  Biso   1.000  O
  O5       1.0000 0.57600  0.41956  0.11240  Biso   1.000  O
  O6       1.0000 0.92400  0.91956  0.88760  Biso   1.000  O
  O7       1.0000 0.42400  0.58044  0.88760  Biso   1.000  O
  O8       1.0000 0.07600  0.08044  0.11240  Biso   1.000  O
  C53      1.0000 0.54770  0.23500  0.35210  Biso   1.000  C
  C54      1.0000 0.95230  0.73500  0.64790  Biso   1.000  C
  C55      1.0000 0.45230  0.76500  0.64790  Biso   1.000  C
  C56      1.0000 0.04770  0.26500  0.35210  Biso   1.000  C
  O9       1.0000 0.63750  0.27724  0.40470  Biso   1.000  O
  O10      1.0000 0.86250  0.77724  0.59530  Biso   1.000  O
  O11      1.0000 0.36250  0.72276  0.59530  Biso   1.000  O
  O12      1.0000 0.13750  0.22276  0.40470  Biso   1.000  O
  O13      1.0000 0.51340  0.18129  0.38910  Biso   1.000  O
  O14      1.0000 0.98660  0.68129  0.61090  Biso   1.000  O
  O15      1.0000 0.48660  0.81871  0.61090  Biso   1.000  O
  O16      1.0000 0.01340  0.31871  0.38910  Biso   1.000  O
  C57      1.0000 0.28780  0.16760  0.75070  Biso   1.000  C
  C58      1.0000 0.21220  0.66760  0.24930  Biso   1.000  C
  C59      1.0000 0.71220  0.83240  0.24930  Biso   1.000  C
  C60      1.0000 0.78780  0.33240  0.75070  Biso   1.000  C
  C61      1.0000 0.20750  0.12460  0.79060  Biso   1.000  C
  C62      1.0000 0.29250  0.62460  0.20940  Biso   1.000  C
  C63      1.0000 0.79250  0.87540  0.20940  Biso   1.000  C
  C64      1.0000 0.70750  0.37540  0.79060  Biso   1.000  C
  H45      1.0000 0.10860  0.11700  0.75830  Biso   1.000  H
  H46      1.0000 0.39140  0.61700  0.24170  Biso   1.000  H
  H47      1.0000 0.89140  0.88300  0.24170  Biso   1.000  H
  H48      1.0000 0.60860  0.38300  0.75830  Biso   1.000  H
  C65      1.0000 0.27220  0.09260  0.87820  Biso   1.000  C
  C66      1.0000 0.22780  0.59260  0.12180  Biso   1.000  C
  C67      1.0000 0.72780  0.90740  0.12180  Biso   1.000  C
  C68      1.0000 0.77220  0.40740  0.87820  Biso   1.000  C
  C69      1.0000 0.42290  0.10170  0.92400  Biso   1.000  C
  C70      1.0000 0.07710  0.60170  0.07600  Biso   1.000  C
  C71      1.0000 0.57710  0.89830  0.07600  Biso   1.000  C
  C72      1.0000 0.92290  0.39830  0.92400  Biso   1.000  C
  H49      1.0000 0.46860  0.07970  0.98150  Biso   1.000  H
  H50      1.0000 0.03140  0.57970  0.01850  Biso   1.000  H
  H51      1.0000 0.53140  0.92030  0.01850  Biso   1.000  H
  H52      1.0000 0.96860  0.42030  0.98150  Biso   1.000  H
  C73      1.0000 0.50450  0.14360  0.88330  Biso   1.000  C
  C74      1.0000 0.99550  0.64360  0.11670  Biso   1.000  C
  C75      1.0000 0.49550  0.85640  0.11670  Biso   1.000  C
  C76      1.0000 0.00450  0.35640  0.88330  Biso   1.000  C
  H53      1.0000 0.60480  0.14870  0.91340  Biso   1.000  H
  H54      1.0000 0.89520  0.64870  0.08660  Biso   1.000  H
  H55      1.0000 0.39520  0.85130  0.08660  Biso   1.000  H
  H56      1.0000 0.10480  0.35130  0.91340  Biso   1.000  H
  C77      1.0000 0.43760  0.17780  0.79870  Biso   1.000  C
  C78      1.0000 0.06240  0.67780  0.20130  Biso   1.000  C
  C79      1.0000 0.56240  0.82220  0.20130  Biso   1.000  C
  C80      1.0000 0.93760  0.32220  0.79870  Biso   1.000  C
  H57      1.0000 0.49190  0.20740  0.77360  Biso   1.000  H
  H58      1.0000 0.00810  0.70740  0.22640  Biso   1.000  H
  H59      1.0000 0.50810  0.79260  0.22640  Biso   1.000  H
  H60      1.0000 0.99190  0.29260  0.77360  Biso   1.000  H
  C81      1.0000 0.20820  0.20160  0.65700  Biso   1.000  C
  C82      1.0000 0.29180  0.70160  0.34300  Biso   1.000  C
  C83      1.0000 0.79180  0.79840  0.34300  Biso   1.000  C
  C84      1.0000 0.70820  0.29840  0.65700  Biso   1.000  C
  O17      1.0000 0.27700  0.24929  0.62840  Biso   1.000  O
  O18      1.0000 0.22300  0.74929  0.37160  Biso   1.000  O
  O19      1.0000 0.72300  0.75071  0.37160  Biso   1.000  O
  O20      1.0000 0.77700  0.25071  0.62840  Biso   1.000  O
  O21      1.0000 0.08250  0.18380  0.61340  Biso   1.000  O
  O22      1.0000 0.41750  0.68380  0.38660  Biso   1.000  O
  O23      1.0000 0.91750  0.81620  0.38660  Biso   1.000  O
  O24      1.0000 0.58250  0.31620  0.61340  Biso   1.000  O
  C85      1.0000 0.17810  0.05280  0.92320  Biso   1.000  C
  C86      1.0000 0.32190  0.55280  0.07680  Biso   1.000  C
  C87      1.0000 0.82190  0.94720  0.07680  Biso   1.000  C
  C88      1.0000 0.67810  0.44720  0.92320  Biso   1.000  C
  O25      1.0000 0.04270  0.04961  0.87770  Biso   1.000  O
  O26      1.0000 0.45730  0.54961  0.12230  Biso   1.000  O
  O27      1.0000 0.95730  0.95039  0.12230  Biso   1.000  O
  O28      1.0000 0.54270  0.45039  0.87770  Biso   1.000  O
  O29      1.0000 0.23810  0.02670  0.00400  Biso   1.000  O
  O30      1.0000 0.26190  0.52670  0.99600  Biso   1.000  O
  O31      1.0000 0.76190  0.97330  0.99600  Biso   1.000  O
  O32      1.0000 0.73810  0.47330  0.00400  Biso   1.000  O
  O33      1.0000 0.32290  0.35810  0.49760  Biso   1.000  O
  O34      1.0000 0.17710  0.85810  0.50240  Biso   1.000  O
  O35      1.0000 0.67710  0.64190  0.50240  Biso   1.000  O
  O36      1.0000 0.82290  0.14190  0.49760  Biso   1.000  O
  H61      1.0000 0.30890  0.35360  0.42430  Biso   1.000  H
  H62      1.0000 0.19110  0.85360  0.57570  Biso   1.000  H
  H63      1.0000 0.69110  0.64640  0.57570  Biso   1.000  H
  H64      1.0000 0.80890  0.14640  0.42430  Biso   1.000  H
  H65      1.0000 0.42190  0.33320  0.53990  Biso   1.000  H
  H66      1.0000 0.07810  0.83320  0.46010  Biso   1.000  H
  H67      1.0000 0.57810  0.66680  0.46010  Biso   1.000  H
  H68      1.0000 0.92190  0.16680  0.53990  Biso   1.000  H
  O37      1.0000 0.25860  0.39890  0.31010  Biso   1.000  O
  O38      1.0000 0.24140  0.89890  0.68990  Biso   1.000  O
  O39      1.0000 0.74140  0.60110  0.68990  Biso   1.000  O
  O40      1.0000 0.75860  0.10110  0.31010  Biso   1.000  O
