data_image0
_cell_length_a       8.714
_cell_length_b       11.272
_cell_length_c       14.997
_cell_angle_alpha    90
_cell_angle_beta     94.629
_cell_angle_gamma    90

_symmetry_space_group_name_H-M    "P 1"
_symmetry_int_tables_number       1

loop_
  _symmetry_equiv_pos_as_xyz
  'x, y, z'

loop_
  _atom_site_label
  _atom_site_occupancy
  _atom_site_fract_x
  _atom_site_fract_y
  _atom_site_fract_z
  _atom_site_thermal_displace_type
  _atom_site_B_iso_or_equiv
  _atom_site_type_symbol
  Br1      1.0000 0.85800  0.68174  0.15287  Biso   1.000  Br
  Br2      1.0000 0.14200  0.18174  0.34713  Biso   1.000  Br
  Br3      1.0000 0.14200  0.31826  0.84713  Biso   1.000  Br
  Br4      1.0000 0.85800  0.81826  0.65287  Biso   1.000  Br
  Cu1      1.0000 0.59502  0.64083  0.11268  Biso   1.000  Cu
  Cu2      1.0000 0.40498  0.14083  0.38732  Biso   1.000  Cu
  Cu3      1.0000 0.40498  0.35917  0.88732  Biso   1.000  Cu
  Cu4      1.0000 0.59502  0.85917  0.61268  Biso   1.000  Cu
  S1       1.0000 0.56000  0.76710  0.99666  Biso   1.000  S
  S2       1.0000 0.44000  0.26710  0.50334  Biso   1.000  S
  S3       1.0000 0.44000  0.23290  0.00334  Biso   1.000  S
  S4       1.0000 0.56000  0.73290  0.49666  Biso   1.000  S
  N1       1.0000 0.29900  0.63680  0.00460  Biso   1.000  N
  N2       1.0000 0.70100  0.13680  0.49540  Biso   1.000  N
  N3       1.0000 0.70100  0.36320  0.99540  Biso   1.000  N
  N4       1.0000 0.29900  0.86320  0.50460  Biso   1.000  N
  N5       1.0000 0.29180  0.77840  0.89840  Biso   1.000  N
  N6       1.0000 0.70820  0.27840  0.60160  Biso   1.000  N
  N7       1.0000 0.70820  0.22160  0.10160  Biso   1.000  N
  N8       1.0000 0.29180  0.72160  0.39840  Biso   1.000  N
  N9       1.0000 0.39130  0.58330  0.07030  Biso   1.000  N
  N10      1.0000 0.60870  0.08330  0.42970  Biso   1.000  N
  N11      1.0000 0.60870  0.41670  0.92970  Biso   1.000  N
  N12      1.0000 0.39130  0.91670  0.57030  Biso   1.000  N
  N13      1.0000 0.57690  0.49750  0.19550  Biso   1.000  N
  N14      1.0000 0.42310  0.99750  0.30450  Biso   1.000  N
  N15      1.0000 0.42310  0.50250  0.80450  Biso   1.000  N
  N16      1.0000 0.57690  0.00250  0.69550  Biso   1.000  N
  N17      1.0000 0.51030  0.29270  0.28630  Biso   1.000  N
  N18      1.0000 0.48970  0.79270  0.21370  Biso   1.000  N
  N19      1.0000 0.48970  0.70730  0.71370  Biso   1.000  N
  N20      1.0000 0.51030  0.20730  0.78630  Biso   1.000  N
  C1       1.0000 0.37330  0.72410  0.96600  Biso   1.000  C
  C2       1.0000 0.62670  0.22410  0.53400  Biso   1.000  C
  C3       1.0000 0.62670  0.27590  0.03400  Biso   1.000  C
  C4       1.0000 0.37330  0.77590  0.46600  Biso   1.000  C
  C5       1.0000 0.41220  0.33890  0.22510  Biso   1.000  C
  C6       1.0000 0.58780  0.83890  0.27490  Biso   1.000  C
  C7       1.0000 0.58780  0.66110  0.77490  Biso   1.000  C
  C8       1.0000 0.41220  0.16110  0.72510  Biso   1.000  C
  H1       1.0000 0.31850  0.30070  0.21210  Biso   1.000  H
  H2       1.0000 0.68150  0.80070  0.28790  Biso   1.000  H
  H3       1.0000 0.68150  0.69930  0.78790  Biso   1.000  H
  H4       1.0000 0.31850  0.19930  0.71210  Biso   1.000  H
  C9       1.0000 0.33310  0.49590  0.11180  Biso   1.000  C
  C10      1.0000 0.66690  0.99590  0.38820  Biso   1.000  C
  C11      1.0000 0.66690  0.50410  0.88820  Biso   1.000  C
  C12      1.0000 0.33310  0.00410  0.61180  Biso   1.000  C
  C13      1.0000 0.12970  0.74930  0.87280  Biso   1.000  C
  C14      1.0000 0.87030  0.24930  0.62720  Biso   1.000  C
  C15      1.0000 0.87030  0.25070  0.12720  Biso   1.000  C
  C16      1.0000 0.12970  0.75070  0.37280  Biso   1.000  C
  H5       1.0000 0.10620  0.67140  0.89560  Biso   1.000  H
  H6       1.0000 0.89380  0.17140  0.60440  Biso   1.000  H
  H7       1.0000 0.89380  0.32860  0.10440  Biso   1.000  H
  H8       1.0000 0.10620  0.82860  0.39560  Biso   1.000  H
  H9       1.0000 0.11230  0.74740  0.80820  Biso   1.000  H
  H10      1.0000 0.88770  0.24740  0.69180  Biso   1.000  H
  H11      1.0000 0.88770  0.25260  0.19180  Biso   1.000  H
  H12      1.0000 0.11230  0.75260  0.30820  Biso   1.000  H
  C17      1.0000 0.67640  0.45100  0.25690  Biso   1.000  C
  C18      1.0000 0.32360  0.95100  0.24310  Biso   1.000  C
  C19      1.0000 0.32360  0.54900  0.74310  Biso   1.000  C
  C20      1.0000 0.67640  0.04900  0.75690  Biso   1.000  C
  H13      1.0000 0.77140  0.48750  0.26950  Biso   1.000  H
  H14      1.0000 0.22860  0.98750  0.23050  Biso   1.000  H
  H15      1.0000 0.22860  0.51250  0.73050  Biso   1.000  H
  H16      1.0000 0.77140  0.01250  0.76950  Biso   1.000  H
  C21      1.0000 0.64220  0.34900  0.30280  Biso   1.000  C
  C22      1.0000 0.35780  0.84900  0.19720  Biso   1.000  C
  C23      1.0000 0.35780  0.65100  0.69720  Biso   1.000  C
  C24      1.0000 0.64220  0.15100  0.80280  Biso   1.000  C
  H17      1.0000 0.71410  0.31950  0.34640  Biso   1.000  H
  H18      1.0000 0.28590  0.81950  0.15360  Biso   1.000  H
  H19      1.0000 0.28590  0.68050  0.65360  Biso   1.000  H
  H20      1.0000 0.71410  0.18050  0.84640  Biso   1.000  H
  C25      1.0000 0.33270  0.89500  0.86530  Biso   1.000  C
  C26      1.0000 0.66730  0.39500  0.63470  Biso   1.000  C
  C27      1.0000 0.66730  0.10500  0.13470  Biso   1.000  C
  C28      1.0000 0.33270  0.60500  0.36530  Biso   1.000  C
  H21      1.0000 0.32030  0.89570  0.80050  Biso   1.000  H
  H22      1.0000 0.67970  0.39570  0.69950  Biso   1.000  H
  H23      1.0000 0.67970  0.10430  0.19950  Biso   1.000  H
  H24      1.0000 0.32030  0.60430  0.30050  Biso   1.000  H
  H25      1.0000 0.43960  0.91220  0.88380  Biso   1.000  H
  H26      1.0000 0.56040  0.41220  0.61620  Biso   1.000  H
  H27      1.0000 0.56040  0.08780  0.11620  Biso   1.000  H
  H28      1.0000 0.43960  0.58780  0.38380  Biso   1.000  H
  C29      1.0000 0.44140  0.44180  0.17890  Biso   1.000  C
  C30      1.0000 0.55860  0.94180  0.32110  Biso   1.000  C
  C31      1.0000 0.55860  0.55820  0.82110  Biso   1.000  C
  C32      1.0000 0.44140  0.05820  0.67890  Biso   1.000  C
  C33      1.0000 0.06450  0.96340  0.87900  Biso   1.000  C
  C34      1.0000 0.93550  0.46340  0.62100  Biso   1.000  C
  C35      1.0000 0.93550  0.03660  0.12100  Biso   1.000  C
  C36      1.0000 0.06450  0.53660  0.37900  Biso   1.000  C
  H29      1.0000 0.04230  0.96930  0.81480  Biso   1.000  H
  H30      1.0000 0.95770  0.46930  0.68520  Biso   1.000  H
  H31      1.0000 0.95770  0.03070  0.18520  Biso   1.000  H
  H32      1.0000 0.04230  0.53070  0.31480  Biso   1.000  H
  H33      1.0000 0.00150  0.02110  0.90720  Biso   1.000  H
  H34      1.0000 0.99850  0.52110  0.59280  Biso   1.000  H
  H35      1.0000 0.99850  0.97890  0.09280  Biso   1.000  H
  H36      1.0000 0.00150  0.47890  0.40720  Biso   1.000  H
  C37      1.0000 0.17360  0.45360  0.09450  Biso   1.000  C
  C38      1.0000 0.82640  0.95360  0.40550  Biso   1.000  C
  C39      1.0000 0.82640  0.54640  0.90550  Biso   1.000  C
  C40      1.0000 0.17360  0.04640  0.59450  Biso   1.000  C
  H37      1.0000 0.10430  0.51980  0.09440  Biso   1.000  H
  H38      1.0000 0.89570  0.01980  0.40560  Biso   1.000  H
  H39      1.0000 0.89570  0.48020  0.90560  Biso   1.000  H
  H40      1.0000 0.10430  0.98020  0.59440  Biso   1.000  H
  H41      1.0000 0.15040  0.39870  0.14050  Biso   1.000  H
  H42      1.0000 0.84960  0.89870  0.35950  Biso   1.000  H
  H43      1.0000 0.84960  0.60130  0.85950  Biso   1.000  H
  H44      1.0000 0.15040  0.10130  0.64050  Biso   1.000  H
  H45      1.0000 0.16230  0.41470  0.03740  Biso   1.000  H
  H46      1.0000 0.83770  0.91470  0.46260  Biso   1.000  H
  H47      1.0000 0.83770  0.58530  0.96260  Biso   1.000  H
  H48      1.0000 0.16230  0.08530  0.53740  Biso   1.000  H
  C41      1.0000 0.22900  0.98950  0.90250  Biso   1.000  C
  C42      1.0000 0.77100  0.48950  0.59750  Biso   1.000  C
  C43      1.0000 0.77100  0.01050  0.09750  Biso   1.000  C
  C44      1.0000 0.22900  0.51050  0.40250  Biso   1.000  C
  H49      1.0000 0.24820  0.99280  0.96710  Biso   1.000  H
  H50      1.0000 0.75180  0.49280  0.53290  Biso   1.000  H
  H51      1.0000 0.75180  0.00720  0.03290  Biso   1.000  H
  H52      1.0000 0.24820  0.50720  0.46710  Biso   1.000  H
  H53      1.0000 0.25380  0.06640  0.87860  Biso   1.000  H
  H54      1.0000 0.74620  0.56640  0.62140  Biso   1.000  H
  H55      1.0000 0.74620  0.93360  0.12140  Biso   1.000  H
  H56      1.0000 0.25380  0.43360  0.37860  Biso   1.000  H
  C45      1.0000 0.02560  0.83990  0.90980  Biso   1.000  C
  C46      1.0000 0.97440  0.33990  0.59020  Biso   1.000  C
  C47      1.0000 0.97440  0.16010  0.09020  Biso   1.000  C
  C48      1.0000 0.02560  0.66010  0.40980  Biso   1.000  C
  H57      1.0000 0.03640  0.83680  0.97470  Biso   1.000  H
  H58      1.0000 0.96360  0.33680  0.52530  Biso   1.000  H
  H59      1.0000 0.96360  0.16320  0.02530  Biso   1.000  H
  H60      1.0000 0.03640  0.66320  0.47470  Biso   1.000  H
  H61      1.0000 0.91940  0.82170  0.89020  Biso   1.000  H
  H62      1.0000 0.08060  0.32170  0.60980  Biso   1.000  H
  H63      1.0000 0.08060  0.17830  0.10980  Biso   1.000  H
  H64      1.0000 0.91940  0.67830  0.39020  Biso   1.000  H
