data_image0
_cell_length_a       18.592
_cell_length_b       14.723
_cell_length_c       13.755
_cell_angle_alpha    90
_cell_angle_beta     90
_cell_angle_gamma    90

_symmetry_space_group_name_H-M    "P 1"
_symmetry_int_tables_number       1

loop_
  _symmetry_equiv_pos_as_xyz
  'x, y, z'

loop_
  _atom_site_label
  _atom_site_occupancy
  _atom_site_fract_x
  _atom_site_fract_y
  _atom_site_fract_z
  _atom_site_thermal_displace_type
  _atom_site_B_iso_or_equiv
  _atom_site_type_symbol
  Cu1      1.0000 0.32389  0.16131  0.39403  Biso   1.000  Cu
  Cu2      1.0000 0.17611  0.33869  0.89403  Biso   1.000  Cu
  Cu3      1.0000 0.82389  0.33869  0.60597  Biso   1.000  Cu
  Cu4      1.0000 0.67611  0.16131  0.10597  Biso   1.000  Cu
  Cu5      1.0000 0.67611  0.83869  0.60597  Biso   1.000  Cu
  Cu6      1.0000 0.82389  0.66131  0.10597  Biso   1.000  Cu
  Cu7      1.0000 0.17611  0.66131  0.39403  Biso   1.000  Cu
  Cu8      1.0000 0.32389  0.83869  0.89403  Biso   1.000  Cu
  O1       1.0000 0.22010  0.16180  0.40490  Biso   1.000  O
  O2       1.0000 0.27990  0.33820  0.90490  Biso   1.000  O
  O3       1.0000 0.72010  0.33820  0.59510  Biso   1.000  O
  O4       1.0000 0.77990  0.16180  0.09510  Biso   1.000  O
  O5       1.0000 0.77990  0.83820  0.59510  Biso   1.000  O
  O6       1.0000 0.72010  0.66180  0.09510  Biso   1.000  O
  O7       1.0000 0.27990  0.66180  0.40490  Biso   1.000  O
  O8       1.0000 0.22010  0.83820  0.90490  Biso   1.000  O
  H1       1.0000 0.20600  0.13300  0.46400  Biso   1.000  H
  H2       1.0000 0.29400  0.36700  0.96400  Biso   1.000  H
  H3       1.0000 0.70600  0.36700  0.53600  Biso   1.000  H
  H4       1.0000 0.79400  0.13300  0.03600  Biso   1.000  H
  H5       1.0000 0.79400  0.86700  0.53600  Biso   1.000  H
  H6       1.0000 0.70600  0.63300  0.03600  Biso   1.000  H
  H7       1.0000 0.29400  0.63300  0.46400  Biso   1.000  H
  H8       1.0000 0.20600  0.86700  0.96400  Biso   1.000  H
  H9       1.0000 0.19800  0.13700  0.34900  Biso   1.000  H
  H10      1.0000 0.30200  0.36300  0.84900  Biso   1.000  H
  H11      1.0000 0.69800  0.36300  0.65100  Biso   1.000  H
  H12      1.0000 0.80200  0.13700  0.15100  Biso   1.000  H
  H13      1.0000 0.80200  0.86300  0.65100  Biso   1.000  H
  H14      1.0000 0.69800  0.63700  0.15100  Biso   1.000  H
  H15      1.0000 0.30200  0.63700  0.34900  Biso   1.000  H
  H16      1.0000 0.19800  0.86300  0.84900  Biso   1.000  H
  N1       1.0000 0.43200  0.15120  0.38400  Biso   1.000  N
  N2       1.0000 0.06800  0.34880  0.88400  Biso   1.000  N
  N3       1.0000 0.93200  0.34880  0.61600  Biso   1.000  N
  N4       1.0000 0.56800  0.15120  0.11600  Biso   1.000  N
  N5       1.0000 0.56800  0.84880  0.61600  Biso   1.000  N
  N6       1.0000 0.93200  0.65120  0.11600  Biso   1.000  N
  N7       1.0000 0.06800  0.65120  0.38400  Biso   1.000  N
  N8       1.0000 0.43200  0.84880  0.88400  Biso   1.000  N
  C1       1.0000 0.48170  0.21970  0.37920  Biso   1.000  C
  C2       1.0000 0.01830  0.28030  0.87920  Biso   1.000  C
  C3       1.0000 0.98170  0.28030  0.62080  Biso   1.000  C
  C4       1.0000 0.51830  0.21970  0.12080  Biso   1.000  C
  C5       1.0000 0.51830  0.78030  0.62080  Biso   1.000  C
  C6       1.0000 0.98170  0.71970  0.12080  Biso   1.000  C
  C7       1.0000 0.01830  0.71970  0.37920  Biso   1.000  C
  C8       1.0000 0.48170  0.78030  0.87920  Biso   1.000  C
  C9       1.0000 0.55210  0.19990  0.36850  Biso   1.000  C
  C10      1.0000 0.94790  0.30010  0.86850  Biso   1.000  C
  C11      1.0000 0.05210  0.30010  0.63150  Biso   1.000  C
  C12      1.0000 0.44790  0.19990  0.13150  Biso   1.000  C
  C13      1.0000 0.44790  0.80010  0.63150  Biso   1.000  C
  C14      1.0000 0.05210  0.69990  0.13150  Biso   1.000  C
  C15      1.0000 0.94790  0.69990  0.36850  Biso   1.000  C
  C16      1.0000 0.55210  0.80010  0.86850  Biso   1.000  C
  C17      1.0000 0.57240  0.10830  0.36490  Biso   1.000  C
  C18      1.0000 0.92760  0.39170  0.86490  Biso   1.000  C
  C19      1.0000 0.07240  0.39170  0.63510  Biso   1.000  C
  C20      1.0000 0.42760  0.10830  0.13510  Biso   1.000  C
  C21      1.0000 0.42760  0.89170  0.63510  Biso   1.000  C
  C22      1.0000 0.07240  0.60830  0.13510  Biso   1.000  C
  C23      1.0000 0.92760  0.60830  0.36490  Biso   1.000  C
  C24      1.0000 0.57240  0.89170  0.86490  Biso   1.000  C
  N9       1.0000 0.52560  0.04150  0.37290  Biso   1.000  N
  N10      1.0000 0.97440  0.45850  0.87290  Biso   1.000  N
  N11      1.0000 0.02560  0.45850  0.62710  Biso   1.000  N
  N12      1.0000 0.47440  0.04150  0.12710  Biso   1.000  N
  N13      1.0000 0.47440  0.95850  0.62710  Biso   1.000  N
  N14      1.0000 0.02560  0.54150  0.12710  Biso   1.000  N
  N15      1.0000 0.97440  0.54150  0.37290  Biso   1.000  N
  N16      1.0000 0.52560  0.95850  0.87290  Biso   1.000  N
  C25      1.0000 0.45780  0.06740  0.38190  Biso   1.000  C
  C26      1.0000 0.04220  0.43260  0.88190  Biso   1.000  C
  C27      1.0000 0.95780  0.43260  0.61810  Biso   1.000  C
  C28      1.0000 0.54220  0.06740  0.11810  Biso   1.000  C
  C29      1.0000 0.54220  0.93260  0.61810  Biso   1.000  C
  C30      1.0000 0.95780  0.56740  0.11810  Biso   1.000  C
  C31      1.0000 0.04220  0.56740  0.38190  Biso   1.000  C
  C32      1.0000 0.45780  0.93260  0.88190  Biso   1.000  C
  C33      1.0000 0.45640  0.31670  0.38440  Biso   1.000  C
  C34      1.0000 0.04360  0.18330  0.88440  Biso   1.000  C
  C35      1.0000 0.95640  0.18330  0.61560  Biso   1.000  C
  C36      1.0000 0.54360  0.31670  0.11560  Biso   1.000  C
  C37      1.0000 0.54360  0.68330  0.61560  Biso   1.000  C
  C38      1.0000 0.95640  0.81670  0.11560  Biso   1.000  C
  C39      1.0000 0.04360  0.81670  0.38440  Biso   1.000  C
  C40      1.0000 0.45640  0.68330  0.88440  Biso   1.000  C
  O9       1.0000 0.64170  0.08910  0.35270  Biso   1.000  O
  O10      1.0000 0.85830  0.41090  0.85270  Biso   1.000  O
  O11      1.0000 0.14170  0.41090  0.64730  Biso   1.000  O
  O12      1.0000 0.35830  0.08910  0.14730  Biso   1.000  O
  O13      1.0000 0.35830  0.91090  0.64730  Biso   1.000  O
  O14      1.0000 0.14170  0.58910  0.14730  Biso   1.000  O
  O15      1.0000 0.85830  0.58910  0.35270  Biso   1.000  O
  O16      1.0000 0.64170  0.91090  0.85270  Biso   1.000  O
  C41      1.0000 0.66340  0.99440  0.35000  Biso   1.000  C
  C42      1.0000 0.83660  0.50560  0.85000  Biso   1.000  C
  C43      1.0000 0.16340  0.50560  0.65000  Biso   1.000  C
  C44      1.0000 0.33660  0.99440  0.15000  Biso   1.000  C
  C45      1.0000 0.33660  0.00560  0.65000  Biso   1.000  C
  C46      1.0000 0.16340  0.49440  0.15000  Biso   1.000  C
  C47      1.0000 0.83660  0.49440  0.35000  Biso   1.000  C
  C48      1.0000 0.66340  0.00560  0.85000  Biso   1.000  C
  N17      1.0000 0.33570  0.02420  0.39940  Biso   1.000  N
  N18      1.0000 0.16430  0.47580  0.89940  Biso   1.000  N
  N19      1.0000 0.83570  0.47580  0.60060  Biso   1.000  N
  N20      1.0000 0.66430  0.02420  0.10060  Biso   1.000  N
  N21      1.0000 0.66430  0.97580  0.60060  Biso   1.000  N
  N22      1.0000 0.83570  0.52420  0.10060  Biso   1.000  N
  N23      1.0000 0.16430  0.52420  0.39940  Biso   1.000  N
  N24      1.0000 0.33570  0.97580  0.89940  Biso   1.000  N
  N25      1.0000 0.40680  0.99860  0.38990  Biso   1.000  N
  N26      1.0000 0.09320  0.50140  0.88990  Biso   1.000  N
  N27      1.0000 0.90680  0.50140  0.61010  Biso   1.000  N
  N28      1.0000 0.59320  0.99860  0.11010  Biso   1.000  N
  N29      1.0000 0.59320  0.00140  0.61010  Biso   1.000  N
  N30      1.0000 0.90680  0.49860  0.11010  Biso   1.000  N
  N31      1.0000 0.09320  0.49860  0.38990  Biso   1.000  N
  N32      1.0000 0.40680  0.00140  0.88990  Biso   1.000  N
  C49      1.0000 0.41160  0.90510  0.38980  Biso   1.000  C
  C50      1.0000 0.08840  0.59490  0.88980  Biso   1.000  C
  C51      1.0000 0.91160  0.59490  0.61020  Biso   1.000  C
  C52      1.0000 0.58840  0.90510  0.11020  Biso   1.000  C
  C53      1.0000 0.58840  0.09490  0.61020  Biso   1.000  C
  C54      1.0000 0.91160  0.40510  0.11020  Biso   1.000  C
  C55      1.0000 0.08840  0.40510  0.38980  Biso   1.000  C
  C56      1.0000 0.41160  0.09490  0.88980  Biso   1.000  C
  C57      1.0000 0.34370  0.87280  0.39820  Biso   1.000  C
  C58      1.0000 0.15630  0.62720  0.89820  Biso   1.000  C
  C59      1.0000 0.84370  0.62720  0.60180  Biso   1.000  C
  C60      1.0000 0.65630  0.87280  0.10180  Biso   1.000  C
  C61      1.0000 0.65630  0.12720  0.60180  Biso   1.000  C
  C62      1.0000 0.84370  0.37280  0.10180  Biso   1.000  C
  C63      1.0000 0.15630  0.37280  0.39820  Biso   1.000  C
  C64      1.0000 0.34370  0.12720  0.89820  Biso   1.000  C
  C65      1.0000 0.29820  0.94650  0.40450  Biso   1.000  C
  C66      1.0000 0.20180  0.55350  0.90450  Biso   1.000  C
  C67      1.0000 0.79820  0.55350  0.59550  Biso   1.000  C
  C68      1.0000 0.70180  0.94650  0.09550  Biso   1.000  C
  C69      1.0000 0.70180  0.05350  0.59550  Biso   1.000  C
  C70      1.0000 0.79820  0.44650  0.09550  Biso   1.000  C
  C71      1.0000 0.20180  0.44650  0.40450  Biso   1.000  C
  C72      1.0000 0.29820  0.05350  0.90450  Biso   1.000  C
  O17      1.0000 0.47600  0.86650  0.38270  Biso   1.000  O
  O18      1.0000 0.02400  0.63350  0.88270  Biso   1.000  O
  O19      1.0000 0.97600  0.63350  0.61730  Biso   1.000  O
  O20      1.0000 0.52400  0.86650  0.11730  Biso   1.000  O
  O21      1.0000 0.52400  0.13350  0.61730  Biso   1.000  O
  O22      1.0000 0.97600  0.36650  0.11730  Biso   1.000  O
  O23      1.0000 0.02400  0.36650  0.38270  Biso   1.000  O
  O24      1.0000 0.47600  0.13350  0.88270  Biso   1.000  O
  C73      1.0000 0.47470  0.76830  0.37690  Biso   1.000  C
  C74      1.0000 0.02530  0.73170  0.87690  Biso   1.000  C
  C75      1.0000 0.97470  0.73170  0.62310  Biso   1.000  C
  C76      1.0000 0.52530  0.76830  0.12310  Biso   1.000  C
  C77      1.0000 0.52530  0.23170  0.62310  Biso   1.000  C
  C78      1.0000 0.97470  0.26830  0.12310  Biso   1.000  C
  C79      1.0000 0.02530  0.26830  0.37690  Biso   1.000  C
  C80      1.0000 0.47470  0.23170  0.87690  Biso   1.000  C
  C81      1.0000 0.21990  0.94370  0.41700  Biso   1.000  C
  C82      1.0000 0.28010  0.55630  0.91700  Biso   1.000  C
  C83      1.0000 0.71990  0.55630  0.58300  Biso   1.000  C
  C84      1.0000 0.78010  0.94370  0.08300  Biso   1.000  C
  C85      1.0000 0.78010  0.05630  0.58300  Biso   1.000  C
  C86      1.0000 0.71990  0.44370  0.08300  Biso   1.000  C
  C87      1.0000 0.28010  0.44370  0.41700  Biso   1.000  C
  C88      1.0000 0.21990  0.05630  0.91700  Biso   1.000  C
  O25      1.0000 0.31850  0.25240  0.28650  Biso   1.000  O
  O26      1.0000 0.18150  0.24760  0.78650  Biso   1.000  O
  O27      1.0000 0.81850  0.24760  0.71350  Biso   1.000  O
  O28      1.0000 0.68150  0.25240  0.21350  Biso   1.000  O
  O29      1.0000 0.68150  0.74760  0.71350  Biso   1.000  O
  O30      1.0000 0.81850  0.75240  0.21350  Biso   1.000  O
  O31      1.0000 0.18150  0.75240  0.28650  Biso   1.000  O
  O32      1.0000 0.31850  0.74760  0.78650  Biso   1.000  O
  O33      1.0000 0.31580  0.36390  0.08730  Biso   1.000  O
  O34      1.0000 0.18420  0.13610  0.58730  Biso   1.000  O
  O35      1.0000 0.81580  0.13610  0.91270  Biso   1.000  O
  O36      1.0000 0.68420  0.36390  0.41270  Biso   1.000  O
  O37      1.0000 0.68420  0.63610  0.91270  Biso   1.000  O
  O38      1.0000 0.81580  0.86390  0.41270  Biso   1.000  O
  O39      1.0000 0.18420  0.86390  0.08730  Biso   1.000  O
  O40      1.0000 0.31580  0.63610  0.58730  Biso   1.000  O
  O41      1.0000 0.33580  0.22920  0.52800  Biso   1.000  O
  O42      1.0000 0.16420  0.27080  0.02800  Biso   1.000  O
  O43      1.0000 0.83580  0.27080  0.47200  Biso   1.000  O
  O44      1.0000 0.66420  0.22920  0.97200  Biso   1.000  O
  O45      1.0000 0.66420  0.77080  0.47200  Biso   1.000  O
  O46      1.0000 0.83580  0.72920  0.97200  Biso   1.000  O
  O47      1.0000 0.16420  0.72920  0.52800  Biso   1.000  O
  O48      1.0000 0.33580  0.77080  0.02800  Biso   1.000  O
  O49      1.0000 0.16780  0.15480  0.22810  Biso   1.000  O
  O50      1.0000 0.33220  0.34520  0.72810  Biso   1.000  O
  O51      1.0000 0.66780  0.34520  0.77190  Biso   1.000  O
  O52      1.0000 0.83220  0.15480  0.27190  Biso   1.000  O
  O53      1.0000 0.83220  0.84520  0.77190  Biso   1.000  O
  O54      1.0000 0.66780  0.65480  0.27190  Biso   1.000  O
  O55      1.0000 0.33220  0.65480  0.22810  Biso   1.000  O
  O56      1.0000 0.16780  0.84520  0.72810  Biso   1.000  O
  C89      1.0000 0.27490  0.25740  0.21590  Biso   1.000  C
  C90      1.0000 0.22510  0.24260  0.71590  Biso   1.000  C
  C91      1.0000 0.77490  0.24260  0.78410  Biso   1.000  C
  C92      1.0000 0.72510  0.25740  0.28410  Biso   1.000  C
  C93      1.0000 0.72510  0.74260  0.78410  Biso   1.000  C
  C94      1.0000 0.77490  0.75740  0.28410  Biso   1.000  C
  C95      1.0000 0.22510  0.75740  0.21590  Biso   1.000  C
  C96      1.0000 0.27490  0.74260  0.71590  Biso   1.000  C
  C97      1.0000 0.27460  0.30850  0.12680  Biso   1.000  C
  C98      1.0000 0.22540  0.19150  0.62680  Biso   1.000  C
  C99      1.0000 0.77460  0.19150  0.87320  Biso   1.000  C
  C100     1.0000 0.72540  0.30850  0.37320  Biso   1.000  C
  C101     1.0000 0.72540  0.69150  0.87320  Biso   1.000  C
  C102     1.0000 0.77460  0.80850  0.37320  Biso   1.000  C
  C103     1.0000 0.22540  0.80850  0.12680  Biso   1.000  C
  C104     1.0000 0.27460  0.69150  0.62680  Biso   1.000  C
  C105     1.0000 0.29360  0.23370  0.59930  Biso   1.000  C
  C106     1.0000 0.20640  0.26630  0.09930  Biso   1.000  C
  C107     1.0000 0.79360  0.26630  0.40070  Biso   1.000  C
  C108     1.0000 0.70640  0.23370  0.90070  Biso   1.000  C
  C109     1.0000 0.70640  0.76630  0.40070  Biso   1.000  C
  C110     1.0000 0.79360  0.73370  0.90070  Biso   1.000  C
  C111     1.0000 0.20640  0.73370  0.59930  Biso   1.000  C
  C112     1.0000 0.29360  0.76630  0.09930  Biso   1.000  C
  C113     1.0000 0.20740  0.21260  0.18930  Biso   1.000  C
  C114     1.0000 0.29260  0.28740  0.68930  Biso   1.000  C
  C115     1.0000 0.70740  0.28740  0.81070  Biso   1.000  C
  C116     1.0000 0.79260  0.21260  0.31070  Biso   1.000  C
  C117     1.0000 0.79260  0.78740  0.81070  Biso   1.000  C
  C118     1.0000 0.70740  0.71260  0.31070  Biso   1.000  C
  C119     1.0000 0.29260  0.71260  0.18930  Biso   1.000  C
  C120     1.0000 0.20740  0.78740  0.68930  Biso   1.000  C
  O57      1.0000 0.08930  0.01040  0.13970  Biso   1.000  O
  O58      1.0000 0.41070  0.48960  0.63970  Biso   1.000  O
  O59      1.0000 0.58930  0.48960  0.86030  Biso   1.000  O
  O60      1.0000 0.91070  0.01040  0.36030  Biso   1.000  O
  O61      1.0000 0.91070  0.98960  0.86030  Biso   1.000  O
  O62      1.0000 0.58930  0.51040  0.36030  Biso   1.000  O
  O63      1.0000 0.41070  0.51040  0.13970  Biso   1.000  O
  O64      1.0000 0.08930  0.98960  0.63970  Biso   1.000  O
  H17      1.0000 0.10800  0.00400  0.20500  Biso   1.000  H
  H18      1.0000 0.39200  0.49600  0.70500  Biso   1.000  H
  H19      1.0000 0.60800  0.49600  0.79500  Biso   1.000  H
  H20      1.0000 0.89200  0.00400  0.29500  Biso   1.000  H
  H21      1.0000 0.89200  0.99600  0.79500  Biso   1.000  H
  H22      1.0000 0.60800  0.50400  0.29500  Biso   1.000  H
  H23      1.0000 0.39200  0.50400  0.20500  Biso   1.000  H
  H24      1.0000 0.10800  0.99600  0.70500  Biso   1.000  H
  H25      1.0000 0.08100  0.07500  0.12800  Biso   1.000  H
  H26      1.0000 0.41900  0.42500  0.62800  Biso   1.000  H
  H27      1.0000 0.58100  0.42500  0.87200  Biso   1.000  H
  H28      1.0000 0.91900  0.07500  0.37200  Biso   1.000  H
  H29      1.0000 0.91900  0.92500  0.87200  Biso   1.000  H
  H30      1.0000 0.58100  0.57500  0.37200  Biso   1.000  H
  H31      1.0000 0.41900  0.57500  0.12800  Biso   1.000  H
  H32      1.0000 0.08100  0.92500  0.62800  Biso   1.000  H
  O65      1.0000 0.94440  0.05860  0.09720  Biso   1.000  O
  O66      1.0000 0.55560  0.44140  0.59720  Biso   1.000  O
  O67      1.0000 0.44440  0.44140  0.90280  Biso   1.000  O
  O68      1.0000 0.05560  0.05860  0.40280  Biso   1.000  O
  O69      1.0000 0.05560  0.94140  0.90280  Biso   1.000  O
  O70      1.0000 0.44440  0.55860  0.40280  Biso   1.000  O
  O71      1.0000 0.55560  0.55860  0.09720  Biso   1.000  O
  O72      1.0000 0.94440  0.94140  0.59720  Biso   1.000  O
  H33      1.0000 0.58800  0.24800  0.36400  Biso   1.000  H
  H34      1.0000 0.91200  0.25200  0.86400  Biso   1.000  H
  H35      1.0000 0.08800  0.25200  0.63600  Biso   1.000  H
  H36      1.0000 0.41200  0.24800  0.13600  Biso   1.000  H
  H37      1.0000 0.41200  0.75200  0.63600  Biso   1.000  H
  H38      1.0000 0.08800  0.74800  0.13600  Biso   1.000  H
  H39      1.0000 0.91200  0.74800  0.36400  Biso   1.000  H
  H40      1.0000 0.58800  0.75200  0.86400  Biso   1.000  H
  H41      1.0000 0.49800  0.35700  0.38000  Biso   1.000  H
  H42      1.0000 0.00200  0.14300  0.88000  Biso   1.000  H
  H43      1.0000 0.99800  0.14300  0.62000  Biso   1.000  H
  H44      1.0000 0.50200  0.35700  0.12000  Biso   1.000  H
  H45      1.0000 0.50200  0.64300  0.62000  Biso   1.000  H
  H46      1.0000 0.99800  0.85700  0.12000  Biso   1.000  H
  H47      1.0000 0.00200  0.85700  0.38000  Biso   1.000  H
  H48      1.0000 0.49800  0.64300  0.88000  Biso   1.000  H
  H49      1.0000 0.43200  0.32700  0.44600  Biso   1.000  H
  H50      1.0000 0.06800  0.17300  0.94600  Biso   1.000  H
  H51      1.0000 0.93200  0.17300  0.55400  Biso   1.000  H
  H52      1.0000 0.56800  0.32700  0.05400  Biso   1.000  H
  H53      1.0000 0.56800  0.67300  0.55400  Biso   1.000  H
  H54      1.0000 0.93200  0.82700  0.05400  Biso   1.000  H
  H55      1.0000 0.06800  0.82700  0.44600  Biso   1.000  H
  H56      1.0000 0.43200  0.67300  0.94600  Biso   1.000  H
  H57      1.0000 0.42300  0.32900  0.33100  Biso   1.000  H
  H58      1.0000 0.07700  0.17100  0.83100  Biso   1.000  H
  H59      1.0000 0.92300  0.17100  0.66900  Biso   1.000  H
  H60      1.0000 0.57700  0.32900  0.16900  Biso   1.000  H
  H61      1.0000 0.57700  0.67100  0.66900  Biso   1.000  H
  H62      1.0000 0.92300  0.82900  0.16900  Biso   1.000  H
  H63      1.0000 0.07700  0.82900  0.33100  Biso   1.000  H
  H64      1.0000 0.42300  0.67100  0.83100  Biso   1.000  H
  H65      1.0000 0.71500  0.98900  0.34100  Biso   1.000  H
  H66      1.0000 0.78500  0.51100  0.84100  Biso   1.000  H
  H67      1.0000 0.21500  0.51100  0.65900  Biso   1.000  H
  H68      1.0000 0.28500  0.98900  0.15900  Biso   1.000  H
  H69      1.0000 0.28500  0.01100  0.65900  Biso   1.000  H
  H70      1.0000 0.21500  0.48900  0.15900  Biso   1.000  H
  H71      1.0000 0.78500  0.48900  0.34100  Biso   1.000  H
  H72      1.0000 0.71500  0.01100  0.84100  Biso   1.000  H
  H73      1.0000 0.63900  0.96500  0.29600  Biso   1.000  H
  H74      1.0000 0.86100  0.53500  0.79600  Biso   1.000  H
  H75      1.0000 0.13900  0.53500  0.70400  Biso   1.000  H
  H76      1.0000 0.36100  0.96500  0.20400  Biso   1.000  H
  H77      1.0000 0.36100  0.03500  0.70400  Biso   1.000  H
  H78      1.0000 0.13900  0.46500  0.20400  Biso   1.000  H
  H79      1.0000 0.86100  0.46500  0.29600  Biso   1.000  H
  H80      1.0000 0.63900  0.03500  0.79600  Biso   1.000  H
  H81      1.0000 0.65000  0.96500  0.41000  Biso   1.000  H
  H82      1.0000 0.85000  0.53500  0.91000  Biso   1.000  H
  H83      1.0000 0.15000  0.53500  0.59000  Biso   1.000  H
  H84      1.0000 0.35000  0.96500  0.09000  Biso   1.000  H
  H85      1.0000 0.35000  0.03500  0.59000  Biso   1.000  H
  H86      1.0000 0.15000  0.46500  0.09000  Biso   1.000  H
  H87      1.0000 0.85000  0.46500  0.41000  Biso   1.000  H
  H88      1.0000 0.65000  0.03500  0.91000  Biso   1.000  H
  H89      1.0000 0.32900  0.81000  0.39900  Biso   1.000  H
  H90      1.0000 0.17100  0.69000  0.89900  Biso   1.000  H
  H91      1.0000 0.82900  0.69000  0.60100  Biso   1.000  H
  H92      1.0000 0.67100  0.81000  0.10100  Biso   1.000  H
  H93      1.0000 0.67100  0.19000  0.60100  Biso   1.000  H
  H94      1.0000 0.82900  0.31000  0.10100  Biso   1.000  H
  H95      1.0000 0.17100  0.31000  0.39900  Biso   1.000  H
  H96      1.0000 0.32900  0.19000  0.89900  Biso   1.000  H
  H97      1.0000 0.52300  0.74500  0.37200  Biso   1.000  H
  H98      1.0000 0.97700  0.75500  0.87200  Biso   1.000  H
  H99      1.0000 0.02300  0.75500  0.62800  Biso   1.000  H
  H100     1.0000 0.47700  0.74500  0.12800  Biso   1.000  H
  H101     1.0000 0.47700  0.25500  0.62800  Biso   1.000  H
  H102     1.0000 0.02300  0.24500  0.12800  Biso   1.000  H
  H103     1.0000 0.97700  0.24500  0.37200  Biso   1.000  H
  H104     1.0000 0.52300  0.25500  0.87200  Biso   1.000  H
  H105     1.0000 0.44800  0.75000  0.32000  Biso   1.000  H
  H106     1.0000 0.05200  0.75000  0.82000  Biso   1.000  H
  H107     1.0000 0.94800  0.75000  0.68000  Biso   1.000  H
  H108     1.0000 0.55200  0.75000  0.18000  Biso   1.000  H
  H109     1.0000 0.55200  0.25000  0.68000  Biso   1.000  H
  H110     1.0000 0.94800  0.25000  0.18000  Biso   1.000  H
  H111     1.0000 0.05200  0.25000  0.32000  Biso   1.000  H
  H112     1.0000 0.44800  0.25000  0.82000  Biso   1.000  H
  H113     1.0000 0.45200  0.74400  0.43500  Biso   1.000  H
  H114     1.0000 0.04800  0.75600  0.93500  Biso   1.000  H
  H115     1.0000 0.95200  0.75600  0.56500  Biso   1.000  H
  H116     1.0000 0.54800  0.74400  0.06500  Biso   1.000  H
  H117     1.0000 0.54800  0.25600  0.56500  Biso   1.000  H
  H118     1.0000 0.95200  0.24400  0.06500  Biso   1.000  H
  H119     1.0000 0.04800  0.24400  0.43500  Biso   1.000  H
  H120     1.0000 0.45200  0.25600  0.93500  Biso   1.000  H
  H121     1.0000 0.20400  0.88100  0.41900  Biso   1.000  H
  H122     1.0000 0.29600  0.61900  0.91900  Biso   1.000  H
  H123     1.0000 0.70400  0.61900  0.58100  Biso   1.000  H
  H124     1.0000 0.79600  0.88100  0.08100  Biso   1.000  H
  H125     1.0000 0.79600  0.11900  0.58100  Biso   1.000  H
  H126     1.0000 0.70400  0.38100  0.08100  Biso   1.000  H
  H127     1.0000 0.29600  0.38100  0.41900  Biso   1.000  H
  H128     1.0000 0.20400  0.11900  0.91900  Biso   1.000  H
  H129     1.0000 0.19700  0.97500  0.36300  Biso   1.000  H
  H130     1.0000 0.30300  0.52500  0.86300  Biso   1.000  H
  H131     1.0000 0.69700  0.52500  0.63700  Biso   1.000  H
  H132     1.0000 0.80300  0.97500  0.13700  Biso   1.000  H
  H133     1.0000 0.80300  0.02500  0.63700  Biso   1.000  H
  H134     1.0000 0.69700  0.47500  0.13700  Biso   1.000  H
  H135     1.0000 0.30300  0.47500  0.36300  Biso   1.000  H
  H136     1.0000 0.19700  0.02500  0.86300  Biso   1.000  H
  H137     1.0000 0.20800  0.97400  0.47700  Biso   1.000  H
  H138     1.0000 0.29200  0.52600  0.97700  Biso   1.000  H
  H139     1.0000 0.70800  0.52600  0.52300  Biso   1.000  H
  H140     1.0000 0.79200  0.97400  0.02300  Biso   1.000  H
  H141     1.0000 0.79200  0.02600  0.52300  Biso   1.000  H
  H142     1.0000 0.70800  0.47400  0.02300  Biso   1.000  H
  H143     1.0000 0.29200  0.47400  0.47700  Biso   1.000  H
  H144     1.0000 0.20800  0.02600  0.97700  Biso   1.000  H
