data_image0
_cell_length_a       8.6637
_cell_length_b       10.5777
_cell_length_c       12.7225
_cell_angle_alpha    70.458
_cell_angle_beta     83.263
_cell_angle_gamma    69.199

_symmetry_space_group_name_H-M    "P 1"
_symmetry_int_tables_number       1

loop_
  _symmetry_equiv_pos_as_xyz
  'x, y, z'

loop_
  _atom_site_label
  _atom_site_occupancy
  _atom_site_fract_x
  _atom_site_fract_y
  _atom_site_fract_z
  _atom_site_thermal_displace_type
  _atom_site_B_iso_or_equiv
  _atom_site_type_symbol
  Cu1      1.0000 0.27413  0.31377  0.29526  Biso   1.000  Cu
  Cu2      1.0000 0.72587  0.68623  0.70474  Biso   1.000  Cu
  Cl1      1.0000 0.29342  0.55786  0.25268  Biso   1.000  Cl
  Cl2      1.0000 0.70658  0.44214  0.74732  Biso   1.000  Cl
  O1       1.0000 0.28230  0.30690  0.14474  Biso   1.000  O
  O2       1.0000 0.71770  0.69310  0.85526  Biso   1.000  O
  O3       1.0000 0.22180  0.10970  0.21940  Biso   1.000  O
  O4       1.0000 0.77820  0.89030  0.78060  Biso   1.000  O
  N1       1.0000 0.02780  0.36930  0.32640  Biso   1.000  N
  N2       1.0000 0.97220  0.63070  0.67360  Biso   1.000  N
  N3       1.0000 0.51820  0.20820  0.32700  Biso   1.000  N
  N4       1.0000 0.48180  0.79180  0.67300  Biso   1.000  N
  N5       1.0000 0.27440  0.26000  0.45680  Biso   1.000  N
  N6       1.0000 0.72560  0.74000  0.54320  Biso   1.000  N
  C1       1.0000 0.84220  0.05980  0.39060  Biso   1.000  C
  C2       1.0000 0.15780  0.94020  0.60940  Biso   1.000  C
  H1       1.0000 0.95140  0.00700  0.41210  Biso   1.000  H
  H2       1.0000 0.04860  0.99300  0.58790  Biso   1.000  H
  C3       1.0000 0.15120  0.16240  0.87290  Biso   1.000  C
  C4       1.0000 0.84880  0.83760  0.12710  Biso   1.000  C
  H3       1.0000 0.06600  0.14780  0.84580  Biso   1.000  H
  H4       1.0000 0.93400  0.85220  0.15420  Biso   1.000  H
  C5       1.0000 0.74190  0.45330  0.28150  Biso   1.000  C
  C6       1.0000 0.25810  0.54670  0.71850  Biso   1.000  C
  H5       1.0000 0.66050  0.48380  0.22830  Biso   1.000  H
  H6       1.0000 0.33950  0.51620  0.77170  Biso   1.000  H
  C7       1.0000 0.70080  0.44300  0.38950  Biso   1.000  C
  C8       1.0000 0.29920  0.55700  0.61050  Biso   1.000  C
  H7       1.0000 0.59040  0.46830  0.41060  Biso   1.000  H
  H8       1.0000 0.40960  0.53170  0.58940  Biso   1.000  H
  C9       1.0000 0.79930  0.11370  0.27990  Biso   1.000  C
  C10      1.0000 0.20070  0.88630  0.72010  Biso   1.000  C
  H9       1.0000 0.87960  0.10100  0.22540  Biso   1.000  H
  H10      1.0000 0.12040  0.89900  0.77460  Biso   1.000  H
  C11      1.0000 0.40700  0.20560  0.84710  Biso   1.000  C
  C12      1.0000 0.59300  0.79440  0.15290  Biso   1.000  C
  H11      1.0000 0.49810  0.21590  0.80310  Biso   1.000  H
  H12      1.0000 0.50190  0.78410  0.19690  Biso   1.000  H
  C13      1.0000 0.90620  0.41770  0.25180  Biso   1.000  C
  C14      1.0000 0.09380  0.58230  0.74820  Biso   1.000  C
  H13      1.0000 0.93390  0.42770  0.17730  Biso   1.000  H
  H14      1.0000 0.06610  0.57230  0.82270  Biso   1.000  H
  C15      1.0000 0.63710  0.18630  0.25070  Biso   1.000  C
  C16      1.0000 0.36290  0.81370  0.74930  Biso   1.000  C
  H15      1.0000 0.60810  0.22160  0.17570  Biso   1.000  H
  H16      1.0000 0.39190  0.77840  0.82430  Biso   1.000  H
  C17      1.0000 0.82430  0.39450  0.46880  Biso   1.000  C
  C18      1.0000 0.17570  0.60550  0.53120  Biso   1.000  C
  H17      1.0000 0.79800  0.38820  0.54300  Biso   1.000  H
  H18      1.0000 0.20200  0.61180  0.45700  Biso   1.000  H
  C19      1.0000 0.12920  0.27140  0.62380  Biso   1.000  C
  C20      1.0000 0.87080  0.72860  0.37620  Biso   1.000  C
  H19      1.0000 0.02990  0.29790  0.66100  Biso   1.000  H
  H20      1.0000 0.97010  0.70210  0.33900  Biso   1.000  H
  C21      1.0000 0.42490  0.16530  0.62470  Biso   1.000  C
  C22      1.0000 0.57510  0.83470  0.37530  Biso   1.000  C
  H21      1.0000 0.52520  0.11840  0.66260  Biso   1.000  H
  H22      1.0000 0.47480  0.88160  0.33740  Biso   1.000  H
  C23      1.0000 0.27960  0.18710  0.80320  Biso   1.000  C
  C24      1.0000 0.72040  0.81290  0.19680  Biso   1.000  C
  C25      1.0000 0.72190  0.08450  0.47010  Biso   1.000  C
  C26      1.0000 0.27810  0.91550  0.52990  Biso   1.000  C
  H23      1.0000 0.74890  0.05070  0.54540  Biso   1.000  H
  H24      1.0000 0.25110  0.94930  0.45460  Biso   1.000  H
  C27      1.0000 0.27760  0.20690  0.68240  Biso   1.000  C
  C28      1.0000 0.72240  0.79310  0.31760  Biso   1.000  C
  C29      1.0000 0.41880  0.19490  0.51090  Biso   1.000  C
  C30      1.0000 0.58120  0.80510  0.48910  Biso   1.000  C
  C31      1.0000 0.98590  0.35640  0.43440  Biso   1.000  C
  C32      1.0000 0.01410  0.64360  0.56560  Biso   1.000  C
  C33      1.0000 0.56150  0.16030  0.43520  Biso   1.000  C
  C34      1.0000 0.43850  0.83970  0.56480  Biso   1.000  C
  C35      1.0000 0.13020  0.29600  0.50970  Biso   1.000  C
  C36      1.0000 0.86980  0.70400  0.49030  Biso   1.000  C
  C37      1.0000 0.26950  0.18660  0.02330  Biso   1.000  C
  C38      1.0000 0.73050  0.81340  0.97670  Biso   1.000  C
  C39      1.0000 0.39970  0.20880  0.95490  Biso   1.000  C
  C40      1.0000 0.60030  0.79120  0.04510  Biso   1.000  C
  H25      1.0000 0.48310  0.22610  0.98180  Biso   1.000  H
  H26      1.0000 0.51690  0.77390  0.01820  Biso   1.000  H
  C41      1.0000 0.14870  0.15920  0.98210  Biso   1.000  C
  C42      1.0000 0.85130  0.84080  0.01790  Biso   1.000  C
  H27      1.0000 0.06410  0.13820  0.02890  Biso   1.000  H
  H28      1.0000 0.93590  0.86180  0.97110  Biso   1.000  H
  C43      1.0000 0.25650  0.19960  0.13820  Biso   1.000  C
  C44      1.0000 0.74350  0.80040  0.86180  Biso   1.000  C
  O5       1.0000 0.16830  0.86100  0.28700  Biso   1.000  O
  O6       1.0000 0.83170  0.13900  0.71300  Biso   1.000  O
  H29      1.0000 0.20000  0.93300  0.24900  Biso   1.000  H
  H30      1.0000 0.80000  0.06700  0.75100  Biso   1.000  H
  H31      1.0000 0.20400  0.81400  0.23900  Biso   1.000  H
  H32      1.0000 0.79600  0.18600  0.76100  Biso   1.000  H
  O7       1.0000 0.71330  0.40540  0.01230  Biso   1.000  O
  O8       1.0000 0.28670  0.59460  0.98770  Biso   1.000  O
