data_image0
_cell_length_a       21.274
_cell_length_b       6.114
_cell_length_c       17.137
_cell_angle_alpha    90
_cell_angle_beta     101.63
_cell_angle_gamma    90

_symmetry_space_group_name_H-M    "P 1"
_symmetry_int_tables_number       1

loop_
  _symmetry_equiv_pos_as_xyz
  'x, y, z'

loop_
  _atom_site_label
  _atom_site_occupancy
  _atom_site_fract_x
  _atom_site_fract_y
  _atom_site_fract_z
  _atom_site_thermal_displace_type
  _atom_site_B_iso_or_equiv
  _atom_site_type_symbol
  Cu1      1.0000 0.25000  0.25000  0.00000  Biso   1.000  Cu
  Cu2      1.0000 0.75000  0.25000  0.50000  Biso   1.000  Cu
  Cu3      1.0000 0.75000  0.75000  0.00000  Biso   1.000  Cu
  Cu4      1.0000 0.25000  0.75000  0.50000  Biso   1.000  Cu
  N1       1.0000 0.26700  0.01160  0.07690  Biso   1.000  N
  N2       1.0000 0.73300  0.01160  0.42310  Biso   1.000  N
  N3       1.0000 0.76700  0.51160  0.07690  Biso   1.000  N
  N4       1.0000 0.23300  0.51160  0.42310  Biso   1.000  N
  N5       1.0000 0.73300  0.98840  0.92310  Biso   1.000  N
  N6       1.0000 0.26700  0.98840  0.57690  Biso   1.000  N
  N7       1.0000 0.23300  0.48840  0.92310  Biso   1.000  N
  N8       1.0000 0.76700  0.48840  0.57690  Biso   1.000  N
  C1       1.0000 0.21800  0.86920  0.06980  Biso   1.000  C
  C2       1.0000 0.78200  0.86920  0.43020  Biso   1.000  C
  C3       1.0000 0.71800  0.36920  0.06980  Biso   1.000  C
  C4       1.0000 0.28200  0.36920  0.43020  Biso   1.000  C
  C5       1.0000 0.78200  0.13080  0.93020  Biso   1.000  C
  C6       1.0000 0.21800  0.13080  0.56980  Biso   1.000  C
  C7       1.0000 0.28200  0.63080  0.93020  Biso   1.000  C
  C8       1.0000 0.71800  0.63080  0.56980  Biso   1.000  C
  C9       1.0000 0.21720  0.69950  0.12320  Biso   1.000  C
  C10      1.0000 0.78280  0.69950  0.37680  Biso   1.000  C
  C11      1.0000 0.71720  0.19950  0.12320  Biso   1.000  C
  C12      1.0000 0.28280  0.19950  0.37680  Biso   1.000  C
  C13      1.0000 0.78280  0.30050  0.87680  Biso   1.000  C
  C14      1.0000 0.21720  0.30050  0.62320  Biso   1.000  C
  C15      1.0000 0.28280  0.80050  0.87680  Biso   1.000  C
  C16      1.0000 0.71720  0.80050  0.62320  Biso   1.000  C
  C17      1.0000 0.27020  0.67770  0.18420  Biso   1.000  C
  C18      1.0000 0.72980  0.67770  0.31580  Biso   1.000  C
  C19      1.0000 0.77020  0.17770  0.18420  Biso   1.000  C
  C20      1.0000 0.22980  0.17770  0.31580  Biso   1.000  C
  C21      1.0000 0.72980  0.32230  0.81580  Biso   1.000  C
  C22      1.0000 0.27020  0.32230  0.68420  Biso   1.000  C
  C23      1.0000 0.22980  0.82230  0.81580  Biso   1.000  C
  C24      1.0000 0.77020  0.82230  0.68420  Biso   1.000  C
  C25      1.0000 0.32050  0.82110  0.19170  Biso   1.000  C
  C26      1.0000 0.67950  0.82110  0.30830  Biso   1.000  C
  C27      1.0000 0.82050  0.32110  0.19170  Biso   1.000  C
  C28      1.0000 0.17950  0.32110  0.30830  Biso   1.000  C
  C29      1.0000 0.67950  0.17890  0.80830  Biso   1.000  C
  C30      1.0000 0.32050  0.17890  0.69170  Biso   1.000  C
  C31      1.0000 0.17950  0.67890  0.80830  Biso   1.000  C
  C32      1.0000 0.82050  0.67890  0.69170  Biso   1.000  C
  C33      1.0000 0.31730  0.98820  0.13720  Biso   1.000  C
  C34      1.0000 0.68270  0.98820  0.36280  Biso   1.000  C
  C35      1.0000 0.81730  0.48820  0.13720  Biso   1.000  C
  C36      1.0000 0.18270  0.48820  0.36280  Biso   1.000  C
  C37      1.0000 0.68270  0.01180  0.86280  Biso   1.000  C
  C38      1.0000 0.31730  0.01180  0.63720  Biso   1.000  C
  C39      1.0000 0.18270  0.51180  0.86280  Biso   1.000  C
  C40      1.0000 0.81730  0.51180  0.63720  Biso   1.000  C
  C41      1.0000 0.16160  0.54350  0.11900  Biso   1.000  C
  C42      1.0000 0.83840  0.54350  0.38100  Biso   1.000  C
  C43      1.0000 0.66160  0.04350  0.11900  Biso   1.000  C
  C44      1.0000 0.33840  0.04350  0.38100  Biso   1.000  C
  C45      1.0000 0.83840  0.45650  0.88100  Biso   1.000  C
  C46      1.0000 0.16160  0.45650  0.61900  Biso   1.000  C
  C47      1.0000 0.33840  0.95650  0.88100  Biso   1.000  C
  C48      1.0000 0.66160  0.95650  0.61900  Biso   1.000  C
  O1       1.0000 0.11720  0.60840  0.15040  Biso   1.000  O
  O2       1.0000 0.88280  0.60840  0.34960  Biso   1.000  O
  O3       1.0000 0.61720  0.10840  0.15040  Biso   1.000  O
  O4       1.0000 0.38280  0.10840  0.34960  Biso   1.000  O
  O5       1.0000 0.88280  0.39160  0.84960  Biso   1.000  O
  O6       1.0000 0.11720  0.39160  0.65040  Biso   1.000  O
  O7       1.0000 0.38280  0.89160  0.84960  Biso   1.000  O
  O8       1.0000 0.61720  0.89160  0.65040  Biso   1.000  O
  O9       1.0000 0.16700  0.35920  0.09050  Biso   1.000  O
  O10      1.0000 0.83300  0.35920  0.40950  Biso   1.000  O
  O11      1.0000 0.66700  0.85920  0.09050  Biso   1.000  O
  O12      1.0000 0.33300  0.85920  0.40950  Biso   1.000  O
  O13      1.0000 0.83300  0.64080  0.90950  Biso   1.000  O
  O14      1.0000 0.16700  0.64080  0.59050  Biso   1.000  O
  O15      1.0000 0.33300  0.14080  0.90950  Biso   1.000  O
  O16      1.0000 0.66700  0.14080  0.59050  Biso   1.000  O
  C49      1.0000 0.16550  0.91220  0.99770  Biso   1.000  C
  C50      1.0000 0.83450  0.91220  0.50230  Biso   1.000  C
  C51      1.0000 0.66550  0.41220  0.99770  Biso   1.000  C
  C52      1.0000 0.33450  0.41220  0.50230  Biso   1.000  C
  C53      1.0000 0.83450  0.08780  0.00230  Biso   1.000  C
  C54      1.0000 0.16550  0.08780  0.49770  Biso   1.000  C
  C55      1.0000 0.33450  0.58780  0.00230  Biso   1.000  C
  C56      1.0000 0.66550  0.58780  0.49770  Biso   1.000  C
  O17      1.0000 0.17550  0.07320  0.95420  Biso   1.000  O
  O18      1.0000 0.82450  0.07320  0.54580  Biso   1.000  O
  O19      1.0000 0.67550  0.57320  0.95420  Biso   1.000  O
  O20      1.0000 0.32450  0.57320  0.54580  Biso   1.000  O
  O21      1.0000 0.82450  0.92680  0.04580  Biso   1.000  O
  O22      1.0000 0.17550  0.92680  0.45420  Biso   1.000  O
  O23      1.0000 0.32450  0.42680  0.04580  Biso   1.000  O
  O24      1.0000 0.67550  0.42680  0.45420  Biso   1.000  O
  O25      1.0000 0.11850  0.79110  0.98450  Biso   1.000  O
  O26      1.0000 0.88150  0.79110  0.51550  Biso   1.000  O
  O27      1.0000 0.61850  0.29110  0.98450  Biso   1.000  O
  O28      1.0000 0.38150  0.29110  0.51550  Biso   1.000  O
  O29      1.0000 0.88150  0.20890  0.01550  Biso   1.000  O
  O30      1.0000 0.11850  0.20890  0.48450  Biso   1.000  O
  O31      1.0000 0.38150  0.70890  0.01550  Biso   1.000  O
  O32      1.0000 0.61850  0.70890  0.48450  Biso   1.000  O
  Na1      1.0000 0.01730  0.87800  0.90980  Biso   1.000  Na
  Na2      1.0000 0.98270  0.87800  0.59020  Biso   1.000  Na
  Na3      1.0000 0.51730  0.37800  0.90980  Biso   1.000  Na
  Na4      1.0000 0.48270  0.37800  0.59020  Biso   1.000  Na
  Na5      1.0000 0.98270  0.12200  0.09020  Biso   1.000  Na
  Na6      1.0000 0.01730  0.12200  0.40980  Biso   1.000  Na
  Na7      1.0000 0.48270  0.62200  0.09020  Biso   1.000  Na
  Na8      1.0000 0.51730  0.62200  0.40980  Biso   1.000  Na
  O33      1.0000 0.91060  0.95940  0.84060  Biso   1.000  O
  O34      1.0000 0.08940  0.95940  0.65940  Biso   1.000  O
  O35      1.0000 0.41060  0.45940  0.84060  Biso   1.000  O
  O36      1.0000 0.58940  0.45940  0.65940  Biso   1.000  O
  O37      1.0000 0.08940  0.04060  0.15940  Biso   1.000  O
  O38      1.0000 0.91060  0.04060  0.34060  Biso   1.000  O
  O39      1.0000 0.58940  0.54060  0.15940  Biso   1.000  O
  O40      1.0000 0.41060  0.54060  0.34060  Biso   1.000  O
  O41      1.0000 0.03540  0.25120  0.98730  Biso   1.000  O
  O42      1.0000 0.96460  0.25120  0.51270  Biso   1.000  O
  O43      1.0000 0.53540  0.75120  0.98730  Biso   1.000  O
  O44      1.0000 0.46460  0.75120  0.51270  Biso   1.000  O
  O45      1.0000 0.96460  0.74880  0.01270  Biso   1.000  O
  O46      1.0000 0.03540  0.74880  0.48730  Biso   1.000  O
  O47      1.0000 0.46460  0.24880  0.01270  Biso   1.000  O
  O48      1.0000 0.53540  0.24880  0.48730  Biso   1.000  O
  O49      1.0000 0.00170  0.53120  0.84150  Biso   1.000  O
  O50      1.0000 0.99830  0.53120  0.65850  Biso   1.000  O
  O51      1.0000 0.50170  0.03120  0.84150  Biso   1.000  O
  O52      1.0000 0.49830  0.03120  0.65850  Biso   1.000  O
  O53      1.0000 0.99830  0.46880  0.15850  Biso   1.000  O
  O54      1.0000 0.00170  0.46880  0.34150  Biso   1.000  O
  O55      1.0000 0.49830  0.96880  0.15850  Biso   1.000  O
  O56      1.0000 0.50170  0.96880  0.34150  Biso   1.000  O
  O57      1.0000 0.06790  0.07950  0.81930  Biso   1.000  O
  O58      1.0000 0.93210  0.07950  0.68070  Biso   1.000  O
  O59      1.0000 0.56790  0.57950  0.81930  Biso   1.000  O
  O60      1.0000 0.43210  0.57950  0.68070  Biso   1.000  O
  O61      1.0000 0.93210  0.92050  0.18070  Biso   1.000  O
  O62      1.0000 0.06790  0.92050  0.31930  Biso   1.000  O
  O63      1.0000 0.43210  0.42050  0.18070  Biso   1.000  O
  O64      1.0000 0.56790  0.42050  0.31930  Biso   1.000  O
  H1       1.0000 0.27220  0.55970  0.22160  Biso   1.000  H
  H2       1.0000 0.72780  0.55970  0.27840  Biso   1.000  H
  H3       1.0000 0.77220  0.05970  0.22160  Biso   1.000  H
  H4       1.0000 0.22780  0.05970  0.27840  Biso   1.000  H
  H5       1.0000 0.72780  0.44030  0.77840  Biso   1.000  H
  H6       1.0000 0.27220  0.44030  0.72160  Biso   1.000  H
  H7       1.0000 0.22780  0.94030  0.77840  Biso   1.000  H
  H8       1.0000 0.77220  0.94030  0.72160  Biso   1.000  H
  H9       1.0000 0.35700  0.80640  0.23450  Biso   1.000  H
  H10      1.0000 0.64300  0.80640  0.26550  Biso   1.000  H
  H11      1.0000 0.85700  0.30640  0.23450  Biso   1.000  H
  H12      1.0000 0.14300  0.30640  0.26550  Biso   1.000  H
  H13      1.0000 0.64300  0.19360  0.76550  Biso   1.000  H
  H14      1.0000 0.35700  0.19360  0.73450  Biso   1.000  H
  H15      1.0000 0.14300  0.69360  0.76550  Biso   1.000  H
  H16      1.0000 0.85700  0.69360  0.73450  Biso   1.000  H
  H17      1.0000 0.35230  0.08980  0.14240  Biso   1.000  H
  H18      1.0000 0.64770  0.08980  0.35760  Biso   1.000  H
  H19      1.0000 0.85230  0.58980  0.14240  Biso   1.000  H
  H20      1.0000 0.14770  0.58980  0.35760  Biso   1.000  H
  H21      1.0000 0.64770  0.91020  0.85760  Biso   1.000  H
  H22      1.0000 0.35230  0.91020  0.64240  Biso   1.000  H
  H23      1.0000 0.14770  0.41020  0.85760  Biso   1.000  H
  H24      1.0000 0.85230  0.41020  0.64240  Biso   1.000  H
  H25      1.0000 0.89220  0.88230  0.86100  Biso   1.000  H
  H26      1.0000 0.10780  0.88230  0.63900  Biso   1.000  H
  H27      1.0000 0.39220  0.38230  0.86100  Biso   1.000  H
  H28      1.0000 0.60780  0.38230  0.63900  Biso   1.000  H
  H29      1.0000 0.10780  0.11770  0.13900  Biso   1.000  H
  H30      1.0000 0.89220  0.11770  0.36100  Biso   1.000  H
  H31      1.0000 0.60780  0.61770  0.13900  Biso   1.000  H
  H32      1.0000 0.39220  0.61770  0.36100  Biso   1.000  H
  H33      1.0000 0.89700  0.07240  0.84130  Biso   1.000  H
  H34      1.0000 0.10300  0.07240  0.65870  Biso   1.000  H
  H35      1.0000 0.39700  0.57240  0.84130  Biso   1.000  H
  H36      1.0000 0.60300  0.57240  0.65870  Biso   1.000  H
  H37      1.0000 0.10300  0.92760  0.15870  Biso   1.000  H
  H38      1.0000 0.89700  0.92760  0.34130  Biso   1.000  H
  H39      1.0000 0.60300  0.42760  0.15870  Biso   1.000  H
  H40      1.0000 0.39700  0.42760  0.34130  Biso   1.000  H
  H41      1.0000 0.06890  0.29230  0.00530  Biso   1.000  H
  H42      1.0000 0.93110  0.29230  0.49470  Biso   1.000  H
  H43      1.0000 0.56890  0.79230  0.00530  Biso   1.000  H
  H44      1.0000 0.43110  0.79230  0.49470  Biso   1.000  H
  H45      1.0000 0.93110  0.70770  0.99470  Biso   1.000  H
  H46      1.0000 0.06890  0.70770  0.50530  Biso   1.000  H
  H47      1.0000 0.43110  0.20770  0.99470  Biso   1.000  H
  H48      1.0000 0.56890  0.20770  0.50530  Biso   1.000  H
  H49      1.0000 0.01570  0.34140  0.96490  Biso   1.000  H
  H50      1.0000 0.98430  0.34140  0.53510  Biso   1.000  H
  H51      1.0000 0.51570  0.84140  0.96490  Biso   1.000  H
  H52      1.0000 0.48430  0.84140  0.53510  Biso   1.000  H
  H53      1.0000 0.98430  0.65860  0.03510  Biso   1.000  H
  H54      1.0000 0.01570  0.65860  0.46490  Biso   1.000  H
  H55      1.0000 0.48430  0.15860  0.03510  Biso   1.000  H
  H56      1.0000 0.51570  0.15860  0.46490  Biso   1.000  H
  H57      1.0000 0.03560  0.45550  0.83180  Biso   1.000  H
  H58      1.0000 0.96440  0.45550  0.66820  Biso   1.000  H
  H59      1.0000 0.53560  0.95550  0.83180  Biso   1.000  H
  H60      1.0000 0.46440  0.95550  0.66820  Biso   1.000  H
  H61      1.0000 0.96440  0.54450  0.16820  Biso   1.000  H
  H62      1.0000 0.03560  0.54450  0.33180  Biso   1.000  H
  H63      1.0000 0.46440  0.04450  0.16820  Biso   1.000  H
  H64      1.0000 0.53560  0.04450  0.33180  Biso   1.000  H
  H65      1.0000 0.96860  0.48820  0.82860  Biso   1.000  H
  H66      1.0000 0.03140  0.48820  0.67140  Biso   1.000  H
  H67      1.0000 0.46860  0.98820  0.82860  Biso   1.000  H
  H68      1.0000 0.53140  0.98820  0.67140  Biso   1.000  H
  H69      1.0000 0.03140  0.51180  0.17140  Biso   1.000  H
  H70      1.0000 0.96860  0.51180  0.32860  Biso   1.000  H
  H71      1.0000 0.53140  0.01180  0.17140  Biso   1.000  H
  H72      1.0000 0.46860  0.01180  0.32860  Biso   1.000  H
  H73      1.0000 0.06430  0.04960  0.77630  Biso   1.000  H
  H74      1.0000 0.93570  0.04960  0.72370  Biso   1.000  H
  H75      1.0000 0.56430  0.54960  0.77630  Biso   1.000  H
  H76      1.0000 0.43570  0.54960  0.72370  Biso   1.000  H
  H77      1.0000 0.93570  0.95040  0.22370  Biso   1.000  H
  H78      1.0000 0.06430  0.95040  0.27630  Biso   1.000  H
  H79      1.0000 0.43570  0.45040  0.22370  Biso   1.000  H
  H80      1.0000 0.56430  0.45040  0.27630  Biso   1.000  H
  H81      1.0000 0.10090  0.05070  0.84150  Biso   1.000  H
  H82      1.0000 0.89910  0.05070  0.65850  Biso   1.000  H
  H83      1.0000 0.60090  0.55070  0.84150  Biso   1.000  H
  H84      1.0000 0.39910  0.55070  0.65850  Biso   1.000  H
  H85      1.0000 0.89910  0.94930  0.15850  Biso   1.000  H
  H86      1.0000 0.10090  0.94930  0.34150  Biso   1.000  H
  H87      1.0000 0.39910  0.44930  0.15850  Biso   1.000  H
  H88      1.0000 0.60090  0.44930  0.34150  Biso   1.000  H
