data_image0
_cell_length_a       21.412
_cell_length_b       6.0967
_cell_length_c       16.99
_cell_angle_alpha    90
_cell_angle_beta     101.78
_cell_angle_gamma    90

_symmetry_space_group_name_H-M    "P 1"
_symmetry_int_tables_number       1

loop_
  _symmetry_equiv_pos_as_xyz
  'x, y, z'

loop_
  _atom_site_label
  _atom_site_occupancy
  _atom_site_fract_x
  _atom_site_fract_y
  _atom_site_fract_z
  _atom_site_thermal_displace_type
  _atom_site_B_iso_or_equiv
  _atom_site_type_symbol
  Na1      1.0000 0.98284  0.87770  0.58941  Biso   1.000  Na
  Na2      1.0000 0.48284  0.37770  0.58941  Biso   1.000  Na
  Na3      1.0000 0.01716  0.87770  0.91059  Biso   1.000  Na
  Na4      1.0000 0.51716  0.37770  0.91059  Biso   1.000  Na
  Na5      1.0000 0.01716  0.12230  0.41059  Biso   1.000  Na
  Na6      1.0000 0.51716  0.62230  0.41059  Biso   1.000  Na
  Na7      1.0000 0.98284  0.12230  0.08941  Biso   1.000  Na
  Na8      1.0000 0.48284  0.62230  0.08941  Biso   1.000  Na
  Cu1      1.0000 0.75000  0.25000  0.50000  Biso   1.000  Cu
  Cu2      1.0000 0.25000  0.75000  0.50000  Biso   1.000  Cu
  Cu3      1.0000 0.25000  0.25000  0.00000  Biso   1.000  Cu
  Cu4      1.0000 0.75000  0.75000  0.00000  Biso   1.000  Cu
  O1       1.0000 0.82439  0.07200  0.54694  Biso   1.000  O
  O2       1.0000 0.32439  0.57200  0.54694  Biso   1.000  O
  O3       1.0000 0.17561  0.07200  0.95306  Biso   1.000  O
  O4       1.0000 0.67561  0.57200  0.95306  Biso   1.000  O
  O5       1.0000 0.17561  0.92800  0.45306  Biso   1.000  O
  O6       1.0000 0.67561  0.42800  0.45306  Biso   1.000  O
  O7       1.0000 0.82439  0.92800  0.04694  Biso   1.000  O
  O8       1.0000 0.32439  0.42800  0.04694  Biso   1.000  O
  O9       1.0000 0.88153  0.79000  0.51565  Biso   1.000  O
  O10      1.0000 0.38153  0.29000  0.51565  Biso   1.000  O
  O11      1.0000 0.11847  0.79000  0.98435  Biso   1.000  O
  O12      1.0000 0.61847  0.29000  0.98435  Biso   1.000  O
  O13      1.0000 0.11847  0.21000  0.48435  Biso   1.000  O
  O14      1.0000 0.61847  0.71000  0.48435  Biso   1.000  O
  O15      1.0000 0.88153  0.21000  0.01565  Biso   1.000  O
  O16      1.0000 0.38153  0.71000  0.01565  Biso   1.000  O
  O17      1.0000 0.88240  0.60670  0.34848  Biso   1.000  O
  O18      1.0000 0.38240  0.10670  0.34848  Biso   1.000  O
  O19      1.0000 0.11760  0.60670  0.15152  Biso   1.000  O
  O20      1.0000 0.61760  0.10670  0.15152  Biso   1.000  O
  O21      1.0000 0.11760  0.39330  0.65152  Biso   1.000  O
  O22      1.0000 0.61760  0.89330  0.65152  Biso   1.000  O
  O23      1.0000 0.88240  0.39330  0.84848  Biso   1.000  O
  O24      1.0000 0.38240  0.89330  0.84848  Biso   1.000  O
  O25      1.0000 0.83327  0.35280  0.40907  Biso   1.000  O
  O26      1.0000 0.33327  0.85280  0.40907  Biso   1.000  O
  O27      1.0000 0.16673  0.35280  0.09093  Biso   1.000  O
  O28      1.0000 0.66673  0.85280  0.09093  Biso   1.000  O
  O29      1.0000 0.16673  0.64720  0.59093  Biso   1.000  O
  O30      1.0000 0.66673  0.14720  0.59093  Biso   1.000  O
  O31      1.0000 0.83327  0.64720  0.90907  Biso   1.000  O
  O32      1.0000 0.33327  0.14720  0.90907  Biso   1.000  O
  O33      1.0000 0.08858  0.96180  0.65887  Biso   1.000  O
  O34      1.0000 0.58858  0.46180  0.65887  Biso   1.000  O
  O35      1.0000 0.91142  0.96180  0.84113  Biso   1.000  O
  O36      1.0000 0.41142  0.46180  0.84113  Biso   1.000  O
  O37      1.0000 0.91142  0.03820  0.34113  Biso   1.000  O
  O38      1.0000 0.41142  0.53820  0.34113  Biso   1.000  O
  O39      1.0000 0.08858  0.03820  0.15887  Biso   1.000  O
  O40      1.0000 0.58858  0.53820  0.15887  Biso   1.000  O
  O41      1.0000 0.93231  0.08010  0.68070  Biso   1.000  O
  O42      1.0000 0.43231  0.58010  0.68070  Biso   1.000  O
  O43      1.0000 0.06769  0.08010  0.81930  Biso   1.000  O
  O44      1.0000 0.56769  0.58010  0.81930  Biso   1.000  O
  O45      1.0000 0.06769  0.91990  0.31930  Biso   1.000  O
  O46      1.0000 0.56769  0.41990  0.31930  Biso   1.000  O
  O47      1.0000 0.93231  0.91990  0.18070  Biso   1.000  O
  O48      1.0000 0.43231  0.41990  0.18070  Biso   1.000  O
  O49      1.0000 0.96343  0.24750  0.51340  Biso   1.000  O
  O50      1.0000 0.46343  0.74750  0.51340  Biso   1.000  O
  O51      1.0000 0.03657  0.24750  0.98660  Biso   1.000  O
  O52      1.0000 0.53657  0.74750  0.98660  Biso   1.000  O
  O53      1.0000 0.03657  0.75250  0.48660  Biso   1.000  O
  O54      1.0000 0.53657  0.25250  0.48660  Biso   1.000  O
  O55      1.0000 0.96343  0.75250  0.01340  Biso   1.000  O
  O56      1.0000 0.46343  0.25250  0.01340  Biso   1.000  O
  O57      1.0000 0.99853  0.53080  0.65800  Biso   1.000  O
  O58      1.0000 0.49853  0.03080  0.65800  Biso   1.000  O
  O59      1.0000 0.00147  0.53080  0.84200  Biso   1.000  O
  O60      1.0000 0.50147  0.03080  0.84200  Biso   1.000  O
  O61      1.0000 0.00147  0.46920  0.34200  Biso   1.000  O
  O62      1.0000 0.50147  0.96920  0.34200  Biso   1.000  O
  O63      1.0000 0.99853  0.46920  0.15800  Biso   1.000  O
  O64      1.0000 0.49853  0.96920  0.15800  Biso   1.000  O
  N1       1.0000 0.73259  0.00890  0.42180  Biso   1.000  N
  N2       1.0000 0.23259  0.50890  0.42180  Biso   1.000  N
  N3       1.0000 0.26741  0.00890  0.07820  Biso   1.000  N
  N4       1.0000 0.76741  0.50890  0.07820  Biso   1.000  N
  N5       1.0000 0.26741  0.99110  0.57820  Biso   1.000  N
  N6       1.0000 0.76741  0.49110  0.57820  Biso   1.000  N
  N7       1.0000 0.73259  0.99110  0.92180  Biso   1.000  N
  N8       1.0000 0.23259  0.49110  0.92180  Biso   1.000  N
  C1       1.0000 0.78191  0.86710  0.42970  Biso   1.000  C
  C2       1.0000 0.28191  0.36710  0.42970  Biso   1.000  C
  C3       1.0000 0.21809  0.86710  0.07030  Biso   1.000  C
  C4       1.0000 0.71809  0.36710  0.07030  Biso   1.000  C
  C5       1.0000 0.21809  0.13290  0.57030  Biso   1.000  C
  C6       1.0000 0.71809  0.63290  0.57030  Biso   1.000  C
  C7       1.0000 0.78191  0.13290  0.92970  Biso   1.000  C
  C8       1.0000 0.28191  0.63290  0.92970  Biso   1.000  C
  C9       1.0000 0.78241  0.69590  0.37600  Biso   1.000  C
  C10      1.0000 0.28241  0.19590  0.37600  Biso   1.000  C
  C11      1.0000 0.21759  0.69590  0.12400  Biso   1.000  C
  C12      1.0000 0.71759  0.19590  0.12400  Biso   1.000  C
  C13      1.0000 0.21759  0.30410  0.62400  Biso   1.000  C
  C14      1.0000 0.71759  0.80410  0.62400  Biso   1.000  C
  C15      1.0000 0.78241  0.30410  0.87600  Biso   1.000  C
  C16      1.0000 0.28241  0.80410  0.87600  Biso   1.000  C
  C17      1.0000 0.72898  0.67090  0.31400  Biso   1.000  C
  C18      1.0000 0.22898  0.17090  0.31400  Biso   1.000  C
  C19      1.0000 0.27102  0.67090  0.18600  Biso   1.000  C
  C20      1.0000 0.77102  0.17090  0.18600  Biso   1.000  C
  C21      1.0000 0.27102  0.32910  0.68600  Biso   1.000  C
  C22      1.0000 0.77102  0.82910  0.68600  Biso   1.000  C
  C23      1.0000 0.72898  0.32910  0.81400  Biso   1.000  C
  C24      1.0000 0.22898  0.82910  0.81400  Biso   1.000  C
  C25      1.0000 0.67854  0.81530  0.30670  Biso   1.000  C
  C26      1.0000 0.17854  0.31530  0.30670  Biso   1.000  C
  C27      1.0000 0.32146  0.81530  0.19330  Biso   1.000  C
  C28      1.0000 0.82146  0.31530  0.19330  Biso   1.000  C
  C29      1.0000 0.32146  0.18470  0.69330  Biso   1.000  C
  C30      1.0000 0.82146  0.68470  0.69330  Biso   1.000  C
  C31      1.0000 0.67854  0.18470  0.80670  Biso   1.000  C
  C32      1.0000 0.17854  0.68470  0.80670  Biso   1.000  C
  C33      1.0000 0.68208  0.98530  0.36210  Biso   1.000  C
  C34      1.0000 0.18208  0.48530  0.36210  Biso   1.000  C
  C35      1.0000 0.31792  0.98530  0.13790  Biso   1.000  C
  C36      1.0000 0.81792  0.48530  0.13790  Biso   1.000  C
  C37      1.0000 0.31792  0.01470  0.63790  Biso   1.000  C
  C38      1.0000 0.81792  0.51470  0.63790  Biso   1.000  C
  C39      1.0000 0.68208  0.01470  0.86210  Biso   1.000  C
  C40      1.0000 0.18208  0.51470  0.86210  Biso   1.000  C
  C41      1.0000 0.83432  0.90920  0.50230  Biso   1.000  C
  C42      1.0000 0.33432  0.40920  0.50230  Biso   1.000  C
  C43      1.0000 0.16568  0.90920  0.99770  Biso   1.000  C
  C44      1.0000 0.66568  0.40920  0.99770  Biso   1.000  C
  C45      1.0000 0.16568  0.09080  0.49770  Biso   1.000  C
  C46      1.0000 0.66568  0.59080  0.49770  Biso   1.000  C
  C47      1.0000 0.83432  0.09080  0.00230  Biso   1.000  C
  C48      1.0000 0.33432  0.59080  0.00230  Biso   1.000  C
  C49      1.0000 0.83825  0.53950  0.38010  Biso   1.000  C
  C50      1.0000 0.33825  0.03950  0.38010  Biso   1.000  C
  C51      1.0000 0.16175  0.53950  0.11990  Biso   1.000  C
  C52      1.0000 0.66175  0.03950  0.11990  Biso   1.000  C
  C53      1.0000 0.16175  0.46050  0.61990  Biso   1.000  C
  C54      1.0000 0.66175  0.96050  0.61990  Biso   1.000  C
  C55      1.0000 0.83825  0.46050  0.88010  Biso   1.000  C
  C56      1.0000 0.33825  0.96050  0.88010  Biso   1.000  C
  H1       1.0000 0.72730  0.55040  0.27560  Biso   1.000  H
  H2       1.0000 0.22730  0.05040  0.27560  Biso   1.000  H
  H3       1.0000 0.27270  0.55040  0.22440  Biso   1.000  H
  H4       1.0000 0.77270  0.05040  0.22440  Biso   1.000  H
  H5       1.0000 0.27270  0.44960  0.72440  Biso   1.000  H
  H6       1.0000 0.77270  0.94960  0.72440  Biso   1.000  H
  H7       1.0000 0.72730  0.44960  0.77560  Biso   1.000  H
  H8       1.0000 0.22730  0.94960  0.77560  Biso   1.000  H
  H9       1.0000 0.64100  0.79830  0.26340  Biso   1.000  H
  H10      1.0000 0.14100  0.29830  0.26340  Biso   1.000  H
  H11      1.0000 0.35900  0.79830  0.23660  Biso   1.000  H
  H12      1.0000 0.85900  0.29830  0.23660  Biso   1.000  H
  H13      1.0000 0.35900  0.20170  0.73660  Biso   1.000  H
  H14      1.0000 0.85900  0.70170  0.73660  Biso   1.000  H
  H15      1.0000 0.64100  0.20170  0.76340  Biso   1.000  H
  H16      1.0000 0.14100  0.70170  0.76340  Biso   1.000  H
  H17      1.0000 0.64670  0.08970  0.35700  Biso   1.000  H
  H18      1.0000 0.14670  0.58970  0.35700  Biso   1.000  H
  H19      1.0000 0.35330  0.08970  0.14300  Biso   1.000  H
  H20      1.0000 0.85330  0.58970  0.14300  Biso   1.000  H
  H21      1.0000 0.35330  0.91030  0.64300  Biso   1.000  H
  H22      1.0000 0.85330  0.41030  0.64300  Biso   1.000  H
  H23      1.0000 0.64670  0.91030  0.85700  Biso   1.000  H
  H24      1.0000 0.14670  0.41030  0.85700  Biso   1.000  H
  H25      1.0000 0.10900  0.88500  0.64200  Biso   1.000  H
  H26      1.0000 0.60900  0.38500  0.64200  Biso   1.000  H
  H27      1.0000 0.89100  0.88500  0.85800  Biso   1.000  H
  H28      1.0000 0.39100  0.38500  0.85800  Biso   1.000  H
  H29      1.0000 0.89100  0.11500  0.35800  Biso   1.000  H
  H30      1.0000 0.39100  0.61500  0.35800  Biso   1.000  H
  H31      1.0000 0.10900  0.11500  0.14200  Biso   1.000  H
  H32      1.0000 0.60900  0.61500  0.14200  Biso   1.000  H
  H33      1.0000 0.10000  0.08700  0.65700  Biso   1.000  H
  H34      1.0000 0.60000  0.58700  0.65700  Biso   1.000  H
  H35      1.0000 0.90000  0.08700  0.84300  Biso   1.000  H
  H36      1.0000 0.40000  0.58700  0.84300  Biso   1.000  H
  H37      1.0000 0.90000  0.91300  0.34300  Biso   1.000  H
  H38      1.0000 0.40000  0.41300  0.34300  Biso   1.000  H
  H39      1.0000 0.10000  0.91300  0.15700  Biso   1.000  H
  H40      1.0000 0.60000  0.41300  0.15700  Biso   1.000  H
  H41      1.0000 0.92500  0.03600  0.71600  Biso   1.000  H
  H42      1.0000 0.42500  0.53600  0.71600  Biso   1.000  H
  H43      1.0000 0.07500  0.03600  0.78400  Biso   1.000  H
  H44      1.0000 0.57500  0.53600  0.78400  Biso   1.000  H
  H45      1.0000 0.07500  0.96400  0.28400  Biso   1.000  H
  H46      1.0000 0.57500  0.46400  0.28400  Biso   1.000  H
  H47      1.0000 0.92500  0.96400  0.21600  Biso   1.000  H
  H48      1.0000 0.42500  0.46400  0.21600  Biso   1.000  H
  H49      1.0000 0.89500  0.07100  0.64700  Biso   1.000  H
  H50      1.0000 0.39500  0.57100  0.64700  Biso   1.000  H
  H51      1.0000 0.10500  0.07100  0.85300  Biso   1.000  H
  H52      1.0000 0.60500  0.57100  0.85300  Biso   1.000  H
  H53      1.0000 0.10500  0.92900  0.35300  Biso   1.000  H
  H54      1.0000 0.60500  0.42900  0.35300  Biso   1.000  H
  H55      1.0000 0.89500  0.92900  0.14700  Biso   1.000  H
  H56      1.0000 0.39500  0.42900  0.14700  Biso   1.000  H
  H57      1.0000 0.92600  0.27400  0.48800  Biso   1.000  H
  H58      1.0000 0.42600  0.77400  0.48800  Biso   1.000  H
  H59      1.0000 0.07400  0.27400  0.01200  Biso   1.000  H
  H60      1.0000 0.57400  0.77400  0.01200  Biso   1.000  H
  H61      1.0000 0.07400  0.72600  0.51200  Biso   1.000  H
  H62      1.0000 0.57400  0.22600  0.51200  Biso   1.000  H
  H63      1.0000 0.92600  0.72600  0.98800  Biso   1.000  H
  H64      1.0000 0.42600  0.22600  0.98800  Biso   1.000  H
  H65      1.0000 0.97200  0.33500  0.53600  Biso   1.000  H
  H66      1.0000 0.47200  0.83500  0.53600  Biso   1.000  H
  H67      1.0000 0.02800  0.33500  0.96400  Biso   1.000  H
  H68      1.0000 0.52800  0.83500  0.96400  Biso   1.000  H
  H69      1.0000 0.02800  0.66500  0.46400  Biso   1.000  H
  H70      1.0000 0.52800  0.16500  0.46400  Biso   1.000  H
  H71      1.0000 0.97200  0.66500  0.03600  Biso   1.000  H
  H72      1.0000 0.47200  0.16500  0.03600  Biso   1.000  H
  H73      1.0000 0.03200  0.50900  0.65800  Biso   1.000  H
  H74      1.0000 0.53200  0.00900  0.65800  Biso   1.000  H
  H75      1.0000 0.96800  0.50900  0.84200  Biso   1.000  H
  H76      1.0000 0.46800  0.00900  0.84200  Biso   1.000  H
  H77      1.0000 0.96800  0.49100  0.34200  Biso   1.000  H
  H78      1.0000 0.46800  0.99100  0.34200  Biso   1.000  H
  H79      1.0000 0.03200  0.49100  0.15800  Biso   1.000  H
  H80      1.0000 0.53200  0.99100  0.15800  Biso   1.000  H
  H81      1.0000 0.98700  0.43800  0.67400  Biso   1.000  H
  H82      1.0000 0.48700  0.93800  0.67400  Biso   1.000  H
  H83      1.0000 0.01300  0.43800  0.82600  Biso   1.000  H
  H84      1.0000 0.51300  0.93800  0.82600  Biso   1.000  H
  H85      1.0000 0.01300  0.56200  0.32600  Biso   1.000  H
  H86      1.0000 0.51300  0.06200  0.32600  Biso   1.000  H
  H87      1.0000 0.98700  0.56200  0.17400  Biso   1.000  H
  H88      1.0000 0.48700  0.06200  0.17400  Biso   1.000  H
