data_image0
_cell_length_a       21.3436
_cell_length_b       6.1339
_cell_length_c       17.1819
_cell_angle_alpha    90
_cell_angle_beta     101.635
_cell_angle_gamma    90

_symmetry_space_group_name_H-M    "P 1"
_symmetry_int_tables_number       1

loop_
  _symmetry_equiv_pos_as_xyz
  'x, y, z'

loop_
  _atom_site_label
  _atom_site_occupancy
  _atom_site_fract_x
  _atom_site_fract_y
  _atom_site_fract_z
  _atom_site_thermal_displace_type
  _atom_site_B_iso_or_equiv
  _atom_site_type_symbol
  Cu1      1.0000 0.75000  0.75000  0.00000  Biso   1.000  Cu
  Cu2      1.0000 0.25000  0.75000  0.50000  Biso   1.000  Cu
  Cu3      1.0000 0.25000  0.25000  0.00000  Biso   1.000  Cu
  Cu4      1.0000 0.75000  0.25000  0.50000  Biso   1.000  Cu
  Na1      1.0000 0.98282  0.37814  0.09026  Biso   1.000  Na
  Na2      1.0000 0.01718  0.37814  0.40974  Biso   1.000  Na
  Na3      1.0000 0.48282  0.87814  0.09026  Biso   1.000  Na
  Na4      1.0000 0.51718  0.87814  0.40974  Biso   1.000  Na
  Na5      1.0000 0.01718  0.62186  0.90974  Biso   1.000  Na
  Na6      1.0000 0.98282  0.62186  0.59026  Biso   1.000  Na
  Na7      1.0000 0.51718  0.12186  0.90974  Biso   1.000  Na
  Na8      1.0000 0.48282  0.12186  0.59026  Biso   1.000  Na
  O1       1.0000 0.82429  0.57290  0.04585  Biso   1.000  O
  O2       1.0000 0.17571  0.57290  0.45415  Biso   1.000  O
  O3       1.0000 0.32429  0.07290  0.04585  Biso   1.000  O
  O4       1.0000 0.67571  0.07290  0.45415  Biso   1.000  O
  O5       1.0000 0.17571  0.42710  0.95415  Biso   1.000  O
  O6       1.0000 0.82429  0.42710  0.54585  Biso   1.000  O
  O7       1.0000 0.67571  0.92710  0.95415  Biso   1.000  O
  O8       1.0000 0.32429  0.92710  0.54585  Biso   1.000  O
  O9       1.0000 0.93231  0.57950  0.18087  Biso   1.000  O
  O10      1.0000 0.06769  0.57950  0.31913  Biso   1.000  O
  O11      1.0000 0.43231  0.07950  0.18087  Biso   1.000  O
  O12      1.0000 0.56769  0.07950  0.31913  Biso   1.000  O
  O13      1.0000 0.06769  0.42050  0.81913  Biso   1.000  O
  O14      1.0000 0.93231  0.42050  0.68087  Biso   1.000  O
  O15      1.0000 0.56769  0.92050  0.81913  Biso   1.000  O
  O16      1.0000 0.43231  0.92050  0.68087  Biso   1.000  O
  O17      1.0000 0.88149  0.29300  0.01567  Biso   1.000  O
  O18      1.0000 0.11851  0.29300  0.48433  Biso   1.000  O
  O19      1.0000 0.38149  0.79300  0.01567  Biso   1.000  O
  O20      1.0000 0.61851  0.79300  0.48433  Biso   1.000  O
  O21      1.0000 0.11851  0.70700  0.98433  Biso   1.000  O
  O22      1.0000 0.88149  0.70700  0.51567  Biso   1.000  O
  O23      1.0000 0.61851  0.20700  0.98433  Biso   1.000  O
  O24      1.0000 0.38149  0.20700  0.51567  Biso   1.000  O
  O25      1.0000 0.08926  0.45860  0.15934  Biso   1.000  O
  O26      1.0000 0.91074  0.45860  0.34066  Biso   1.000  O
  O27      1.0000 0.58926  0.95860  0.15934  Biso   1.000  O
  O28      1.0000 0.41074  0.95860  0.34066  Biso   1.000  O
  O29      1.0000 0.91074  0.54140  0.84066  Biso   1.000  O
  O30      1.0000 0.08926  0.54140  0.65934  Biso   1.000  O
  O31      1.0000 0.41074  0.04140  0.84066  Biso   1.000  O
  O32      1.0000 0.58926  0.04140  0.65934  Biso   1.000  O
  O33      1.0000 0.88275  0.10910  0.84998  Biso   1.000  O
  O34      1.0000 0.11725  0.10910  0.65002  Biso   1.000  O
  O35      1.0000 0.38275  0.60910  0.84998  Biso   1.000  O
  O36      1.0000 0.61725  0.60910  0.65002  Biso   1.000  O
  O37      1.0000 0.11725  0.89090  0.15002  Biso   1.000  O
  O38      1.0000 0.88275  0.89090  0.34998  Biso   1.000  O
  O39      1.0000 0.61725  0.39090  0.15002  Biso   1.000  O
  O40      1.0000 0.38275  0.39090  0.34998  Biso   1.000  O
  O41      1.0000 0.03543  0.24960  0.98718  Biso   1.000  O
  O42      1.0000 0.96457  0.24960  0.51282  Biso   1.000  O
  O43      1.0000 0.53543  0.74960  0.98718  Biso   1.000  O
  O44      1.0000 0.46457  0.74960  0.51282  Biso   1.000  O
  O45      1.0000 0.96457  0.75040  0.01282  Biso   1.000  O
  O46      1.0000 0.03543  0.75040  0.48718  Biso   1.000  O
  O47      1.0000 0.46457  0.25040  0.01282  Biso   1.000  O
  O48      1.0000 0.53543  0.25040  0.48718  Biso   1.000  O
  O49      1.0000 0.83298  0.85850  0.90919  Biso   1.000  O
  O50      1.0000 0.16702  0.85850  0.59081  Biso   1.000  O
  O51      1.0000 0.33298  0.35850  0.90919  Biso   1.000  O
  O52      1.0000 0.66702  0.35850  0.59081  Biso   1.000  O
  O53      1.0000 0.16702  0.14150  0.09081  Biso   1.000  O
  O54      1.0000 0.83298  0.14150  0.40919  Biso   1.000  O
  O55      1.0000 0.66702  0.64150  0.09081  Biso   1.000  O
  O56      1.0000 0.33298  0.64150  0.40919  Biso   1.000  O
  O57      1.0000 0.99845  0.03160  0.15700  Biso   1.000  O
  O58      1.0000 0.00155  0.03160  0.34300  Biso   1.000  O
  O59      1.0000 0.49845  0.53160  0.15700  Biso   1.000  O
  O60      1.0000 0.50155  0.53160  0.34300  Biso   1.000  O
  O61      1.0000 0.00155  0.96840  0.84300  Biso   1.000  O
  O62      1.0000 0.99845  0.96840  0.65700  Biso   1.000  O
  O63      1.0000 0.50155  0.46840  0.84300  Biso   1.000  O
  O64      1.0000 0.49845  0.46840  0.65700  Biso   1.000  O
  N1       1.0000 0.73290  0.51110  0.92258  Biso   1.000  N
  N2       1.0000 0.26710  0.51110  0.57742  Biso   1.000  N
  N3       1.0000 0.23290  0.01110  0.92258  Biso   1.000  N
  N4       1.0000 0.76710  0.01110  0.57742  Biso   1.000  N
  N5       1.0000 0.26710  0.48890  0.07742  Biso   1.000  N
  N6       1.0000 0.73290  0.48890  0.42258  Biso   1.000  N
  N7       1.0000 0.76710  0.98890  0.07742  Biso   1.000  N
  N8       1.0000 0.23290  0.98890  0.42258  Biso   1.000  N
  C1       1.0000 0.78207  0.36960  0.93025  Biso   1.000  C
  C2       1.0000 0.21793  0.36960  0.56975  Biso   1.000  C
  C3       1.0000 0.28207  0.86960  0.93025  Biso   1.000  C
  C4       1.0000 0.71793  0.86960  0.56975  Biso   1.000  C
  C5       1.0000 0.21793  0.63040  0.06975  Biso   1.000  C
  C6       1.0000 0.78207  0.63040  0.43025  Biso   1.000  C
  C7       1.0000 0.71793  0.13040  0.06975  Biso   1.000  C
  C8       1.0000 0.28207  0.13040  0.43025  Biso   1.000  C
  C9       1.0000 0.78283  0.20000  0.87712  Biso   1.000  C
  C10      1.0000 0.21717  0.20000  0.62288  Biso   1.000  C
  C11      1.0000 0.28283  0.70000  0.87712  Biso   1.000  C
  C12      1.0000 0.71717  0.70000  0.62288  Biso   1.000  C
  C13      1.0000 0.21717  0.80000  0.12288  Biso   1.000  C
  C14      1.0000 0.78283  0.80000  0.37712  Biso   1.000  C
  C15      1.0000 0.71717  0.30000  0.12288  Biso   1.000  C
  C16      1.0000 0.28283  0.30000  0.37712  Biso   1.000  C
  C17      1.0000 0.72941  0.17760  0.81572  Biso   1.000  C
  C18      1.0000 0.27059  0.17760  0.68428  Biso   1.000  C
  C19      1.0000 0.22941  0.67760  0.81572  Biso   1.000  C
  C20      1.0000 0.77059  0.67760  0.68428  Biso   1.000  C
  C21      1.0000 0.27059  0.82240  0.18428  Biso   1.000  C
  C22      1.0000 0.72941  0.82240  0.31572  Biso   1.000  C
  C23      1.0000 0.77059  0.32240  0.18428  Biso   1.000  C
  C24      1.0000 0.22941  0.32240  0.31572  Biso   1.000  C
  C25      1.0000 0.67929  0.32120  0.80837  Biso   1.000  C
  C26      1.0000 0.32071  0.32120  0.69163  Biso   1.000  C
  C27      1.0000 0.17929  0.82120  0.80837  Biso   1.000  C
  C28      1.0000 0.82071  0.82120  0.69163  Biso   1.000  C
  C29      1.0000 0.32071  0.67880  0.19163  Biso   1.000  C
  C30      1.0000 0.67929  0.67880  0.30837  Biso   1.000  C
  C31      1.0000 0.82071  0.17880  0.19163  Biso   1.000  C
  C32      1.0000 0.17929  0.17880  0.30837  Biso   1.000  C
  C33      1.0000 0.68251  0.48890  0.86296  Biso   1.000  C
  C34      1.0000 0.31749  0.48890  0.63704  Biso   1.000  C
  C35      1.0000 0.18251  0.98890  0.86296  Biso   1.000  C
  C36      1.0000 0.81749  0.98890  0.63704  Biso   1.000  C
  C37      1.0000 0.31749  0.51110  0.13704  Biso   1.000  C
  C38      1.0000 0.68251  0.51110  0.36296  Biso   1.000  C
  C39      1.0000 0.81749  0.01110  0.13704  Biso   1.000  C
  C40      1.0000 0.18251  0.01110  0.36296  Biso   1.000  C
  C41      1.0000 0.83440  0.41180  0.00238  Biso   1.000  C
  C42      1.0000 0.16560  0.41180  0.49762  Biso   1.000  C
  C43      1.0000 0.33440  0.91180  0.00238  Biso   1.000  C
  C44      1.0000 0.66560  0.91180  0.49762  Biso   1.000  C
  C45      1.0000 0.16560  0.58820  0.99762  Biso   1.000  C
  C46      1.0000 0.83440  0.58820  0.50238  Biso   1.000  C
  C47      1.0000 0.66560  0.08820  0.99762  Biso   1.000  C
  C48      1.0000 0.33440  0.08820  0.50238  Biso   1.000  C
  C49      1.0000 0.83821  0.04390  0.88117  Biso   1.000  C
  C50      1.0000 0.16179  0.04390  0.61883  Biso   1.000  C
  C51      1.0000 0.33821  0.54390  0.88117  Biso   1.000  C
  C52      1.0000 0.66179  0.54390  0.61883  Biso   1.000  C
  C53      1.0000 0.16179  0.95610  0.11883  Biso   1.000  C
  C54      1.0000 0.83821  0.95610  0.38117  Biso   1.000  C
  C55      1.0000 0.66179  0.45610  0.11883  Biso   1.000  C
  C56      1.0000 0.33821  0.45610  0.38117  Biso   1.000  C
  H1       1.0000 0.65060  0.59300  0.85980  Biso   1.000  H
  H2       1.0000 0.34940  0.59300  0.64020  Biso   1.000  H
  H3       1.0000 0.15060  0.09300  0.85980  Biso   1.000  H
  H4       1.0000 0.84940  0.09300  0.64020  Biso   1.000  H
  H5       1.0000 0.34940  0.40700  0.14020  Biso   1.000  H
  H6       1.0000 0.65060  0.40700  0.35980  Biso   1.000  H
  H7       1.0000 0.84940  0.90700  0.14020  Biso   1.000  H
  H8       1.0000 0.15060  0.90700  0.35980  Biso   1.000  H
  H9       1.0000 0.64280  0.31300  0.76730  Biso   1.000  H
  H10      1.0000 0.35720  0.31300  0.73270  Biso   1.000  H
  H11      1.0000 0.14280  0.81300  0.76730  Biso   1.000  H
  H12      1.0000 0.85720  0.81300  0.73270  Biso   1.000  H
  H13      1.0000 0.35720  0.68700  0.23270  Biso   1.000  H
  H14      1.0000 0.64280  0.68700  0.26730  Biso   1.000  H
  H15      1.0000 0.85720  0.18700  0.23270  Biso   1.000  H
  H16      1.0000 0.14280  0.18700  0.26730  Biso   1.000  H
  H17      1.0000 0.72760  0.06500  0.78340  Biso   1.000  H
  H18      1.0000 0.27240  0.06500  0.71660  Biso   1.000  H
  H19      1.0000 0.22760  0.56500  0.78340  Biso   1.000  H
  H20      1.0000 0.77240  0.56500  0.71660  Biso   1.000  H
  H21      1.0000 0.27240  0.93500  0.21660  Biso   1.000  H
  H22      1.0000 0.72760  0.93500  0.28340  Biso   1.000  H
  H23      1.0000 0.77240  0.43500  0.21660  Biso   1.000  H
  H24      1.0000 0.22760  0.43500  0.28340  Biso   1.000  H
  H25      1.0000 0.89800  0.57300  0.14900  Biso   1.000  H
  H26      1.0000 0.10200  0.57300  0.35100  Biso   1.000  H
  H27      1.0000 0.39800  0.07300  0.14900  Biso   1.000  H
  H28      1.0000 0.60200  0.07300  0.35100  Biso   1.000  H
  H29      1.0000 0.10200  0.42700  0.85100  Biso   1.000  H
  H30      1.0000 0.89800  0.42700  0.64900  Biso   1.000  H
  H31      1.0000 0.60200  0.92700  0.85100  Biso   1.000  H
  H32      1.0000 0.39800  0.92700  0.64900  Biso   1.000  H
  H33      1.0000 0.92800  0.53800  0.22490  Biso   1.000  H
  H34      1.0000 0.07200  0.53800  0.27510  Biso   1.000  H
  H35      1.0000 0.42800  0.03800  0.22490  Biso   1.000  H
  H36      1.0000 0.57200  0.03800  0.27510  Biso   1.000  H
  H37      1.0000 0.07200  0.46200  0.77510  Biso   1.000  H
  H38      1.0000 0.92800  0.46200  0.72490  Biso   1.000  H
  H39      1.0000 0.57200  0.96200  0.77510  Biso   1.000  H
  H40      1.0000 0.42800  0.96200  0.72490  Biso   1.000  H
  H41      1.0000 0.04220  0.98600  0.15300  Biso   1.000  H
  H42      1.0000 0.95780  0.98600  0.34700  Biso   1.000  H
  H43      1.0000 0.54220  0.48600  0.15300  Biso   1.000  H
  H44      1.0000 0.45780  0.48600  0.34700  Biso   1.000  H
  H45      1.0000 0.95780  0.01400  0.84700  Biso   1.000  H
  H46      1.0000 0.04220  0.01400  0.65300  Biso   1.000  H
  H47      1.0000 0.45780  0.51400  0.84700  Biso   1.000  H
  H48      1.0000 0.54220  0.51400  0.65300  Biso   1.000  H
  H49      1.0000 0.02500  0.15000  0.95600  Biso   1.000  H
  H50      1.0000 0.97500  0.15000  0.54400  Biso   1.000  H
  H51      1.0000 0.52500  0.65000  0.95600  Biso   1.000  H
  H52      1.0000 0.47500  0.65000  0.54400  Biso   1.000  H
  H53      1.0000 0.97500  0.85000  0.04400  Biso   1.000  H
  H54      1.0000 0.02500  0.85000  0.45600  Biso   1.000  H
  H55      1.0000 0.47500  0.35000  0.04400  Biso   1.000  H
  H56      1.0000 0.52500  0.35000  0.45600  Biso   1.000  H
  H57      1.0000 0.06950  0.20900  0.01400  Biso   1.000  H
  H58      1.0000 0.93050  0.20900  0.48600  Biso   1.000  H
  H59      1.0000 0.56950  0.70900  0.01400  Biso   1.000  H
  H60      1.0000 0.43050  0.70900  0.48600  Biso   1.000  H
  H61      1.0000 0.93050  0.79100  0.98600  Biso   1.000  H
  H62      1.0000 0.06950  0.79100  0.51400  Biso   1.000  H
  H63      1.0000 0.43050  0.29100  0.98600  Biso   1.000  H
  H64      1.0000 0.56950  0.29100  0.51400  Biso   1.000  H
  H65      1.0000 0.10030  0.58500  0.15470  Biso   1.000  H
  H66      1.0000 0.89970  0.58500  0.34530  Biso   1.000  H
  H67      1.0000 0.60030  0.08500  0.15470  Biso   1.000  H
  H68      1.0000 0.39970  0.08500  0.34530  Biso   1.000  H
  H69      1.0000 0.89970  0.41500  0.84530  Biso   1.000  H
  H70      1.0000 0.10030  0.41500  0.65470  Biso   1.000  H
  H71      1.0000 0.39970  0.91500  0.84530  Biso   1.000  H
  H72      1.0000 0.60030  0.91500  0.65470  Biso   1.000  H
  H73      1.0000 0.11350  0.37800  0.14160  Biso   1.000  H
  H74      1.0000 0.88650  0.37800  0.35840  Biso   1.000  H
  H75      1.0000 0.61350  0.87800  0.14160  Biso   1.000  H
  H76      1.0000 0.38650  0.87800  0.35840  Biso   1.000  H
  H77      1.0000 0.88650  0.62200  0.85840  Biso   1.000  H
  H78      1.0000 0.11350  0.62200  0.64160  Biso   1.000  H
  H79      1.0000 0.38650  0.12200  0.85840  Biso   1.000  H
  H80      1.0000 0.61350  0.12200  0.64160  Biso   1.000  H
  H81      1.0000 0.99810  0.98700  0.19480  Biso   1.000  H
  H82      1.0000 0.00190  0.98700  0.30520  Biso   1.000  H
  H83      1.0000 0.49810  0.48700  0.19480  Biso   1.000  H
  H84      1.0000 0.50190  0.48700  0.30520  Biso   1.000  H
  H85      1.0000 0.00190  0.01300  0.80520  Biso   1.000  H
  H86      1.0000 0.99810  0.01300  0.69480  Biso   1.000  H
  H87      1.0000 0.50190  0.51300  0.80520  Biso   1.000  H
  H88      1.0000 0.49810  0.51300  0.69480  Biso   1.000  H
