data_image0
_cell_length_a       7.272
_cell_length_b       11.319
_cell_length_c       25.453
_cell_angle_alpha    90
_cell_angle_beta     90.58
_cell_angle_gamma    90

_symmetry_space_group_name_H-M    "P 1"
_symmetry_int_tables_number       1

loop_
  _symmetry_equiv_pos_as_xyz
  'x, y, z'

loop_
  _atom_site_label
  _atom_site_occupancy
  _atom_site_fract_x
  _atom_site_fract_y
  _atom_site_fract_z
  _atom_site_thermal_displace_type
  _atom_site_B_iso_or_equiv
  _atom_site_type_symbol
  Cu1      1.0000 0.00000  0.00000  0.00000  Biso   1.000  Cu
  Cu2      1.0000 0.00000  0.50000  0.50000  Biso   1.000  Cu
  Cu3      1.0000 0.75870  0.23800  0.25180  Biso   1.000  Cu
  Cu4      1.0000 0.24130  0.73800  0.24820  Biso   1.000  Cu
  Cu5      1.0000 0.24130  0.76200  0.74820  Biso   1.000  Cu
  Cu6      1.0000 0.75870  0.26200  0.75180  Biso   1.000  Cu
  Cu7      1.0000 0.50000  0.00000  0.50000  Biso   1.000  Cu
  Cu8      1.0000 0.50000  0.50000  0.00000  Biso   1.000  Cu
  O1       1.0000 0.92430  0.19910  0.19320  Biso   1.000  O
  O2       1.0000 0.07570  0.69910  0.30680  Biso   1.000  O
  O3       1.0000 0.07570  0.80090  0.80680  Biso   1.000  O
  O4       1.0000 0.92430  0.30090  0.69320  Biso   1.000  O
  O5       1.0000 0.18060  0.29810  0.21630  Biso   1.000  O
  O6       1.0000 0.81940  0.79810  0.28370  Biso   1.000  O
  O7       1.0000 0.81940  0.70190  0.78370  Biso   1.000  O
  O8       1.0000 0.18060  0.20190  0.71630  Biso   1.000  O
  O9       1.0000 0.55450  0.17940  0.20940  Biso   1.000  O
  O10      1.0000 0.44550  0.67940  0.29060  Biso   1.000  O
  O11      1.0000 0.44550  0.82060  0.79060  Biso   1.000  O
  O12      1.0000 0.55450  0.32060  0.70940  Biso   1.000  O
  O13      1.0000 0.56500  0.34800  0.16460  Biso   1.000  O
  O14      1.0000 0.43500  0.84800  0.33540  Biso   1.000  O
  O15      1.0000 0.43500  0.65200  0.83540  Biso   1.000  O
  O16      1.0000 0.56500  0.15200  0.66460  Biso   1.000  O
  N1       1.0000 0.15240  0.09010  0.05410  Biso   1.000  N
  N2       1.0000 0.84760  0.59010  0.44590  Biso   1.000  N
  N3       1.0000 0.84760  0.90990  0.94590  Biso   1.000  N
  N4       1.0000 0.15240  0.40990  0.55410  Biso   1.000  N
  C1       1.0000 0.08130  0.13600  0.09760  Biso   1.000  C
  C2       1.0000 0.91870  0.63600  0.40240  Biso   1.000  C
  C3       1.0000 0.91870  0.86400  0.90240  Biso   1.000  C
  C4       1.0000 0.08130  0.36400  0.59760  Biso   1.000  C
  C5       1.0000 0.18350  0.18720  0.13830  Biso   1.000  C
  C6       1.0000 0.81650  0.68720  0.36170  Biso   1.000  C
  C7       1.0000 0.81650  0.81280  0.86170  Biso   1.000  C
  C8       1.0000 0.18350  0.31280  0.63830  Biso   1.000  C
  C9       1.0000 0.37310  0.19190  0.13200  Biso   1.000  C
  C10      1.0000 0.62690  0.69190  0.36800  Biso   1.000  C
  C11      1.0000 0.62690  0.80810  0.86800  Biso   1.000  C
  C12      1.0000 0.37310  0.30810  0.63200  Biso   1.000  C
  C13      1.0000 0.44790  0.14600  0.08690  Biso   1.000  C
  C14      1.0000 0.55210  0.64600  0.41310  Biso   1.000  C
  C15      1.0000 0.55210  0.85400  0.91310  Biso   1.000  C
  C16      1.0000 0.44790  0.35400  0.58690  Biso   1.000  C
  C17      1.0000 0.33760  0.09600  0.04910  Biso   1.000  C
  C18      1.0000 0.66240  0.59600  0.45090  Biso   1.000  C
  C19      1.0000 0.66240  0.90400  0.95090  Biso   1.000  C
  C20      1.0000 0.33760  0.40400  0.54910  Biso   1.000  C
  C21      1.0000 0.09090  0.23340  0.18620  Biso   1.000  C
  C22      1.0000 0.90910  0.73340  0.31380  Biso   1.000  C
  C23      1.0000 0.90910  0.76660  0.81380  Biso   1.000  C
  C24      1.0000 0.09090  0.26660  0.68620  Biso   1.000  C
  C25      1.0000 0.50590  0.24650  0.17280  Biso   1.000  C
  C26      1.0000 0.49410  0.74650  0.32720  Biso   1.000  C
  C27      1.0000 0.49410  0.75350  0.82720  Biso   1.000  C
  C28      1.0000 0.50590  0.25350  0.67280  Biso   1.000  C
  O17      1.0000 0.51130  0.12340  0.44760  Biso   1.000  O
  O18      1.0000 0.48870  0.62340  0.05240  Biso   1.000  O
  O19      1.0000 0.48870  0.87660  0.55240  Biso   1.000  O
  O20      1.0000 0.51130  0.37660  0.94760  Biso   1.000  O
  O21      1.0000 0.22280  0.19160  0.45340  Biso   1.000  O
  O22      1.0000 0.77720  0.69160  0.04660  Biso   1.000  O
  O23      1.0000 0.77720  0.80840  0.54660  Biso   1.000  O
  O24      1.0000 0.22280  0.30840  0.95340  Biso   1.000  O
  O25      1.0000 0.97680  0.35980  0.39090  Biso   1.000  O
  O26      1.0000 0.02320  0.85980  0.10910  Biso   1.000  O
  O27      1.0000 0.02320  0.64020  0.60910  Biso   1.000  O
  O28      1.0000 0.97680  0.14020  0.89090  Biso   1.000  O
  O29      1.0000 0.17250  0.45040  0.44620  Biso   1.000  O
  O30      1.0000 0.82750  0.95040  0.05380  Biso   1.000  O
  O31      1.0000 0.82750  0.54960  0.55380  Biso   1.000  O
  O32      1.0000 0.17250  0.04960  0.94620  Biso   1.000  O
  N5       1.0000 0.58010  0.29210  0.30600  Biso   1.000  N
  N6       1.0000 0.41990  0.79210  0.19400  Biso   1.000  N
  N7       1.0000 0.41990  0.70790  0.69400  Biso   1.000  N
  N8       1.0000 0.58010  0.20790  0.80600  Biso   1.000  N
  C29      1.0000 0.54850  0.23280  0.35050  Biso   1.000  C
  C30      1.0000 0.45150  0.73280  0.14950  Biso   1.000  C
  C31      1.0000 0.45150  0.76720  0.64950  Biso   1.000  C
  C32      1.0000 0.54850  0.26720  0.85050  Biso   1.000  C
  C33      1.0000 0.40990  0.25980  0.38470  Biso   1.000  C
  C34      1.0000 0.59010  0.75980  0.11530  Biso   1.000  C
  C35      1.0000 0.59010  0.74020  0.61530  Biso   1.000  C
  C36      1.0000 0.40990  0.24020  0.88470  Biso   1.000  C
  C37      1.0000 0.29700  0.35460  0.37310  Biso   1.000  C
  C38      1.0000 0.70300  0.85460  0.12690  Biso   1.000  C
  C39      1.0000 0.70300  0.64540  0.62690  Biso   1.000  C
  C40      1.0000 0.29700  0.14540  0.87310  Biso   1.000  C
  C41      1.0000 0.33340  0.42180  0.32870  Biso   1.000  C
  C42      1.0000 0.66660  0.92180  0.17130  Biso   1.000  C
  C43      1.0000 0.66660  0.57820  0.67130  Biso   1.000  C
  C44      1.0000 0.33340  0.07820  0.82870  Biso   1.000  C
  C45      1.0000 0.47460  0.38570  0.29650  Biso   1.000  C
  C46      1.0000 0.52540  0.88570  0.20350  Biso   1.000  C
  C47      1.0000 0.52540  0.61430  0.70350  Biso   1.000  C
  C48      1.0000 0.47460  0.11430  0.79650  Biso   1.000  C
  C49      1.0000 0.37750  0.18690  0.43240  Biso   1.000  C
  C50      1.0000 0.62250  0.68690  0.06760  Biso   1.000  C
  C51      1.0000 0.62250  0.81310  0.56760  Biso   1.000  C
  C52      1.0000 0.37750  0.31310  0.93240  Biso   1.000  C
  C53      1.0000 0.13440  0.38930  0.40650  Biso   1.000  C
  C54      1.0000 0.86560  0.88930  0.09350  Biso   1.000  C
  C55      1.0000 0.86560  0.61070  0.59350  Biso   1.000  C
  C56      1.0000 0.13440  0.11070  0.90650  Biso   1.000  C
  O33      1.0000 0.04000  0.54070  0.09350  Biso   1.000  O
  O34      1.0000 0.96000  0.04070  0.40650  Biso   1.000  O
  O35      1.0000 0.96000  0.45930  0.90650  Biso   1.000  O
  O36      1.0000 0.04000  0.95930  0.59350  Biso   1.000  O
  O37      1.0000 0.72870  0.11520  0.55930  Biso   1.000  O
  O38      1.0000 0.27130  0.61520  0.94070  Biso   1.000  O
  O39      1.0000 0.27130  0.88480  0.44070  Biso   1.000  O
  O40      1.0000 0.72870  0.38480  0.05930  Biso   1.000  O
  O41      1.0000 0.69500  0.92260  0.46040  Biso   1.000  O
  O42      1.0000 0.30500  0.42260  0.03960  Biso   1.000  O
  O43      1.0000 0.30500  0.07740  0.53960  Biso   1.000  O
  O44      1.0000 0.69500  0.57740  0.96040  Biso   1.000  O
  O45      1.0000 0.95140  0.31260  0.29080  Biso   1.000  O
  O46      1.0000 0.04860  0.81260  0.20920  Biso   1.000  O
  O47      1.0000 0.04860  0.68740  0.70920  Biso   1.000  O
  O48      1.0000 0.95140  0.18740  0.79080  Biso   1.000  O
  O49      1.0000 0.84770  0.05250  0.29540  Biso   1.000  O
  O50      1.0000 0.15230  0.55250  0.20460  Biso   1.000  O
  O51      1.0000 0.15230  0.94750  0.70460  Biso   1.000  O
  O52      1.0000 0.84770  0.44750  0.79540  Biso   1.000  O
  O53      1.0000 0.21500  0.82970  0.01170  Biso   1.000  O
  O54      1.0000 0.78500  0.32970  0.48830  Biso   1.000  O
  O55      1.0000 0.78500  0.17030  0.98830  Biso   1.000  O
  O56      1.0000 0.21500  0.67030  0.51170  Biso   1.000  O
  O57      1.0000 0.76510  0.54660  0.21070  Biso   1.000  O
  O58      1.0000 0.23490  0.04660  0.28930  Biso   1.000  O
  O59      1.0000 0.23490  0.45340  0.78930  Biso   1.000  O
  O60      1.0000 0.76510  0.95340  0.71070  Biso   1.000  O
