data_image0
_cell_length_a       14.297
_cell_length_b       10.472
_cell_length_c       18.539
_cell_angle_alpha    90
_cell_angle_beta     114.068
_cell_angle_gamma    90

_symmetry_space_group_name_H-M    "P 1"
_symmetry_int_tables_number       1

loop_
  _symmetry_equiv_pos_as_xyz
  'x, y, z'

loop_
  _atom_site_label
  _atom_site_occupancy
  _atom_site_fract_x
  _atom_site_fract_y
  _atom_site_fract_z
  _atom_site_thermal_displace_type
  _atom_site_B_iso_or_equiv
  _atom_site_type_symbol
  Cu1      1.0000 0.42007  0.37395  0.09131  Biso   1.000  Cu
  Cu2      1.0000 0.92007  0.87395  0.09131  Biso   1.000  Cu
  Cu3      1.0000 0.57993  0.37395  0.40869  Biso   1.000  Cu
  Cu4      1.0000 0.07993  0.87395  0.40869  Biso   1.000  Cu
  Cu5      1.0000 0.57993  0.62605  0.90869  Biso   1.000  Cu
  Cu6      1.0000 0.07993  0.12605  0.90869  Biso   1.000  Cu
  Cu7      1.0000 0.42007  0.62605  0.59131  Biso   1.000  Cu
  Cu8      1.0000 0.92007  0.12605  0.59131  Biso   1.000  Cu
  O1       1.0000 0.37330  0.24720  0.00270  Biso   1.000  O
  O2       1.0000 0.87330  0.74720  0.00270  Biso   1.000  O
  O3       1.0000 0.62670  0.24720  0.49730  Biso   1.000  O
  O4       1.0000 0.12670  0.74720  0.49730  Biso   1.000  O
  O5       1.0000 0.62670  0.75280  0.99730  Biso   1.000  O
  O6       1.0000 0.12670  0.25280  0.99730  Biso   1.000  O
  O7       1.0000 0.37330  0.75280  0.50270  Biso   1.000  O
  O8       1.0000 0.87330  0.25280  0.50270  Biso   1.000  O
  O9       1.0000 0.26930  0.35080  0.07960  Biso   1.000  O
  O10      1.0000 0.76930  0.85080  0.07960  Biso   1.000  O
  O11      1.0000 0.73070  0.35080  0.42040  Biso   1.000  O
  O12      1.0000 0.23070  0.85080  0.42040  Biso   1.000  O
  O13      1.0000 0.73070  0.64920  0.92040  Biso   1.000  O
  O14      1.0000 0.23070  0.14920  0.92040  Biso   1.000  O
  O15      1.0000 0.26930  0.64920  0.57960  Biso   1.000  O
  O16      1.0000 0.76930  0.14920  0.57960  Biso   1.000  O
  O17      1.0000 0.56040  0.39600  0.07920  Biso   1.000  O
  O18      1.0000 0.06040  0.89600  0.07920  Biso   1.000  O
  O19      1.0000 0.43960  0.39600  0.42080  Biso   1.000  O
  O20      1.0000 0.93960  0.89600  0.42080  Biso   1.000  O
  O21      1.0000 0.43960  0.60400  0.92080  Biso   1.000  O
  O22      1.0000 0.93960  0.10400  0.92080  Biso   1.000  O
  O23      1.0000 0.56040  0.60400  0.57920  Biso   1.000  O
  O24      1.0000 0.06040  0.10400  0.57920  Biso   1.000  O
  O25      1.0000 0.38370  0.52640  0.00690  Biso   1.000  O
  O26      1.0000 0.88370  0.02640  0.00690  Biso   1.000  O
  O27      1.0000 0.61630  0.52640  0.49310  Biso   1.000  O
  O28      1.0000 0.11630  0.02640  0.49310  Biso   1.000  O
  O29      1.0000 0.61630  0.47360  0.99310  Biso   1.000  O
  O30      1.0000 0.11630  0.97360  0.99310  Biso   1.000  O
  O31      1.0000 0.38370  0.47360  0.50690  Biso   1.000  O
  O32      1.0000 0.88370  0.97360  0.50690  Biso   1.000  O
  O33      1.0000 0.46290  0.48940  0.18450  Biso   1.000  O
  O34      1.0000 0.96290  0.98940  0.18450  Biso   1.000  O
  O35      1.0000 0.53710  0.48940  0.31550  Biso   1.000  O
  O36      1.0000 0.03710  0.98940  0.31550  Biso   1.000  O
  O37      1.0000 0.53710  0.51060  0.81550  Biso   1.000  O
  O38      1.0000 0.03710  0.01060  0.81550  Biso   1.000  O
  O39      1.0000 0.46290  0.51060  0.68450  Biso   1.000  O
  O40      1.0000 0.96290  0.01060  0.68450  Biso   1.000  O
  O41      1.0000 0.47320  0.23420  0.18390  Biso   1.000  O
  O42      1.0000 0.97320  0.73420  0.18390  Biso   1.000  O
  O43      1.0000 0.52680  0.23420  0.31610  Biso   1.000  O
  O44      1.0000 0.02680  0.73420  0.31610  Biso   1.000  O
  O45      1.0000 0.52680  0.76580  0.81610  Biso   1.000  O
  O46      1.0000 0.02680  0.26580  0.81610  Biso   1.000  O
  O47      1.0000 0.47320  0.76580  0.68390  Biso   1.000  O
  O48      1.0000 0.97320  0.26580  0.68390  Biso   1.000  O
  C1       1.0000 0.28000  0.21900  0.97710  Biso   1.000  C
  C2       1.0000 0.78000  0.71900  0.97710  Biso   1.000  C
  C3       1.0000 0.72000  0.21900  0.52290  Biso   1.000  C
  C4       1.0000 0.22000  0.71900  0.52290  Biso   1.000  C
  C5       1.0000 0.72000  0.78100  0.02290  Biso   1.000  C
  C6       1.0000 0.22000  0.28100  0.02290  Biso   1.000  C
  C7       1.0000 0.28000  0.78100  0.47710  Biso   1.000  C
  C8       1.0000 0.78000  0.28100  0.47710  Biso   1.000  C
  C9       1.0000 0.55090  0.46260  0.02020  Biso   1.000  C
  C10      1.0000 0.05090  0.96260  0.02020  Biso   1.000  C
  C11      1.0000 0.44910  0.46260  0.47980  Biso   1.000  C
  C12      1.0000 0.94910  0.96260  0.47980  Biso   1.000  C
  C13      1.0000 0.44910  0.53740  0.97980  Biso   1.000  C
  C14      1.0000 0.94910  0.03740  0.97980  Biso   1.000  C
  C15      1.0000 0.55090  0.53740  0.52020  Biso   1.000  C
  C16      1.0000 0.05090  0.03740  0.52020  Biso   1.000  C
  C17      1.0000 0.50000  0.43350  0.25000  Biso   1.000  C
  C18      1.0000 0.00000  0.93350  0.25000  Biso   1.000  C
  C19      1.0000 0.50000  0.56650  0.75000  Biso   1.000  C
  C20      1.0000 0.00000  0.06650  0.75000  Biso   1.000  C
  C21      1.0000 0.50000  0.28720  0.25000  Biso   1.000  C
  C22      1.0000 0.00000  0.78720  0.25000  Biso   1.000  C
  C23      1.0000 0.50000  0.71280  0.75000  Biso   1.000  C
  C24      1.0000 0.00000  0.21280  0.75000  Biso   1.000  C
  N1       1.0000 0.74330  0.25660  0.15000  Biso   1.000  N
  N2       1.0000 0.24330  0.75660  0.15000  Biso   1.000  N
  N3       1.0000 0.25670  0.25660  0.35000  Biso   1.000  N
  N4       1.0000 0.75670  0.75660  0.35000  Biso   1.000  N
  N5       1.0000 0.25670  0.74340  0.85000  Biso   1.000  N
  N6       1.0000 0.75670  0.24340  0.85000  Biso   1.000  N
  N7       1.0000 0.74330  0.74340  0.65000  Biso   1.000  N
  N8       1.0000 0.24330  0.24340  0.65000  Biso   1.000  N
  C25      1.0000 0.61730  0.08320  0.08900  Biso   1.000  C
  C26      1.0000 0.11730  0.58320  0.08900  Biso   1.000  C
  C27      1.0000 0.38270  0.08320  0.41100  Biso   1.000  C
  C28      1.0000 0.88270  0.58320  0.41100  Biso   1.000  C
  C29      1.0000 0.38270  0.91680  0.91100  Biso   1.000  C
  C30      1.0000 0.88270  0.41680  0.91100  Biso   1.000  C
  C31      1.0000 0.61730  0.91680  0.58900  Biso   1.000  C
  C32      1.0000 0.11730  0.41680  0.58900  Biso   1.000  C
  C33      1.0000 0.71980  0.11800  0.12210  Biso   1.000  C
  C34      1.0000 0.21980  0.61800  0.12210  Biso   1.000  C
  C35      1.0000 0.28020  0.11800  0.37790  Biso   1.000  C
  C36      1.0000 0.78020  0.61800  0.37790  Biso   1.000  C
  C37      1.0000 0.28020  0.88200  0.87790  Biso   1.000  C
  C38      1.0000 0.78020  0.38200  0.87790  Biso   1.000  C
  C39      1.0000 0.71980  0.88200  0.62210  Biso   1.000  C
  C40      1.0000 0.21980  0.38200  0.62210  Biso   1.000  C
  C41      1.0000 0.75430  0.27790  0.23660  Biso   1.000  C
  C42      1.0000 0.25430  0.77790  0.23660  Biso   1.000  C
  C43      1.0000 0.24570  0.27790  0.26340  Biso   1.000  C
  C44      1.0000 0.74570  0.77790  0.26340  Biso   1.000  C
  C45      1.0000 0.24570  0.72210  0.76340  Biso   1.000  C
  C46      1.0000 0.74570  0.22210  0.76340  Biso   1.000  C
  C47      1.0000 0.75430  0.72210  0.73660  Biso   1.000  C
  C48      1.0000 0.25430  0.22210  0.73660  Biso   1.000  C
  C49      1.0000 0.84740  0.21000  0.29820  Biso   1.000  C
  C50      1.0000 0.34740  0.71000  0.29820  Biso   1.000  C
  C51      1.0000 0.15260  0.21000  0.20180  Biso   1.000  C
  C52      1.0000 0.65260  0.71000  0.20180  Biso   1.000  C
  C53      1.0000 0.15260  0.79000  0.70180  Biso   1.000  C
  C54      1.0000 0.65260  0.29000  0.70180  Biso   1.000  C
  C55      1.0000 0.84740  0.79000  0.79820  Biso   1.000  C
  C56      1.0000 0.34740  0.29000  0.79820  Biso   1.000  C
  C57      1.0000 0.83290  0.29800  0.13240  Biso   1.000  C
  C58      1.0000 0.33290  0.79800  0.13240  Biso   1.000  C
  C59      1.0000 0.16710  0.29800  0.36760  Biso   1.000  C
  C60      1.0000 0.66710  0.79800  0.36760  Biso   1.000  C
  C61      1.0000 0.16710  0.70200  0.86760  Biso   1.000  C
  C62      1.0000 0.66710  0.20200  0.86760  Biso   1.000  C
  C63      1.0000 0.83290  0.70200  0.63240  Biso   1.000  C
  C64      1.0000 0.33290  0.20200  0.63240  Biso   1.000  C
  C65      1.0000 0.85180  0.44100  0.13910  Biso   1.000  C
  C66      1.0000 0.35180  0.94100  0.13910  Biso   1.000  C
  C67      1.0000 0.14820  0.44100  0.36090  Biso   1.000  C
  C68      1.0000 0.64820  0.94100  0.36090  Biso   1.000  C
  C69      1.0000 0.14820  0.55900  0.86090  Biso   1.000  C
  C70      1.0000 0.64820  0.05900  0.86090  Biso   1.000  C
  C71      1.0000 0.85180  0.55900  0.63910  Biso   1.000  C
  C72      1.0000 0.35180  0.05900  0.63910  Biso   1.000  C
  O49      1.0000 0.89800  0.47400  0.20830  Biso   1.000  O
  O50      1.0000 0.39800  0.97400  0.20830  Biso   1.000  O
  O51      1.0000 0.10200  0.47400  0.29170  Biso   1.000  O
  O52      1.0000 0.60200  0.97400  0.29170  Biso   1.000  O
  O53      1.0000 0.10200  0.52600  0.79170  Biso   1.000  O
  O54      1.0000 0.60200  0.02600  0.79170  Biso   1.000  O
  O55      1.0000 0.89800  0.52600  0.70830  Biso   1.000  O
  O56      1.0000 0.39800  0.02600  0.70830  Biso   1.000  O
  O57      1.0000 0.57100  0.14800  0.01180  Biso   1.000  O
  O58      1.0000 0.07100  0.64800  0.01180  Biso   1.000  O
  O59      1.0000 0.42900  0.14800  0.48820  Biso   1.000  O
  O60      1.0000 0.92900  0.64800  0.48820  Biso   1.000  O
  O61      1.0000 0.42900  0.85200  0.98820  Biso   1.000  O
  O62      1.0000 0.92900  0.35200  0.98820  Biso   1.000  O
  O63      1.0000 0.57100  0.85200  0.51180  Biso   1.000  O
  O64      1.0000 0.07100  0.35200  0.51180  Biso   1.000  O
