data_image0
_cell_length_a       13.022
_cell_length_b       7.753
_cell_length_c       10.533
_cell_angle_alpha    90
_cell_angle_beta     91.18
_cell_angle_gamma    90

_symmetry_space_group_name_H-M    "P 1"
_symmetry_int_tables_number       1

loop_
  _symmetry_equiv_pos_as_xyz
  'x, y, z'

loop_
  _atom_site_label
  _atom_site_occupancy
  _atom_site_fract_x
  _atom_site_fract_y
  _atom_site_fract_z
  _atom_site_thermal_displace_type
  _atom_site_B_iso_or_equiv
  _atom_site_type_symbol
  Cu1      1.0000 0.61820  0.50000  0.62750  Biso   1.000  Cu
  Cu2      1.0000 0.38180  0.00000  0.37250  Biso   1.000  Cu
  Cl1      1.0000 0.18120  0.30230  0.78140  Biso   1.000  Cl
  Cl2      1.0000 0.81880  0.80230  0.21860  Biso   1.000  Cl
  C1       1.0000 0.75610  0.50170  0.83990  Biso   1.000  C
  C2       1.0000 0.24390  0.00170  0.16010  Biso   1.000  C
  C3       1.0000 0.84310  0.52390  0.91580  Biso   1.000  C
  C4       1.0000 0.15690  0.02390  0.08420  Biso   1.000  C
  C5       1.0000 0.92630  0.60570  0.86490  Biso   1.000  C
  C6       1.0000 0.07370  0.10570  0.13510  Biso   1.000  C
  C7       1.0000 0.92030  0.66980  0.74630  Biso   1.000  C
  C8       1.0000 0.07970  0.16980  0.25370  Biso   1.000  C
  C9       1.0000 0.82990  0.64960  0.67620  Biso   1.000  C
  C10      1.0000 0.17010  0.14960  0.32380  Biso   1.000  C
  C11      1.0000 0.66210  0.41260  0.88500  Biso   1.000  C
  C12      1.0000 0.33790  0.91260  0.11500  Biso   1.000  C
  C13      1.0000 0.64990  0.34420  0.00300  Biso   1.000  C
  C14      1.0000 0.35010  0.84420  0.99700  Biso   1.000  C
  C15      1.0000 0.55900  0.26920  0.03680  Biso   1.000  C
  C16      1.0000 0.44100  0.76920  0.96320  Biso   1.000  C
  C17      1.0000 0.47930  0.26810  0.94810  Biso   1.000  C
  C18      1.0000 0.52070  0.76810  0.05190  Biso   1.000  C
  C19      1.0000 0.49610  0.33740  0.82860  Biso   1.000  C
  C20      1.0000 0.50390  0.83740  0.17140  Biso   1.000  C
  C21      1.0000 0.54250  0.31290  0.42240  Biso   1.000  C
  C22      1.0000 0.45750  0.81290  0.57760  Biso   1.000  C
  C23      1.0000 0.63050  0.42010  0.36950  Biso   1.000  C
  C24      1.0000 0.36950  0.92010  0.63050  Biso   1.000  C
  C25      1.0000 0.72710  0.29860  0.35300  Biso   1.000  C
  C26      1.0000 0.27290  0.79860  0.64700  Biso   1.000  C
  C27      1.0000 0.79090  0.26840  0.46990  Biso   1.000  C
  C28      1.0000 0.20910  0.76840  0.53010  Biso   1.000  C
  C29      1.0000 0.88770  0.33660  0.48850  Biso   1.000  C
  C30      1.0000 0.11230  0.83660  0.51150  Biso   1.000  C
  C31      1.0000 0.85670  0.17970  0.66340  Biso   1.000  C
  C32      1.0000 0.14330  0.67970  0.33660  Biso   1.000  C
  C33      1.0000 0.76740  0.16550  0.57970  Biso   1.000  C
  C34      1.0000 0.23260  0.66550  0.42030  Biso   1.000  C
  C35      1.0000 0.68580  0.06360  0.62020  Biso   1.000  C
  C36      1.0000 0.31420  0.56360  0.37980  Biso   1.000  C
  C37      1.0000 0.68580  0.99360  0.73820  Biso   1.000  C
  C38      1.0000 0.31420  0.49360  0.26180  Biso   1.000  C
  C39      1.0000 0.77130  0.00580  0.82170  Biso   1.000  C
  C40      1.0000 0.22870  0.50580  0.17830  Biso   1.000  C
  C41      1.0000 0.85600  0.10120  0.78350  Biso   1.000  C
  C42      1.0000 0.14400  0.60120  0.21650  Biso   1.000  C
  N1       1.0000 0.74840  0.56710  0.72160  Biso   1.000  N
  N2       1.0000 0.25160  0.06710  0.27840  Biso   1.000  N
  N3       1.0000 0.58440  0.41010  0.79610  Biso   1.000  N
  N4       1.0000 0.41560  0.91010  0.20390  Biso   1.000  N
  N5       1.0000 0.65290  0.56690  0.45120  Biso   1.000  N
  N6       1.0000 0.34710  0.06690  0.54880  Biso   1.000  N
  N7       1.0000 0.92560  0.27860  0.60380  Biso   1.000  N
  N8       1.0000 0.07440  0.77860  0.39620  Biso   1.000  N
  O1       1.0000 0.51910  0.34240  0.53680  Biso   1.000  O
  O2       1.0000 0.48090  0.84240  0.46320  Biso   1.000  O
  O3       1.0000 0.49910  0.20600  0.35140  Biso   1.000  O
  O4       1.0000 0.50090  0.70600  0.64860  Biso   1.000  O
  O5       1.0000 0.20860  0.46900  0.82910  Biso   1.000  O
  O6       1.0000 0.79140  0.96900  0.17090  Biso   1.000  O
  O7       1.0000 0.09160  0.26420  0.83800  Biso   1.000  O
  O8       1.0000 0.90840  0.76420  0.16200  Biso   1.000  O
  O9       1.0000 0.25640  0.18480  0.81710  Biso   1.000  O
  O10      1.0000 0.74360  0.68480  0.18290  Biso   1.000  O
  O11      1.0000 0.16770  0.30590  0.64980  Biso   1.000  O
  O12      1.0000 0.83230  0.80590  0.35020  Biso   1.000  O
