data_image0
_cell_length_a       10.505
_cell_length_b       7.7135
_cell_length_c       25.545
_cell_angle_alpha    90
_cell_angle_beta     90.531
_cell_angle_gamma    90

_symmetry_space_group_name_H-M    "P 1"
_symmetry_int_tables_number       1

loop_
  _symmetry_equiv_pos_as_xyz
  'x, y, z'

loop_
  _atom_site_label
  _atom_site_occupancy
  _atom_site_fract_x
  _atom_site_fract_y
  _atom_site_fract_z
  _atom_site_thermal_displace_type
  _atom_site_B_iso_or_equiv
  _atom_site_type_symbol
  Cu1      1.0000 0.62835  0.00012  0.05913  Biso   1.000  Cu
  Cu2      1.0000 0.37165  0.50012  0.94087  Biso   1.000  Cu
  O1       1.0000 0.53730  0.16120  0.00942  Biso   1.000  O
  O2       1.0000 0.46270  0.66120  0.99058  Biso   1.000  O
  N1       1.0000 0.79850  0.09000  0.04202  Biso   1.000  N
  N2       1.0000 0.20150  0.59000  0.95798  Biso   1.000  N
  N3       1.0000 0.45220  0.93680  0.07767  Biso   1.000  N
  N4       1.0000 0.54780  0.43680  0.92233  Biso   1.000  N
  H1       1.0000 0.42540  0.84740  0.05780  Biso   1.000  H
  H2       1.0000 0.57460  0.34740  0.94220  Biso   1.000  H
  H3       1.0000 0.44900  0.90440  0.11150  Biso   1.000  H
  H4       1.0000 0.55100  0.40440  0.88850  Biso   1.000  H
  O3       1.0000 0.35080  0.30020  0.00193  Biso   1.000  O
  O4       1.0000 0.64920  0.80020  0.99807  Biso   1.000  O
  C1       1.0000 0.91720  0.96230  0.17221  Biso   1.000  C
  C2       1.0000 0.08280  0.46230  0.82779  Biso   1.000  C
  H5       1.0000 0.99860  0.00930  0.17450  Biso   1.000  H
  H6       1.0000 0.00140  0.50930  0.82550  Biso   1.000  H
  C3       1.0000 0.74530  0.50550  0.08945  Biso   1.000  C
  C4       1.0000 0.25470  0.00550  0.91055  Biso   1.000  C
  H7       1.0000 0.76880  0.57080  0.06050  Biso   1.000  H
  H8       1.0000 0.23120  0.07080  0.93950  Biso   1.000  H
  N5       1.0000 0.72230  0.92420  0.12435  Biso   1.000  N
  N6       1.0000 0.27770  0.42420  0.87565  Biso   1.000  N
  C5       1.0000 0.42280  0.19110  0.02279  Biso   1.000  C
  C6       1.0000 0.57720  0.69110  0.97721  Biso   1.000  C
  C7       1.0000 0.35840  0.20210  0.11820  Biso   1.000  C
  C8       1.0000 0.64160  0.70210  0.88180  Biso   1.000  C
  H9       1.0000 0.32340  0.31370  0.10810  Biso   1.000  H
  H10      1.0000 0.67660  0.81370  0.89190  Biso   1.000  H
  H11      1.0000 0.29790  0.14760  0.14150  Biso   1.000  H
  H12      1.0000 0.70210  0.64760  0.85850  Biso   1.000  H
  N7       1.0000 0.62490  0.21320  0.21408  Biso   1.000  N
  N8       1.0000 0.37510  0.71320  0.78592  Biso   1.000  N
  C9       1.0000 0.83140  0.16170  0.99643  Biso   1.000  C
  C10      1.0000 0.16860  0.66170  0.00357  Biso   1.000  C
  H13      1.0000 0.77120  0.16630  0.96950  Biso   1.000  H
  H14      1.0000 0.22880  0.66630  0.03050  Biso   1.000  H
  C11      1.0000 0.59030  0.33210  0.13428  Biso   1.000  C
  C12      1.0000 0.40970  0.83210  0.86572  Biso   1.000  C
  C13      1.0000 0.83370  0.47890  0.13048  Biso   1.000  C
  C14      1.0000 0.16630  0.97890  0.86952  Biso   1.000  C
  H15      1.0000 0.91530  0.52470  0.12790  Biso   1.000  H
  H16      1.0000 0.08470  0.02470  0.87210  Biso   1.000  H
  C15      1.0000 0.74840  0.79610  0.20861  Biso   1.000  C
  C16      1.0000 0.25160  0.29610  0.79139  Biso   1.000  C
  H17      1.0000 0.71460  0.72900  0.23540  Biso   1.000  H
  H18      1.0000 0.28540  0.22900  0.76460  Biso   1.000  H
  C17      1.0000 0.67930  0.31470  0.17625  Biso   1.000  C
  C18      1.0000 0.32070  0.81470  0.82375  Biso   1.000  C
  C19      1.0000 0.84200  0.98930  0.12790  Biso   1.000  C
  C20      1.0000 0.15800  0.48930  0.87210  Biso   1.000  C
  C21      1.0000 0.03850  0.22640  0.02820  Biso   1.000  C
  C22      1.0000 0.96150  0.72640  0.97180  Biso   1.000  C
  H19      1.0000 0.11870  0.27500  0.02380  Biso   1.000  H
  H20      1.0000 0.88130  0.77500  0.97620  Biso   1.000  H
  C23      1.0000 0.80080  0.38600  0.17428  Biso   1.000  C
  C24      1.0000 0.19920  0.88600  0.82572  Biso   1.000  C
  H21      1.0000 0.85820  0.37120  0.20180  Biso   1.000  H
  H22      1.0000 0.14180  0.87120  0.79820  Biso   1.000  H
  C25      1.0000 0.88600  0.08270  0.08113  Biso   1.000  C
  C26      1.0000 0.11400  0.58270  0.91887  Biso   1.000  C
  C27      1.0000 0.86850  0.86330  0.21319  Biso   1.000  C
  C28      1.0000 0.13150  0.36330  0.78681  Biso   1.000  C
  H23      1.0000 0.91710  0.84340  0.24320  Biso   1.000  H
  H24      1.0000 0.08290  0.34340  0.75680  Biso   1.000  H
  C29      1.0000 0.95100  0.22910  0.98767  Biso   1.000  C
  C30      1.0000 0.04900  0.72910  0.01233  Biso   1.000  C
  H25      1.0000 0.97200  0.27520  0.95520  Biso   1.000  H
  H26      1.0000 0.02800  0.77520  0.04480  Biso   1.000  H
  C31      1.0000 0.67820  0.82880  0.16398  Biso   1.000  C
  C32      1.0000 0.32180  0.32880  0.83602  Biso   1.000  C
  H27      1.0000 0.59660  0.78260  0.16120  Biso   1.000  H
  H28      1.0000 0.40340  0.28260  0.83880  Biso   1.000  H
  C33      1.0000 0.36970  0.08930  0.06871  Biso   1.000  C
  C34      1.0000 0.63030  0.58930  0.93129  Biso   1.000  C
  H29      1.0000 0.28440  0.04810  0.05900  Biso   1.000  H
  H30      1.0000 0.71560  0.54810  0.94100  Biso   1.000  H
  C35      1.0000 0.62470  0.43620  0.09158  Biso   1.000  C
  C36      1.0000 0.37530  0.93620  0.90842  Biso   1.000  C
  H31      1.0000 0.56620  0.45820  0.06480  Biso   1.000  H
  H32      1.0000 0.43380  0.95820  0.93520  Biso   1.000  H
  C37      1.0000 0.48000  0.23280  0.14821  Biso   1.000  C
  C38      1.0000 0.52000  0.73280  0.85179  Biso   1.000  C
  C39      1.0000 0.00680  0.15140  0.07525  Biso   1.000  C
  C40      1.0000 0.99320  0.65140  0.92475  Biso   1.000  C
  H33      1.0000 0.06560  0.14710  0.10270  Biso   1.000  H
  H34      1.0000 0.93440  0.64710  0.89730  Biso   1.000  H
  C41      1.0000 0.50530  0.16550  0.19656  Biso   1.000  C
  C42      1.0000 0.49470  0.66550  0.80344  Biso   1.000  C
  H35      1.0000 0.44920  0.09640  0.21530  Biso   1.000  H
  H36      1.0000 0.55080  0.59640  0.78470  Biso   1.000  H
  Cu3      1.0000 0.37342  0.62513  0.43847  Biso   1.000  Cu
  Cu4      1.0000 0.62658  0.12513  0.56153  Biso   1.000  Cu
  Cl1      1.0000 0.77219  0.35303  0.33345  Biso   1.000  Cl
  Cl2      1.0000 0.22781  0.85303  0.66655  Biso   1.000  Cl
  O5       1.0000 0.45920  0.78930  0.48907  Biso   1.000  O
  O6       1.0000 0.54080  0.28930  0.51093  Biso   1.000  O
  N9       1.0000 0.20100  0.70960  0.45364  Biso   1.000  N
  N10      1.0000 0.79900  0.20960  0.54636  Biso   1.000  N
  N11      1.0000 0.55210  0.56990  0.42052  Biso   1.000  N
  N12      1.0000 0.44790  0.06990  0.57948  Biso   1.000  N
  H37      1.0000 0.58070  0.48170  0.44040  Biso   1.000  H
  H38      1.0000 0.41930  0.98170  0.55960  Biso   1.000  H
  H39      1.0000 0.55710  0.53840  0.38670  Biso   1.000  H
  H40      1.0000 0.44290  0.03840  0.61330  Biso   1.000  H
  C43      1.0000 0.24450  0.14200  0.41321  Biso   1.000  C
  C44      1.0000 0.75550  0.64200  0.58679  Biso   1.000  C
  H41      1.0000 0.22230  0.20850  0.44210  Biso   1.000  H
  H42      1.0000 0.77770  0.70850  0.55790  Biso   1.000  H
  N13      1.0000 0.28420  0.53900  0.37330  Biso   1.000  N
  N14      1.0000 0.71580  0.03900  0.62670  Biso   1.000  N
  C45      1.0000 0.57450  0.82240  0.47699  Biso   1.000  C
  C46      1.0000 0.42550  0.32240  0.52301  Biso   1.000  C
  C47      1.0000 0.30770  0.94400  0.32757  Biso   1.000  C
  C48      1.0000 0.69230  0.44400  0.67243  Biso   1.000  C
  N15      1.0000 0.35940  0.84300  0.28957  Biso   1.000  N
  N16      1.0000 0.64060  0.34300  0.71043  Biso   1.000  N
  C49      1.0000 0.11370  0.69020  0.41430  Biso   1.000  C
  C50      1.0000 0.88630  0.19020  0.58570  Biso   1.000  C
  C51      1.0000 0.63390  0.84720  0.38175  Biso   1.000  C
  C52      1.0000 0.36610  0.34720  0.61825  Biso   1.000  C
  H43      1.0000 0.66460  0.95990  0.39300  Biso   1.000  H
  H44      1.0000 0.33540  0.45990  0.60700  Biso   1.000  H
  H45      1.0000 0.69530  0.80070  0.35740  Biso   1.000  H
  H46      1.0000 0.30470  0.30070  0.64260  Biso   1.000  H
  C53      1.0000 0.39830  0.96890  0.36783  Biso   1.000  C
  C54      1.0000 0.60170  0.46890  0.63217  Biso   1.000  C
  C55      1.0000 0.16230  0.59400  0.36863  Biso   1.000  C
  C56      1.0000 0.83770  0.09400  0.63137  Biso   1.000  C
  C57      1.0000 0.04470  0.85430  0.50493  Biso   1.000  C
  C58      1.0000 0.95530  0.35430  0.49507  Biso   1.000  C
  H47      1.0000 0.02230  0.90720  0.53620  Biso   1.000  H
  H48      1.0000 0.97770  0.40720  0.46380  Biso   1.000  H
  C59      1.0000 0.26830  0.41110  0.28856  Biso   1.000  C
  C60      1.0000 0.73170  0.91110  0.71144  Biso   1.000  C
  H49      1.0000 0.30690  0.34920  0.26180  Biso   1.000  H
  H50      1.0000 0.69310  0.84920  0.73820  Biso   1.000  H
  C61      1.0000 0.99200  0.75720  0.41877  Biso   1.000  C
  C62      1.0000 0.00800  0.25720  0.58123  Biso   1.000  C
  H51      1.0000 0.93370  0.74620  0.39140  Biso   1.000  H
  H52      1.0000 0.06630  0.24620  0.60860  Biso   1.000  H
  C63      1.0000 0.08950  0.55790  0.32439  Biso   1.000  C
  C64      1.0000 0.91050  0.05790  0.67561  Biso   1.000  C
  H53      1.0000 0.00510  0.59410  0.32230  Biso   1.000  H
  H54      1.0000 0.99490  0.09410  0.67770  Biso   1.000  H
  C65      1.0000 0.95820  0.84080  0.46454  Biso   1.000  C
  C66      1.0000 0.04180  0.34080  0.53546  Biso   1.000  C
  H55      1.0000 0.87710  0.88760  0.46790  Biso   1.000  H
  H56      1.0000 0.12290  0.38760  0.53210  Biso   1.000  H
  C67      1.0000 0.16600  0.78770  0.49820  Biso   1.000  C
  C68      1.0000 0.83400  0.28770  0.50180  Biso   1.000  C
  H57      1.0000 0.22490  0.79740  0.52540  Biso   1.000  H
  H58      1.0000 0.77510  0.29740  0.47460  Biso   1.000  H
  C69      1.0000 0.14320  0.46760  0.28348  Biso   1.000  C
  C70      1.0000 0.85680  0.96760  0.71652  Biso   1.000  C
  H59      1.0000 0.09660  0.44510  0.25310  Biso   1.000  H
  H60      1.0000 0.90340  0.94510  0.74690  Biso   1.000  H
  C71      1.0000 0.48110  0.79810  0.30585  Biso   1.000  C
  C72      1.0000 0.51890  0.29810  0.69415  Biso   1.000  C
  H61      1.0000 0.53590  0.72720  0.28710  Biso   1.000  H
  H62      1.0000 0.46410  0.22720  0.71290  Biso   1.000  H
  C73      1.0000 0.18430  0.01590  0.32980  Biso   1.000  C
  C74      1.0000 0.81570  0.51590  0.67020  Biso   1.000  C
  H63      1.0000 0.12570  0.99870  0.30280  Biso   1.000  H
  H64      1.0000 0.87430  0.49870  0.69720  Biso   1.000  H
  C75      1.0000 0.15300  0.11280  0.37347  Biso   1.000  C
  C76      1.0000 0.84700  0.61280  0.62653  Biso   1.000  C
  H65      1.0000 0.07160  0.15860  0.37660  Biso   1.000  H
  H66      1.0000 0.92840  0.65860  0.62340  Biso   1.000  H
  C77      1.0000 0.36530  0.07540  0.41051  Biso   1.000  C
  C78      1.0000 0.63470  0.57540  0.58949  Biso   1.000  C
  H67      1.0000 0.42490  0.10020  0.43660  Biso   1.000  H
  H68      1.0000 0.57510  0.60020  0.56340  Biso   1.000  H
  C79      1.0000 0.33340  0.44830  0.33373  Biso   1.000  C
  C80      1.0000 0.66660  0.94830  0.66627  Biso   1.000  C
  H69      1.0000 0.41650  0.40820  0.33710  Biso   1.000  H
  H70      1.0000 0.58350  0.90820  0.66290  Biso   1.000  H
  C81      1.0000 0.62960  0.72660  0.43014  Biso   1.000  C
  C82      1.0000 0.37040  0.22660  0.56986  Biso   1.000  C
  H71      1.0000 0.71670  0.69070  0.43890  Biso   1.000  H
  H72      1.0000 0.28330  0.19070  0.56110  Biso   1.000  H
  C83      1.0000 0.50960  0.87200  0.35312  Biso   1.000  C
  C84      1.0000 0.49040  0.37200  0.64688  Biso   1.000  C
  Cl3      1.0000 0.21995  0.70992  0.16225  Biso   1.000  Cl
  Cl4      1.0000 0.78005  0.20992  0.83775  Biso   1.000  Cl
  O7       1.0000 0.35660  0.70380  0.16802  Biso   1.000  O
  O8       1.0000 0.64340  0.20380  0.83198  Biso   1.000  O
  O9       1.0000 0.64580  0.92780  0.49975  Biso   1.000  O
  O10      1.0000 0.35420  0.42780  0.50025  Biso   1.000  O
  O11      1.0000 0.16800  0.78080  0.20975  Biso   1.000  O
  O12      1.0000 0.83200  0.28080  0.79025  Biso   1.000  O
  O13      1.0000 0.18730  0.82230  0.11886  Biso   1.000  O
  O14      1.0000 0.81270  0.32230  0.88114  Biso   1.000  O
  O15      1.0000 0.64180  0.30080  0.34059  Biso   1.000  O
  O16      1.0000 0.35820  0.80080  0.65941  Biso   1.000  O
  O17      1.0000 0.17000  0.54060  0.15361  Biso   1.000  O
  O18      1.0000 0.83000  0.04060  0.84639  Biso   1.000  O
  O19      1.0000 0.83390  0.22830  0.30172  Biso   1.000  O
  O20      1.0000 0.16610  0.72830  0.69828  Biso   1.000  O
  O21      1.0000 0.77480  0.51930  0.30791  Biso   1.000  O
  O22      1.0000 0.22520  0.01930  0.69209  Biso   1.000  O
  O23      1.0000 0.83500  0.36830  0.38303  Biso   1.000  O
  O24      1.0000 0.16500  0.86830  0.61697  Biso   1.000  O
