data_image0
_cell_length_a       9.5401
_cell_length_b       14.3545
_cell_length_c       14.9823
_cell_angle_alpha    90
_cell_angle_beta     106.371
_cell_angle_gamma    90

_symmetry_space_group_name_H-M    "P 1"
_symmetry_int_tables_number       1

loop_
  _symmetry_equiv_pos_as_xyz
  'x, y, z'

loop_
  _atom_site_label
  _atom_site_occupancy
  _atom_site_fract_x
  _atom_site_fract_y
  _atom_site_fract_z
  _atom_site_thermal_displace_type
  _atom_site_B_iso_or_equiv
  _atom_site_type_symbol
  Cu1      1.0000 0.21042  0.15311  0.84936  Biso   1.000  Cu
  Cu2      1.0000 0.78958  0.65311  0.65064  Biso   1.000  Cu
  Cu3      1.0000 0.78958  0.84689  0.15064  Biso   1.000  Cu
  Cu4      1.0000 0.21042  0.34689  0.34936  Biso   1.000  Cu
  C1       1.0000 0.28120  0.15600  0.04980  Biso   1.000  C
  C2       1.0000 0.71880  0.65600  0.45020  Biso   1.000  C
  C3       1.0000 0.71880  0.84400  0.95020  Biso   1.000  C
  C4       1.0000 0.28120  0.34400  0.54980  Biso   1.000  C
  H1       1.0000 0.18190  0.16930  0.03510  Biso   1.000  H
  H2       1.0000 0.81810  0.66930  0.46490  Biso   1.000  H
  H3       1.0000 0.81810  0.83070  0.96490  Biso   1.000  H
  H4       1.0000 0.18190  0.33070  0.53510  Biso   1.000  H
  C5       1.0000 0.35760  0.14930  0.14180  Biso   1.000  C
  C6       1.0000 0.64240  0.64930  0.35820  Biso   1.000  C
  C7       1.0000 0.64240  0.85070  0.85820  Biso   1.000  C
  C8       1.0000 0.35760  0.35070  0.64180  Biso   1.000  C
  H5       1.0000 0.31030  0.15790  0.18760  Biso   1.000  H
  H6       1.0000 0.68970  0.65790  0.31240  Biso   1.000  H
  H7       1.0000 0.68970  0.84210  0.81240  Biso   1.000  H
  H8       1.0000 0.31030  0.34210  0.68760  Biso   1.000  H
  C9       1.0000 0.50330  0.13010  0.16580  Biso   1.000  C
  C10      1.0000 0.49670  0.63010  0.33420  Biso   1.000  C
  C11      1.0000 0.49670  0.86990  0.83420  Biso   1.000  C
  C12      1.0000 0.50330  0.36990  0.66580  Biso   1.000  C
  C13      1.0000 0.56790  0.11740  0.09490  Biso   1.000  C
  C14      1.0000 0.43210  0.61740  0.40510  Biso   1.000  C
  C15      1.0000 0.43210  0.88260  0.90510  Biso   1.000  C
  C16      1.0000 0.56790  0.38260  0.59490  Biso   1.000  C
  H9       1.0000 0.66690  0.10360  0.10870  Biso   1.000  H
  H10      1.0000 0.33310  0.60360  0.39130  Biso   1.000  H
  H11      1.0000 0.33310  0.89640  0.89130  Biso   1.000  H
  H12      1.0000 0.66690  0.39640  0.60870  Biso   1.000  H
  C17      1.0000 0.48410  0.12530  0.00290  Biso   1.000  C
  C18      1.0000 0.51590  0.62530  0.49710  Biso   1.000  C
  C19      1.0000 0.51590  0.87470  0.99710  Biso   1.000  C
  C20      1.0000 0.48410  0.37470  0.50290  Biso   1.000  C
  H13      1.0000 0.52860  0.11700  0.95560  Biso   1.000  H
  H14      1.0000 0.47140  0.61700  0.54440  Biso   1.000  H
  H15      1.0000 0.47140  0.88300  0.04440  Biso   1.000  H
  H16      1.0000 0.52860  0.38300  0.45560  Biso   1.000  H
  C21      1.0000 0.58250  0.12290  0.26670  Biso   1.000  C
  C22      1.0000 0.41750  0.62290  0.23330  Biso   1.000  C
  C23      1.0000 0.41750  0.87710  0.73330  Biso   1.000  C
  C24      1.0000 0.58250  0.37710  0.76670  Biso   1.000  C
  H17      1.0000 0.55400  0.17630  0.29720  Biso   1.000  H
  H18      1.0000 0.44600  0.67630  0.20280  Biso   1.000  H
  H19      1.0000 0.44600  0.82370  0.70280  Biso   1.000  H
  H20      1.0000 0.55400  0.32370  0.79720  Biso   1.000  H
  H21      1.0000 0.54540  0.06810  0.29040  Biso   1.000  H
  H22      1.0000 0.45460  0.56810  0.20960  Biso   1.000  H
  H23      1.0000 0.45460  0.93190  0.70960  Biso   1.000  H
  H24      1.0000 0.54540  0.43190  0.79040  Biso   1.000  H
  C25      1.0000 0.82130  0.17700  0.43600  Biso   1.000  C
  C26      1.0000 0.17870  0.67700  0.06400  Biso   1.000  C
  C27      1.0000 0.17870  0.82300  0.56400  Biso   1.000  C
  C28      1.0000 0.82130  0.32300  0.93600  Biso   1.000  C
  H25      1.0000 0.73830  0.21790  0.43040  Biso   1.000  H
  H26      1.0000 0.26170  0.71790  0.06960  Biso   1.000  H
  H27      1.0000 0.26170  0.78210  0.56960  Biso   1.000  H
  H28      1.0000 0.73830  0.28210  0.93040  Biso   1.000  H
  H29      1.0000 0.88590  0.20830  0.40610  Biso   1.000  H
  H30      1.0000 0.11410  0.70830  0.09390  Biso   1.000  H
  H31      1.0000 0.11410  0.79170  0.59390  Biso   1.000  H
  H32      1.0000 0.88590  0.29170  0.90610  Biso   1.000  H
  C29      1.0000 0.89950  0.17080  0.53600  Biso   1.000  C
  C30      1.0000 0.10050  0.67080  0.96400  Biso   1.000  C
  C31      1.0000 0.10050  0.82920  0.46400  Biso   1.000  C
  C32      1.0000 0.89950  0.32920  0.03600  Biso   1.000  C
  C33      1.0000 0.93560  0.25030  0.58870  Biso   1.000  C
  C34      1.0000 0.06440  0.75030  0.91130  Biso   1.000  C
  C35      1.0000 0.06440  0.74970  0.41130  Biso   1.000  C
  C36      1.0000 0.93560  0.24970  0.08870  Biso   1.000  C
  H33      1.0000 0.90500  0.30820  0.56270  Biso   1.000  H
  H34      1.0000 0.09500  0.80820  0.93730  Biso   1.000  H
  H35      1.0000 0.09500  0.69180  0.43730  Biso   1.000  H
  H36      1.0000 0.90500  0.19180  0.06270  Biso   1.000  H
  C37      1.0000 0.01730  0.24360  0.68050  Biso   1.000  C
  C38      1.0000 0.98270  0.74360  0.81950  Biso   1.000  C
  C39      1.0000 0.98270  0.75640  0.31950  Biso   1.000  C
  C40      1.0000 0.01730  0.25640  0.18050  Biso   1.000  C
  H37      1.0000 0.03990  0.29790  0.71540  Biso   1.000  H
  H38      1.0000 0.96010  0.79790  0.78460  Biso   1.000  H
  H39      1.0000 0.96010  0.70210  0.28460  Biso   1.000  H
  H40      1.0000 0.03990  0.20210  0.21540  Biso   1.000  H
  C41      1.0000 0.02470  0.08480  0.67020  Biso   1.000  C
  C42      1.0000 0.97530  0.58480  0.82980  Biso   1.000  C
  C43      1.0000 0.97530  0.91520  0.32980  Biso   1.000  C
  C44      1.0000 0.02470  0.41520  0.17020  Biso   1.000  C
  H41      1.0000 0.05390  0.02740  0.69810  Biso   1.000  H
  H42      1.0000 0.94610  0.52740  0.80190  Biso   1.000  H
  H43      1.0000 0.94610  0.97260  0.30190  Biso   1.000  H
  H44      1.0000 0.05390  0.47260  0.19810  Biso   1.000  H
  C45      1.0000 0.94240  0.08620  0.57920  Biso   1.000  C
  C46      1.0000 0.05760  0.58620  0.92080  Biso   1.000  C
  C47      1.0000 0.05760  0.91380  0.42080  Biso   1.000  C
  C48      1.0000 0.94240  0.41380  0.07920  Biso   1.000  C
  H45      1.0000 0.91550  0.03080  0.54670  Biso   1.000  H
  H46      1.0000 0.08450  0.53080  0.95330  Biso   1.000  H
  H47      1.0000 0.08450  0.96920  0.45330  Biso   1.000  H
  H48      1.0000 0.91550  0.46920  0.04670  Biso   1.000  H
  C49      1.0000 0.39540  0.10840  0.70870  Biso   1.000  C
  C50      1.0000 0.60460  0.60840  0.79130  Biso   1.000  C
  C51      1.0000 0.60460  0.89160  0.29130  Biso   1.000  C
  C52      1.0000 0.39540  0.39160  0.20870  Biso   1.000  C
  H49      1.0000 0.30710  0.11080  0.66230  Biso   1.000  H
  H50      1.0000 0.69290  0.61080  0.83770  Biso   1.000  H
  H51      1.0000 0.69290  0.88920  0.33770  Biso   1.000  H
  H52      1.0000 0.30710  0.38920  0.16230  Biso   1.000  H
  C53      1.0000 0.51090  0.11120  0.58440  Biso   1.000  C
  C54      1.0000 0.48910  0.61120  0.91560  Biso   1.000  C
  C55      1.0000 0.48910  0.88880  0.41560  Biso   1.000  C
  C56      1.0000 0.51090  0.38880  0.08440  Biso   1.000  C
  H53      1.0000 0.41180  0.10350  0.54700  Biso   1.000  H
  H54      1.0000 0.58820  0.60350  0.95300  Biso   1.000  H
  H55      1.0000 0.58820  0.89650  0.45300  Biso   1.000  H
  H56      1.0000 0.41180  0.39650  0.04700  Biso   1.000  H
  H57      1.0000 0.56980  0.06160  0.57140  Biso   1.000  H
  H58      1.0000 0.43020  0.56160  0.92860  Biso   1.000  H
  H59      1.0000 0.43020  0.93840  0.42860  Biso   1.000  H
  H60      1.0000 0.56980  0.43840  0.07140  Biso   1.000  H
  H61      1.0000 0.54780  0.16990  0.57040  Biso   1.000  H
  H62      1.0000 0.45220  0.66990  0.92960  Biso   1.000  H
  H63      1.0000 0.45220  0.83010  0.42960  Biso   1.000  H
  H64      1.0000 0.54780  0.33010  0.07040  Biso   1.000  H
  C57      1.0000 0.65820  0.10840  0.74950  Biso   1.000  C
  C58      1.0000 0.34180  0.60840  0.75050  Biso   1.000  C
  C59      1.0000 0.34180  0.89160  0.25050  Biso   1.000  C
  C60      1.0000 0.65820  0.39160  0.24950  Biso   1.000  C
  H65      1.0000 0.64720  0.11920  0.81040  Biso   1.000  H
  H66      1.0000 0.35280  0.61920  0.68960  Biso   1.000  H
  H67      1.0000 0.35280  0.88080  0.18960  Biso   1.000  H
  H68      1.0000 0.64720  0.38080  0.31040  Biso   1.000  H
  H69      1.0000 0.71750  0.15670  0.73460  Biso   1.000  H
  H70      1.0000 0.28250  0.65670  0.76540  Biso   1.000  H
  H71      1.0000 0.28250  0.84330  0.26540  Biso   1.000  H
  H72      1.0000 0.71750  0.34330  0.23460  Biso   1.000  H
  H73      1.0000 0.70420  0.04910  0.74830  Biso   1.000  H
  H74      1.0000 0.29580  0.54910  0.75170  Biso   1.000  H
  H75      1.0000 0.29580  0.95090  0.25170  Biso   1.000  H
  H76      1.0000 0.70420  0.45090  0.24830  Biso   1.000  H
  N1       1.0000 0.34110  0.14457  0.98034  Biso   1.000  N
  N2       1.0000 0.65890  0.64457  0.51966  Biso   1.000  N
  N3       1.0000 0.65890  0.85543  0.01966  Biso   1.000  N
  N4       1.0000 0.34110  0.35543  0.48034  Biso   1.000  N
  N5       1.0000 0.71570  0.11850  0.29280  Biso   1.000  N
  N6       1.0000 0.28430  0.61850  0.20720  Biso   1.000  N
  N7       1.0000 0.28430  0.88150  0.70720  Biso   1.000  N
  N8       1.0000 0.71570  0.38150  0.79280  Biso   1.000  N
  N9       1.0000 0.77440  0.10560  0.38900  Biso   1.000  N
  N10      1.0000 0.22560  0.60560  0.11100  Biso   1.000  N
  N11      1.0000 0.22560  0.89440  0.61100  Biso   1.000  N
  N12      1.0000 0.77440  0.39440  0.88900  Biso   1.000  N
  N13      1.0000 0.06530  0.16233  0.72114  Biso   1.000  N
  N14      1.0000 0.93470  0.66233  0.77886  Biso   1.000  N
  N15      1.0000 0.93470  0.83767  0.27886  Biso   1.000  N
  N16      1.0000 0.06530  0.33767  0.22114  Biso   1.000  N
  N17      1.0000 0.51580  0.10870  0.68190  Biso   1.000  N
  N18      1.0000 0.48420  0.60870  0.81810  Biso   1.000  N
  N19      1.0000 0.48420  0.89130  0.31810  Biso   1.000  N
  N20      1.0000 0.51580  0.39130  0.18190  Biso   1.000  N
  N21      1.0000 0.23300  0.34560  0.87630  Biso   1.000  N
  N22      1.0000 0.76700  0.84560  0.62370  Biso   1.000  N
  N23      1.0000 0.76700  0.65440  0.12370  Biso   1.000  N
  N24      1.0000 0.23300  0.15440  0.37630  Biso   1.000  N
  N25      1.0000 0.00740  0.03650  0.88490  Biso   1.000  N
  N26      1.0000 0.99260  0.53650  0.61510  Biso   1.000  N
  N27      1.0000 0.99260  0.96350  0.11510  Biso   1.000  N
  N28      1.0000 0.00740  0.46350  0.38490  Biso   1.000  N
  O1       1.0000 0.96890  0.11570  0.89874  Biso   1.000  O
  O2       1.0000 0.03110  0.61570  0.60126  Biso   1.000  O
  O3       1.0000 0.03110  0.88430  0.10126  Biso   1.000  O
  O4       1.0000 0.96890  0.38430  0.39874  Biso   1.000  O
  O5       1.0000 0.13130  0.02747  0.86723  Biso   1.000  O
  O6       1.0000 0.86870  0.52747  0.63277  Biso   1.000  O
  O7       1.0000 0.86870  0.97253  0.13277  Biso   1.000  O
  O8       1.0000 0.13130  0.47253  0.36723  Biso   1.000  O
  O9       1.0000 0.93400  0.96820  0.88570  Biso   1.000  O
  O10      1.0000 0.06600  0.46820  0.61430  Biso   1.000  O
  O11      1.0000 0.06600  0.03180  0.11430  Biso   1.000  O
  O12      1.0000 0.93400  0.53180  0.38570  Biso   1.000  O
  O13      1.0000 0.28740  0.28081  0.83738  Biso   1.000  O
  O14      1.0000 0.71260  0.78081  0.66262  Biso   1.000  O
  O15      1.0000 0.71260  0.71919  0.16262  Biso   1.000  O
  O16      1.0000 0.28740  0.21919  0.33738  Biso   1.000  O
  O17      1.0000 0.14050  0.32600  0.91420  Biso   1.000  O
  O18      1.0000 0.85950  0.82600  0.58580  Biso   1.000  O
  O19      1.0000 0.85950  0.67400  0.08580  Biso   1.000  O
  O20      1.0000 0.14050  0.17400  0.41420  Biso   1.000  O
  O21      1.0000 0.27910  0.42460  0.87250  Biso   1.000  O
  O22      1.0000 0.72090  0.92460  0.62750  Biso   1.000  O
  O23      1.0000 0.72090  0.57540  0.12750  Biso   1.000  O
  O24      1.0000 0.27910  0.07540  0.37250  Biso   1.000  O
  O25      1.0000 0.38970  0.10540  0.78899  Biso   1.000  O
  O26      1.0000 0.61030  0.60540  0.71101  Biso   1.000  O
  O27      1.0000 0.61030  0.89460  0.21101  Biso   1.000  O
  O28      1.0000 0.38970  0.39460  0.28899  Biso   1.000  O
