data_image0
_cell_length_a       9.359
_cell_length_b       15.499
_cell_length_c       21.281
_cell_angle_alpha    91.389
_cell_angle_beta     101.931
_cell_angle_gamma    106.879

_symmetry_space_group_name_H-M    "P 1"
_symmetry_int_tables_number       1

loop_
  _symmetry_equiv_pos_as_xyz
  'x, y, z'

loop_
  _atom_site_label
  _atom_site_occupancy
  _atom_site_fract_x
  _atom_site_fract_y
  _atom_site_fract_z
  _atom_site_thermal_displace_type
  _atom_site_B_iso_or_equiv
  _atom_site_type_symbol
  Cu1      1.0000 0.00000  0.00000  0.00000  Biso   1.000  Cu
  O1       1.0000 0.81550  0.92740  0.92560  Biso   1.000  O
  O2       1.0000 0.18450  0.07260  0.07440  Biso   1.000  O
  O3       1.0000 0.87380  0.08970  0.00410  Biso   1.000  O
  O4       1.0000 0.12620  0.91030  0.99590  Biso   1.000  O
  O5       1.0000 0.13150  0.08320  0.94690  Biso   1.000  O
  O6       1.0000 0.86850  0.91680  0.05310  Biso   1.000  O
  C1       1.0000 0.68880  0.93640  0.91170  Biso   1.000  C
  C2       1.0000 0.31120  0.06360  0.08830  Biso   1.000  C
  C3       1.0000 0.73890  0.08050  0.97550  Biso   1.000  C
  C4       1.0000 0.26110  0.91950  0.02450  Biso   1.000  C
  N1       1.0000 0.92250  0.89090  0.10880  Biso   1.000  N
  N2       1.0000 0.07750  0.10910  0.89120  Biso   1.000  N
  C5       1.0000 0.58600  0.85690  0.84950  Biso   1.000  C
  C6       1.0000 0.41400  0.14310  0.15050  Biso   1.000  C
  C7       1.0000 0.64290  0.00780  0.93210  Biso   1.000  C
  C8       1.0000 0.35710  0.99220  0.06790  Biso   1.000  C
  C9       1.0000 0.69030  0.14870  0.01590  Biso   1.000  C
  C10      1.0000 0.30970  0.85130  0.98410  Biso   1.000  C
  C11      1.0000 0.91050  0.93190  0.17150  Biso   1.000  C
  C12      1.0000 0.08950  0.06810  0.82850  Biso   1.000  C
  C13      1.0000 0.95730  0.81420  0.11500  Biso   1.000  C
  C14      1.0000 0.04270  0.18580  0.88500  Biso   1.000  C
  F1       1.0000 0.67450  0.83670  0.81380  Biso   1.000  F
  F2       1.0000 0.32550  0.16330  0.18620  Biso   1.000  F
  F3       1.0000 0.51360  0.78960  0.90140  Biso   1.000  F
  F4       1.0000 0.48640  0.21040  0.09860  Biso   1.000  F
  F5       1.0000 0.48900  0.86160  0.82450  Biso   1.000  F
  F6       1.0000 0.51100  0.13840  0.17550  Biso   1.000  F
  H1       1.0000 0.54240  0.00720  0.91590  Biso   1.000  H
  H2       1.0000 0.45760  0.99280  0.08410  Biso   1.000  H
  F7       1.0000 0.71100  0.15280  0.08540  Biso   1.000  F
  F8       1.0000 0.28900  0.84720  0.91460  Biso   1.000  F
  F9       1.0000 0.75530  0.23040  0.99870  Biso   1.000  F
  F10      1.0000 0.24470  0.76960  0.00130  Biso   1.000  F
  F11      1.0000 0.53720  0.13900  0.98400  Biso   1.000  F
  F12      1.0000 0.46280  0.86100  0.01600  Biso   1.000  F
  C15      1.0000 0.95840  0.03350  0.17410  Biso   1.000  C
  C16      1.0000 0.04160  0.96650  0.82590  Biso   1.000  C
  C17      1.0000 0.74260  0.89390  0.17350  Biso   1.000  C
  C18      1.0000 0.25740  0.10610  0.82650  Biso   1.000  C
  C19      1.0000 0.01710  0.89120  0.21930  Biso   1.000  C
  C20      1.0000 0.98290  0.10880  0.78070  Biso   1.000  C
  N3       1.0000 0.00250  0.80670  0.17980  Biso   1.000  N
  N4       1.0000 0.99750  0.19330  0.82020  Biso   1.000  N
  C21      1.0000 0.94220  0.74560  0.06570  Biso   1.000  C
  C22      1.0000 0.05780  0.25440  0.93430  Biso   1.000  C
  H3       1.0000 0.06470  0.05590  0.17280  Biso   1.000  H
  H4       1.0000 0.93530  0.94410  0.82720  Biso   1.000  H
  H5       1.0000 0.89790  0.05190  0.13790  Biso   1.000  H
  H6       1.0000 0.10210  0.94810  0.86210  Biso   1.000  H
  H7       1.0000 0.94330  0.05770  0.21340  Biso   1.000  H
  H8       1.0000 0.05670  0.94230  0.78660  Biso   1.000  H
  H9       1.0000 0.68260  0.92130  0.14290  Biso   1.000  H
  H10      1.0000 0.31740  0.07870  0.85710  Biso   1.000  H
  H11      1.0000 0.70940  0.82960  0.16280  Biso   1.000  H
  H12      1.0000 0.29060  0.17040  0.83720  Biso   1.000  H
  H13      1.0000 0.72990  0.90670  0.21600  Biso   1.000  H
  H14      1.0000 0.27010  0.09330  0.78400  Biso   1.000  H
  C23      1.0000 0.18670  0.94580  0.23220  Biso   1.000  C
  C24      1.0000 0.81330  0.05420  0.76780  Biso   1.000  C
  C25      1.0000 0.96940  0.86730  0.28200  Biso   1.000  C
  C26      1.0000 0.03060  0.13270  0.71800  Biso   1.000  C
  O7       1.0000 0.04210  0.74040  0.20420  Biso   1.000  O
  O8       1.0000 0.95790  0.25960  0.79580  Biso   1.000  O
  C27      1.0000 0.98810  0.66790  0.07130  Biso   1.000  C
  C28      1.0000 0.01190  0.33210  0.92870  Biso   1.000  C
  C29      1.0000 0.87430  0.74320  0.00070  Biso   1.000  C
  C30      1.0000 0.12570  0.25680  0.99930  Biso   1.000  C
  H15      1.0000 0.24540  0.91680  0.26220  Biso   1.000  H
  H16      1.0000 0.75460  0.08320  0.73780  Biso   1.000  H
  H17      1.0000 0.22070  0.94890  0.19250  Biso   1.000  H
  H18      1.0000 0.77930  0.05110  0.80750  Biso   1.000  H
  H19      1.0000 0.20040  0.00590  0.25010  Biso   1.000  H
  H20      1.0000 0.79960  0.99410  0.74990  Biso   1.000  H
  H21      1.0000 0.86300  0.83280  0.27300  Biso   1.000  H
  H22      1.0000 0.13700  0.16720  0.72700  Biso   1.000  H
  H23      1.0000 0.02960  0.83210  0.30430  Biso   1.000  H
  H24      1.0000 0.97040  0.16790  0.69570  Biso   1.000  H
  H25      1.0000 0.98540  0.92180  0.30840  Biso   1.000  H
  H26      1.0000 0.01460  0.07820  0.69160  Biso   1.000  H
  H27      1.0000 0.03940  0.65240  0.10950  Biso   1.000  H
  H28      1.0000 0.96060  0.34760  0.89050  Biso   1.000  H
  N5       1.0000 0.94920  0.61850  0.01490  Biso   1.000  N
  N6       1.0000 0.05080  0.38150  0.98510  Biso   1.000  N
  N7       1.0000 0.87890  0.66640  0.97160  Biso   1.000  N
  N8       1.0000 0.12110  0.33360  0.02840  Biso   1.000  N
  H29      1.0000 0.83350  0.78650  0.98120  Biso   1.000  H
  H30      1.0000 0.16650  0.21350  0.01880  Biso   1.000  H
  Cu2      1.0000 0.00000  0.50000  0.00000  Biso   1.000  Cu
  C31      1.0000 0.80620  0.63050  0.90440  Biso   1.000  C
  C32      1.0000 0.19380  0.36950  0.09560  Biso   1.000  C
  O9       1.0000 0.22110  0.56160  0.03890  Biso   1.000  O
  O10      1.0000 0.77890  0.43840  0.96110  Biso   1.000  O
  O11      1.0000 0.04930  0.53140  0.90300  Biso   1.000  O
  O12      1.0000 0.95070  0.46860  0.09700  Biso   1.000  O
  H31      1.0000 0.69660  0.62000  0.89790  Biso   1.000  H
  H32      1.0000 0.30340  0.38000  0.10210  Biso   1.000  H
  H33      1.0000 0.82300  0.57260  0.89690  Biso   1.000  H
  H34      1.0000 0.17700  0.42740  0.10310  Biso   1.000  H
  C33      1.0000 0.86240  0.68950  0.85720  Biso   1.000  C
  C34      1.0000 0.13760  0.31050  0.14280  Biso   1.000  C
  C35      1.0000 0.32850  0.58420  0.00920  Biso   1.000  C
  C36      1.0000 0.67150  0.41580  0.99080  Biso   1.000  C
  C37      1.0000 0.18130  0.55860  0.89630  Biso   1.000  C
  C38      1.0000 0.81870  0.44140  0.10370  Biso   1.000  C
  H35      1.0000 0.79370  0.68820  0.81850  Biso   1.000  H
  H36      1.0000 0.20630  0.31180  0.18150  Biso   1.000  H
  C39      1.0000 0.00600  0.74610  0.86460  Biso   1.000  C
  C40      1.0000 0.99400  0.25390  0.13540  Biso   1.000  C
  C41      1.0000 0.48610  0.61080  0.05270  Biso   1.000  C
  C42      1.0000 0.51390  0.38920  0.94730  Biso   1.000  C
  C43      1.0000 0.31880  0.58520  0.94360  Biso   1.000  C
  C44      1.0000 0.68120  0.41480  0.05640  Biso   1.000  C
  C45      1.0000 0.19790  0.56380  0.82540  Biso   1.000  C
  C46      1.0000 0.80210  0.43620  0.17460  Biso   1.000  C
  H37      1.0000 0.07830  0.74950  0.90260  Biso   1.000  H
  H38      1.0000 0.92170  0.25050  0.09740  Biso   1.000  H
  H39      1.0000 0.03250  0.78170  0.83180  Biso   1.000  H
  H40      1.0000 0.96750  0.21830  0.16820  Biso   1.000  H
  F13      1.0000 0.52560  0.69510  0.07840  Biso   1.000  F
  F14      1.0000 0.47440  0.30490  0.92160  Biso   1.000  F
  F15      1.0000 0.59550  0.60410  0.02250  Biso   1.000  F
  F16      1.0000 0.40450  0.39590  0.97750  Biso   1.000  F
  F17      1.0000 0.49400  0.56000  0.10210  Biso   1.000  F
  F18      1.0000 0.50600  0.44000  0.89790  Biso   1.000  F
  H41      1.0000 0.40990  0.60480  0.92970  Biso   1.000  H
  H42      1.0000 0.59010  0.39520  0.07030  Biso   1.000  H
  F19      1.0000 0.15000  0.48450  0.79850  Biso   1.000  F
  F20      1.0000 0.85000  0.51550  0.20150  Biso   1.000  F
  F21      1.0000 0.11200  0.61900  0.80040  Biso   1.000  F
  F22      1.0000 0.88800  0.38100  0.19960  Biso   1.000  F
  F23      1.0000 0.33280  0.59530  0.81850  Biso   1.000  F
  F24      1.0000 0.66720  0.40470  0.18150  Biso   1.000  F
  O13      1.0000 0.60910  0.40440  0.56000  Biso   1.000  O
  O14      1.0000 0.39090  0.59560  0.44000  Biso   1.000  O
  C47      1.0000 0.24530  0.16190  0.57380  Biso   1.000  C
  C48      1.0000 0.75470  0.83810  0.42620  Biso   1.000  C
  N9       1.0000 0.18100  0.11840  0.51610  Biso   1.000  N
  N10      1.0000 0.81900  0.88160  0.48390  Biso   1.000  N
  C49      1.0000 0.66730  0.35180  0.78810  Biso   1.000  C
  C50      1.0000 0.33270  0.64820  0.21190  Biso   1.000  C
  H43      1.0000 0.70960  0.30480  0.77860  Biso   1.000  H
  H44      1.0000 0.29040  0.69520  0.22140  Biso   1.000  H
  N11      1.0000 0.25810  0.16520  0.47450  Biso   1.000  N
  N12      1.0000 0.74190  0.83480  0.52550  Biso   1.000  N
  C51      1.0000 0.21990  0.13720  0.40450  Biso   1.000  C
  C52      1.0000 0.78010  0.86280  0.59550  Biso   1.000  C
  F25      1.0000 0.29400  0.95400  0.70760  Biso   1.000  F
  F26      1.0000 0.70600  0.04600  0.29240  Biso   1.000  F
  F27      1.0000 0.41270  0.03360  0.69190  Biso   1.000  F
  F28      1.0000 0.58730  0.96640  0.30810  Biso   1.000  F
  C53      1.0000 0.69190  0.41670  0.67780  Biso   1.000  C
  C54      1.0000 0.30810  0.58330  0.32220  Biso   1.000  C
  C55      1.0000 0.74770  0.51920  0.67990  Biso   1.000  C
  C56      1.0000 0.25230  0.48080  0.32010  Biso   1.000  C
  Cu3      1.0000 0.00000  0.00000  0.50000  Biso   1.000  Cu
  O15      1.0000 0.12340  0.96580  0.59770  Biso   1.000  O
  O16      1.0000 0.87660  0.03420  0.40230  Biso   1.000  O
  C57      1.0000 0.48740  0.43580  0.73800  Biso   1.000  C
  C58      1.0000 0.51260  0.56420  0.26200  Biso   1.000  C
  H45      1.0000 0.42060  0.44060  0.69830  Biso   1.000  H
  H46      1.0000 0.57940  0.55940  0.30170  Biso   1.000  H
  C59      1.0000 0.58600  0.37890  0.72510  Biso   1.000  C
  C60      1.0000 0.41400  0.62110  0.27490  Biso   1.000  C
  C61      1.0000 0.29410  0.91540  0.55140  Biso   1.000  C
  C62      1.0000 0.70590  0.08460  0.44860  Biso   1.000  C
  C63      1.0000 0.23620  0.94060  0.60050  Biso   1.000  C
  C64      1.0000 0.76380  0.05940  0.39950  Biso   1.000  C
  H47      1.0000 0.37870  0.89440  0.56220  Biso   1.000  H
  H48      1.0000 0.62130  0.10560  0.43780  Biso   1.000  H
  C65      1.0000 0.31710  0.89330  0.43720  Biso   1.000  C
  C66      1.0000 0.68290  0.10670  0.56280  Biso   1.000  C
  C67      1.0000 0.23390  0.91940  0.48600  Biso   1.000  C
  C68      1.0000 0.76610  0.08060  0.51400  Biso   1.000  C
  N13      1.0000 0.58100  0.37790  0.61450  Biso   1.000  N
  N14      1.0000 0.41900  0.62210  0.38550  Biso   1.000  N
  N15      1.0000 0.47750  0.29460  0.68470  Biso   1.000  N
  N16      1.0000 0.52250  0.70540  0.31530  Biso   1.000  N
  C69      1.0000 0.82340  0.37750  0.68170  Biso   1.000  C
  C70      1.0000 0.17660  0.62250  0.31830  Biso   1.000  C
  H49      1.0000 0.42730  0.40800  0.76770  Biso   1.000  H
  H50      1.0000 0.57270  0.59200  0.23230  Biso   1.000  H
  C71      1.0000 0.47060  0.30190  0.62100  Biso   1.000  C
  C72      1.0000 0.52940  0.69810  0.37900  Biso   1.000  C
  O17      1.0000 0.11650  0.93860  0.45910  Biso   1.000  O
  O18      1.0000 0.88350  0.06140  0.54090  Biso   1.000  O
  H51      1.0000 0.81130  0.53670  0.64950  Biso   1.000  H
  H52      1.0000 0.18870  0.46330  0.35050  Biso   1.000  H
  H53      1.0000 0.88220  0.40310  0.65100  Biso   1.000  H
  H54      1.0000 0.11780  0.59690  0.34900  Biso   1.000  H
  C73      1.0000 0.15110  0.20070  0.36700  Biso   1.000  C
  C74      1.0000 0.84890  0.79930  0.63300  Biso   1.000  C
  C75      1.0000 0.18700  0.23070  0.31400  Biso   1.000  C
  C76      1.0000 0.81300  0.76930  0.68600  Biso   1.000  C
  H55      1.0000 0.55150  0.49510  0.75620  Biso   1.000  H
  H56      1.0000 0.44850  0.50490  0.24380  Biso   1.000  H
  O19      1.0000 0.39000  0.23160  0.70840  Biso   1.000  O
  O20      1.0000 0.61000  0.76840  0.29160  Biso   1.000  O
  H57      1.0000 0.14830  0.07660  0.39610  Biso   1.000  H
  H58      1.0000 0.85170  0.92340  0.60390  Biso   1.000  H
  C77      1.0000 0.32860  0.93860  0.66960  Biso   1.000  C
  C78      1.0000 0.67140  0.06140  0.33040  Biso   1.000  C
  H59      1.0000 0.74820  0.40350  0.81050  Biso   1.000  H
  H60      1.0000 0.25180  0.59650  0.18950  Biso   1.000  H
  C79      1.0000 0.36950  0.23780  0.50460  Biso   1.000  C
  C80      1.0000 0.63050  0.76220  0.49540  Biso   1.000  C
  H61      1.0000 0.43690  0.27960  0.48540  Biso   1.000  H
  H62      1.0000 0.56310  0.72040  0.51460  Biso   1.000  H
  F29      1.0000 0.32700  0.95230  0.39180  Biso   1.000  F
  F30      1.0000 0.67300  0.04770  0.60820  Biso   1.000  F
  F31      1.0000 0.47500  0.90720  0.46380  Biso   1.000  F
  F32      1.0000 0.52500  0.09280  0.53620  Biso   1.000  F
  F33      1.0000 0.44250  0.90750  0.67420  Biso   1.000  F
  F34      1.0000 0.55750  0.09250  0.32580  Biso   1.000  F
  C81      1.0000 0.36720  0.24010  0.56990  Biso   1.000  C
  C82      1.0000 0.63280  0.75990  0.43010  Biso   1.000  C
  H63      1.0000 0.14040  0.27030  0.29250  Biso   1.000  H
  H64      1.0000 0.85960  0.72970  0.70750  Biso   1.000  H
  H65      1.0000 0.80580  0.54390  0.72250  Biso   1.000  H
  H66      1.0000 0.19420  0.45610  0.27750  Biso   1.000  H
  H67      1.0000 0.78380  0.31300  0.67220  Biso   1.000  H
  H68      1.0000 0.21620  0.68700  0.32780  Biso   1.000  H
  H69      1.0000 0.25970  0.21250  0.29760  Biso   1.000  H
  H70      1.0000 0.74030  0.78750  0.70240  Biso   1.000  H
  H71      1.0000 0.59520  0.33030  0.81460  Biso   1.000  H
  H72      1.0000 0.40480  0.66970  0.18540  Biso   1.000  H
  H73      1.0000 0.66140  0.54190  0.66910  Biso   1.000  H
  H74      1.0000 0.33860  0.45810  0.33090  Biso   1.000  H
  H75      1.0000 0.88760  0.39150  0.72430  Biso   1.000  H
  H76      1.0000 0.11240  0.60850  0.27570  Biso   1.000  H
  H77      1.0000 0.21520  0.14380  0.61160  Biso   1.000  H
  H78      1.0000 0.78480  0.85620  0.38840  Biso   1.000  H
  H79      1.0000 0.31210  0.13600  0.39090  Biso   1.000  H
  H80      1.0000 0.68790  0.86400  0.60910  Biso   1.000  H
  H81      1.0000 0.07830  0.21990  0.38220  Biso   1.000  H
  H82      1.0000 0.92170  0.78010  0.61780  Biso   1.000  H
  F35      1.0000 0.19900  0.79010  0.40890  Biso   1.000  F
  F36      1.0000 0.80100  0.20990  0.59110  Biso   1.000  F
  Cu4      1.0000 0.50000  0.50000  0.50000  Biso   1.000  Cu
  O21      1.0000 0.52320  0.42660  0.42790  Biso   1.000  O
  O22      1.0000 0.47680  0.57340  0.57210  Biso   1.000  O
  C83      1.0000 0.63620  0.36290  0.35900  Biso   1.000  C
  C84      1.0000 0.36380  0.63710  0.64100  Biso   1.000  C
  F37      1.0000 0.75800  0.37780  0.33230  Biso   1.000  F
  F38      1.0000 0.24200  0.62220  0.66770  Biso   1.000  F
  F39      1.0000 0.50800  0.35180  0.31590  Biso   1.000  F
  F40      1.0000 0.49200  0.64820  0.68410  Biso   1.000  F
  F41      1.0000 0.61490  0.28330  0.38700  Biso   1.000  F
  F42      1.0000 0.38510  0.71670  0.61300  Biso   1.000  F
  C85      1.0000 0.64590  0.43720  0.41010  Biso   1.000  C
  C86      1.0000 0.35410  0.56280  0.58990  Biso   1.000  C
  C87      1.0000 0.78300  0.50530  0.43010  Biso   1.000  C
  C88      1.0000 0.21700  0.49470  0.56990  Biso   1.000  C
  H83      1.0000 0.86390  0.50610  0.41090  Biso   1.000  H
  H84      1.0000 0.13610  0.49390  0.58910  Biso   1.000  H
  C89      1.0000 0.80320  0.57370  0.47910  Biso   1.000  C
  C90      1.0000 0.19680  0.42630  0.52090  Biso   1.000  C
  C91      1.0000 0.95960  0.64420  0.50310  Biso   1.000  C
  C92      1.0000 0.04040  0.35580  0.49690  Biso   1.000  C
  F43      1.0000 0.00820  0.64500  0.56820  Biso   1.000  F
  F44      1.0000 0.99180  0.35500  0.43180  Biso   1.000  F
  F45      1.0000 0.95580  0.72550  0.49580  Biso   1.000  F
  F46      1.0000 0.04420  0.27450  0.50420  Biso   1.000  F
  F47      1.0000 0.06790  0.62640  0.47720  Biso   1.000  F
  F48      1.0000 0.93210  0.37360  0.52280  Biso   1.000  F
  O23      1.0000 0.70820  0.58360  0.50830  Biso   1.000  O
  O24      1.0000 0.29180  0.41640  0.49170  Biso   1.000  O
  F49      1.0000 0.58270  0.77610  0.89090  Biso   1.000  F
  F50      1.0000 0.41730  0.22390  0.10910  Biso   1.000  F
  F51      1.0000 0.49800  0.86450  0.85430  Biso   1.000  F
  F52      1.0000 0.50200  0.13550  0.14570  Biso   1.000  F
  F53      1.0000 0.67700  0.37300  0.18100  Biso   1.000  F
  F54      1.0000 0.32300  0.62700  0.81900  Biso   1.000  F
  F55      1.0000 0.91800  0.43060  0.21680  Biso   1.000  F
  F56      1.0000 0.08200  0.56940  0.78320  Biso   1.000  F
  F57      1.0000 0.79500  0.51700  0.19770  Biso   1.000  F
  F58      1.0000 0.20500  0.48300  0.80230  Biso   1.000  F
  F59      1.0000 0.75600  0.37100  0.33930  Biso   1.000  F
  F60      1.0000 0.24400  0.62900  0.66070  Biso   1.000  F
  F61      1.0000 0.52400  0.35290  0.30490  Biso   1.000  F
  F62      1.0000 0.47600  0.64710  0.69510  Biso   1.000  F
  F63      1.0000 0.25940  0.82530  0.40920  Biso   1.000  F
  F64      1.0000 0.74060  0.17470  0.59080  Biso   1.000  F
  F65      1.0000 0.42300  0.86500  0.46330  Biso   1.000  F
  F66      1.0000 0.57700  0.13500  0.53670  Biso   1.000  F
  F67      1.0000 0.32200  0.92900  0.39000  Biso   1.000  F
  F68      1.0000 0.67800  0.07100  0.61000  Biso   1.000  F
  F69      1.0000 0.24100  0.89300  0.70470  Biso   1.000  F
  F70      1.0000 0.75900  0.10700  0.29530  Biso   1.000  F
