data_image0
_cell_length_a       12.9164
_cell_length_b       14.9346
_cell_length_c       20.2028
_cell_angle_alpha    75.072
_cell_angle_beta     82.824
_cell_angle_gamma    80.708

_symmetry_space_group_name_H-M    "P 1"
_symmetry_int_tables_number       1

loop_
  _symmetry_equiv_pos_as_xyz
  'x, y, z'

loop_
  _atom_site_label
  _atom_site_occupancy
  _atom_site_fract_x
  _atom_site_fract_y
  _atom_site_fract_z
  _atom_site_thermal_displace_type
  _atom_site_B_iso_or_equiv
  _atom_site_type_symbol
  Cu1      1.0000 0.00000  0.00000  0.00000  Biso   1.000  Cu
  O1       1.0000 0.93390  0.92944  0.09040  Biso   1.000  O
  O2       1.0000 0.06610  0.07056  0.90960  Biso   1.000  O
  C1       1.0000 0.80650  0.89000  0.17930  Biso   1.000  C
  C2       1.0000 0.19350  0.11000  0.82070  Biso   1.000  C
  F1       1.0000 0.80810  0.95390  0.21189  Biso   1.000  F
  F2       1.0000 0.19190  0.04610  0.78811  Biso   1.000  F
  F3       1.0000 0.71010  0.86730  0.19424  Biso   1.000  F
  F4       1.0000 0.28990  0.13270  0.80576  Biso   1.000  F
  F5       1.0000 0.86610  0.81640  0.21014  Biso   1.000  F
  F6       1.0000 0.13390  0.18360  0.78986  Biso   1.000  F
  C3       1.0000 0.83820  0.92070  0.10230  Biso   1.000  C
  C4       1.0000 0.16180  0.07930  0.89770  Biso   1.000  C
  C5       1.0000 0.76200  0.93680  0.05740  Biso   1.000  C
  C6       1.0000 0.23800  0.06320  0.94260  Biso   1.000  C
  H1       1.0000 0.69350  0.92750  0.07510  Biso   1.000  H
  H2       1.0000 0.30650  0.07250  0.92490  Biso   1.000  H
  C7       1.0000 0.78300  0.96660  0.98630  Biso   1.000  C
  C8       1.0000 0.21700  0.03340  0.01370  Biso   1.000  C
  C9       1.0000 0.69420  0.97610  0.94150  Biso   1.000  C
  C10      1.0000 0.30580  0.02390  0.05850  Biso   1.000  C
  F7       1.0000 0.60830  0.95490  0.97140  Biso   1.000  F
  F8       1.0000 0.39170  0.04510  0.02860  Biso   1.000  F
  F9       1.0000 0.66890  0.05830  0.91660  Biso   1.000  F
  F10      1.0000 0.33110  0.94170  0.08340  Biso   1.000  F
  F11      1.0000 0.72230  0.92890  0.89320  Biso   1.000  F
  F12      1.0000 0.27770  0.07110  0.10680  Biso   1.000  F
  O3       1.0000 0.86780  0.98468  0.95462  Biso   1.000  O
  O4       1.0000 0.13220  0.01532  0.04538  Biso   1.000  O
  Cu2      1.0000 0.21720  0.23959  0.26253  Biso   1.000  Cu
  Cu3      1.0000 0.78280  0.76041  0.73747  Biso   1.000  Cu
  O5       1.0000 0.14870  0.17459  0.35017  Biso   1.000  O
  O6       1.0000 0.85130  0.82541  0.64983  Biso   1.000  O
  C11      1.0000 0.03760  0.14420  0.45000  Biso   1.000  C
  C12      1.0000 0.96240  0.85580  0.55000  Biso   1.000  C
  F13      1.0000 0.99580  0.18760  0.49755  Biso   1.000  F
  F14      1.0000 0.00420  0.81240  0.50245  Biso   1.000  F
  F15      1.0000 0.96680  0.10490  0.43760  Biso   1.000  F
  F16      1.0000 0.03320  0.89510  0.56240  Biso   1.000  F
  F17      1.0000 0.10760  0.08500  0.47920  Biso   1.000  F
  F18      1.0000 0.89240  0.91500  0.52080  Biso   1.000  F
  C13      1.0000 0.07870  0.21310  0.38560  Biso   1.000  C
  C14      1.0000 0.92130  0.78690  0.61440  Biso   1.000  C
  C15      1.0000 0.03480  0.30550  0.37160  Biso   1.000  C
  C16      1.0000 0.96520  0.69450  0.62840  Biso   1.000  C
  H3       1.0000 0.98740  0.32650  0.40480  Biso   1.000  H
  H4       1.0000 0.01260  0.67350  0.59520  Biso   1.000  H
  C17      1.0000 0.05830  0.36840  0.31030  Biso   1.000  C
  C18      1.0000 0.94170  0.63160  0.68970  Biso   1.000  C
  C19      1.0000 0.00280  0.46920  0.30190  Biso   1.000  C
  C20      1.0000 0.99720  0.53080  0.69810  Biso   1.000  C
  F19      1.0000 0.94610  0.48710  0.35297  Biso   1.000  F
  F20      1.0000 0.05390  0.51290  0.64703  Biso   1.000  F
  F21      1.0000 0.07090  0.52970  0.28081  Biso   1.000  F
  F22      1.0000 0.92910  0.47030  0.71919  Biso   1.000  F
  F23      1.0000 0.94300  0.48933  0.24920  Biso   1.000  F
  F24      1.0000 0.05700  0.51067  0.75080  Biso   1.000  F
  O7       1.0000 0.11802  0.35431  0.26067  Biso   1.000  O
  O8       1.0000 0.88198  0.64569  0.73933  Biso   1.000  O
  O9       1.0000 0.28340  0.30112  0.17241  Biso   1.000  O
  O10      1.0000 0.71660  0.69888  0.82759  Biso   1.000  O
  C21      1.0000 0.39250  0.32000  0.07020  Biso   1.000  C
  C22      1.0000 0.60750  0.68000  0.92980  Biso   1.000  C
  F25      1.0000 0.38580  0.41060  0.06792  Biso   1.000  F
  F26      1.0000 0.61420  0.58940  0.93208  Biso   1.000  F
  F27      1.0000 0.48410  0.29850  0.04378  Biso   1.000  F
  F28      1.0000 0.51590  0.70150  0.95622  Biso   1.000  F
  F29      1.0000 0.32450  0.31780  0.02916  Biso   1.000  F
  F30      1.0000 0.67550  0.68220  0.97084  Biso   1.000  F
  C23      1.0000 0.36240  0.26540  0.14240  Biso   1.000  C
  C24      1.0000 0.63760  0.73460  0.85760  Biso   1.000  C
  C25      1.0000 0.42270  0.18030  0.16560  Biso   1.000  C
  C26      1.0000 0.57730  0.81970  0.83440  Biso   1.000  C
  H5       1.0000 0.48330  0.16360  0.13890  Biso   1.000  H
  H6       1.0000 0.51670  0.83640  0.86110  Biso   1.000  H
  C27      1.0000 0.39550  0.11870  0.22760  Biso   1.000  C
  C28      1.0000 0.60450  0.88130  0.77240  Biso   1.000  C
  C29      1.0000 0.46600  0.02380  0.24490  Biso   1.000  C
  C30      1.0000 0.53400  0.97620  0.75510  Biso   1.000  C
  F31      1.0000 0.53180  0.03070  0.28550  Biso   1.000  F
  F32      1.0000 0.46820  0.96930  0.71450  Biso   1.000  F
  F33      1.0000 0.51110  0.99460  0.19020  Biso   1.000  F
  F34      1.0000 0.48890  0.00540  0.80980  Biso   1.000  F
  F35      1.0000 0.40640  0.95700  0.28080  Biso   1.000  F
  F36      1.0000 0.59360  0.04300  0.71920  Biso   1.000  F
  O11      1.0000 0.32020  0.12871  0.26993  Biso   1.000  O
  O12      1.0000 0.67980  0.87129  0.73007  Biso   1.000  O
  Cu4      1.0000 0.50000  0.50000  0.50000  Biso   1.000  Cu
  O13      1.0000 0.36252  0.47259  0.48982  Biso   1.000  O
  O14      1.0000 0.63748  0.52741  0.51018  Biso   1.000  O
  C31      1.0000 0.18620  0.48620  0.47780  Biso   1.000  C
  C32      1.0000 0.81380  0.51380  0.52220  Biso   1.000  C
  F37      1.0000 0.18990  0.45330  0.42700  Biso   1.000  F
  F38      1.0000 0.81010  0.54670  0.57300  Biso   1.000  F
  F39      1.0000 0.09740  0.54540  0.47974  Biso   1.000  F
  F40      1.0000 0.90260  0.45460  0.52026  Biso   1.000  F
  F41      1.0000 0.16790  0.42080  0.53220  Biso   1.000  F
  F42      1.0000 0.83210  0.57920  0.46780  Biso   1.000  F
  C33      1.0000 0.28180  0.53020  0.48265  Biso   1.000  C
  C34      1.0000 0.71820  0.46980  0.51735  Biso   1.000  C
  C35      1.0000 0.27220  0.62610  0.47680  Biso   1.000  C
  C36      1.0000 0.72780  0.37390  0.52320  Biso   1.000  C
  H7       1.0000 0.20620  0.66160  0.47220  Biso   1.000  H
  H8       1.0000 0.79380  0.33840  0.52780  Biso   1.000  H
  C37      1.0000 0.35740  0.66940  0.47757  Biso   1.000  C
  C38      1.0000 0.64260  0.33060  0.52243  Biso   1.000  C
  C39      1.0000 0.34070  0.77540  0.47020  Biso   1.000  C
  C40      1.0000 0.65930  0.22460  0.52980  Biso   1.000  C
  F43      1.0000 0.39060  0.80310  0.50910  Biso   1.000  F
  F44      1.0000 0.60940  0.19690  0.49090  Biso   1.000  F
  F45      1.0000 0.23750  0.80440  0.48500  Biso   1.000  F
  F46      1.0000 0.76250  0.19560  0.51500  Biso   1.000  F
  F47      1.0000 0.35490  0.81580  0.40610  Biso   1.000  F
  F48      1.0000 0.64510  0.18420  0.59390  Biso   1.000  F
  O15      1.0000 0.45110  0.63412  0.48353  Biso   1.000  O
  O16      1.0000 0.54890  0.36588  0.51647  Biso   1.000  O
  O17      1.0000 0.90435  0.11316  0.02908  Biso   1.000  O
  O18      1.0000 0.09565  0.88684  0.97092  Biso   1.000  O
  N1       1.0000 0.92130  0.20050  0.00711  Biso   1.000  N
  N2       1.0000 0.07870  0.79950  0.99289  Biso   1.000  N
  C41      1.0000 0.86250  0.27000  0.95129  Biso   1.000  C
  C42      1.0000 0.13750  0.73000  0.04871  Biso   1.000  C
  C43      1.0000 0.75120  0.29350  0.98541  Biso   1.000  C
  C44      1.0000 0.24880  0.70650  0.01459  Biso   1.000  C
  H9       1.0000 0.71380  0.24050  0.99400  Biso   1.000  H
  H10      1.0000 0.28620  0.75950  0.00600  Biso   1.000  H
  H11      1.0000 0.71380  0.34600  0.95540  Biso   1.000  H
  H12      1.0000 0.28620  0.65400  0.04460  Biso   1.000  H
  H13      1.0000 0.75660  0.30860  0.02810  Biso   1.000  H
  H14      1.0000 0.24340  0.69140  0.97190  Biso   1.000  H
  C45      1.0000 0.85580  0.22710  0.89124  Biso   1.000  C
  C46      1.0000 0.14420  0.77290  0.10876  Biso   1.000  C
  H15      1.0000 0.81190  0.17820  0.90590  Biso   1.000  H
  H16      1.0000 0.18810  0.82180  0.09410  Biso   1.000  H
  H17      1.0000 0.92510  0.20160  0.87610  Biso   1.000  H
  H18      1.0000 0.07490  0.79840  0.12390  Biso   1.000  H
  H19      1.0000 0.82620  0.27450  0.85410  Biso   1.000  H
  H20      1.0000 0.17380  0.72550  0.14590  Biso   1.000  H
  C47      1.0000 0.93180  0.35030  0.93460  Biso   1.000  C
  C48      1.0000 0.06820  0.64970  0.06540  Biso   1.000  C
  C49      1.0000 0.87220  0.44830  0.91643  Biso   1.000  C
  C50      1.0000 0.12780  0.55170  0.08357  Biso   1.000  C
  H21      1.0000 0.92100  0.49310  0.90700  Biso   1.000  H
  H22      1.0000 0.07900  0.50690  0.09300  Biso   1.000  H
  H23      1.0000 0.82260  0.45790  0.95430  Biso   1.000  H
  H24      1.0000 0.17740  0.54210  0.04570  Biso   1.000  H
  H25      1.0000 0.83540  0.45580  0.87650  Biso   1.000  H
  H26      1.0000 0.16460  0.54420  0.12350  Biso   1.000  H
  C51      1.0000 0.02640  0.33580  0.88350  Biso   1.000  C
  C52      1.0000 0.97360  0.66420  0.11650  Biso   1.000  C
  H27      1.0000 0.06630  0.38720  0.87500  Biso   1.000  H
  H28      1.0000 0.93370  0.61280  0.12500  Biso   1.000  H
  H29      1.0000 0.00250  0.33250  0.84120  Biso   1.000  H
  H30      1.0000 0.99750  0.66750  0.15880  Biso   1.000  H
  H31      1.0000 0.07000  0.27860  0.90220  Biso   1.000  H
  H32      1.0000 0.93000  0.72140  0.09780  Biso   1.000  H
  N3       1.0000 0.97520  0.33210  0.00299  Biso   1.000  N
  N4       1.0000 0.02480  0.66790  0.99701  Biso   1.000  N
  O19      1.0000 0.02440  0.39132  0.01681  Biso   1.000  O
  O20      1.0000 0.97560  0.60868  0.98319  Biso   1.000  O
  C53      1.0000 0.97430  0.24260  0.03979  Biso   1.000  C
  C54      1.0000 0.02570  0.75740  0.96021  Biso   1.000  C
  C55      1.0000 0.02150  0.20350  0.10352  Biso   1.000  C
  C56      1.0000 0.97850  0.79650  0.89648  Biso   1.000  C
  C57      1.0000 0.08060  0.24540  0.13690  Biso   1.000  C
  C58      1.0000 0.91940  0.75460  0.86310  Biso   1.000  C
  H33      1.0000 0.09840  0.30550  0.11980  Biso   1.000  H
  H34      1.0000 0.90160  0.69450  0.88020  Biso   1.000  H
  N5       1.0000 0.10830  0.19000  0.19577  Biso   1.000  N
  N6       1.0000 0.89170  0.81000  0.80423  Biso   1.000  N
  N7       1.0000 0.06640  0.11010  0.20064  Biso   1.000  N
  N8       1.0000 0.93360  0.88990  0.79936  Biso   1.000  N
  C59      1.0000 0.08400  0.03180  0.26100  Biso   1.000  C
  C60      1.0000 0.91600  0.96820  0.73900  Biso   1.000  C
  H35      1.0000 0.15380  0.03140  0.27420  Biso   1.000  H
  H36      1.0000 0.84620  0.96860  0.72580  Biso   1.000  H
  H37      1.0000 0.03410  0.04510  0.29850  Biso   1.000  H
  H38      1.0000 0.96590  0.95490  0.70150  Biso   1.000  H
  C61      1.0000 0.07640  0.94240  0.25630  Biso   1.000  C
  C62      1.0000 0.92360  0.05760  0.74370  Biso   1.000  C
  H39      1.0000 0.12740  0.92790  0.21970  Biso   1.000  H
  H40      1.0000 0.87260  0.07210  0.78030  Biso   1.000  H
  H41      1.0000 0.00710  0.94250  0.24260  Biso   1.000  H
  H42      1.0000 0.99290  0.05750  0.75740  Biso   1.000  H
  C63      1.0000 0.09300  0.86540  0.31940  Biso   1.000  C
  C64      1.0000 0.90700  0.13460  0.68060  Biso   1.000  C
  H43      1.0000 0.16470  0.86160  0.33060  Biso   1.000  H
  H44      1.0000 0.83530  0.13840  0.66940  Biso   1.000  H
  H45      1.0000 0.04660  0.88280  0.35700  Biso   1.000  H
  H46      1.0000 0.95340  0.11720  0.64300  Biso   1.000  H
  C65      1.0000 0.07680  0.77620  0.31700  Biso   1.000  C
  C66      1.0000 0.92320  0.22380  0.68300  Biso   1.000  C
  H47      1.0000 0.08980  0.73320  0.36040  Biso   1.000  H
  H48      1.0000 0.91020  0.26680  0.63960  Biso   1.000  H
  H49      1.0000 0.12400  0.75640  0.28130  Biso   1.000  H
  H50      1.0000 0.87600  0.24360  0.71870  Biso   1.000  H
  H51      1.0000 0.00540  0.77770  0.30770  Biso   1.000  H
  H52      1.0000 0.99460  0.22230  0.69230  Biso   1.000  H
  C67      1.0000 0.01490  0.11680  0.14661  Biso   1.000  C
  C68      1.0000 0.98510  0.88320  0.85339  Biso   1.000  C
  H53      1.0000 0.98040  0.07070  0.13910  Biso   1.000  H
  H54      1.0000 0.01960  0.92930  0.86090  Biso   1.000  H
  O21      1.0000 0.56213  0.49725  0.38346  Biso   1.000  O
  O22      1.0000 0.43787  0.50275  0.61654  Biso   1.000  O
  N9       1.0000 0.52680  0.54429  0.32539  Biso   1.000  N
  N10      1.0000 0.47320  0.45571  0.67461  Biso   1.000  N
  C69      1.0000 0.57560  0.62810  0.28246  Biso   1.000  C
  C70      1.0000 0.42440  0.37190  0.71754  Biso   1.000  C
  C71      1.0000 0.68090  0.58940  0.25229  Biso   1.000  C
  C72      1.0000 0.31910  0.41060  0.74771  Biso   1.000  C
  H55      1.0000 0.72810  0.56600  0.28790  Biso   1.000  H
  H56      1.0000 0.27190  0.43400  0.71210  Biso   1.000  H
  H57      1.0000 0.70970  0.63800  0.21730  Biso   1.000  H
  H58      1.0000 0.29030  0.36200  0.78270  Biso   1.000  H
  H59      1.0000 0.67210  0.53940  0.23250  Biso   1.000  H
  H60      1.0000 0.32790  0.46060  0.76750  Biso   1.000  H
  C73      1.0000 0.58940  0.69190  0.32742  Biso   1.000  C
  C74      1.0000 0.41060  0.30810  0.67258  Biso   1.000  C
  H61      1.0000 0.64200  0.66140  0.35840  Biso   1.000  H
  H62      1.0000 0.35800  0.33860  0.64160  Biso   1.000  H
  H63      1.0000 0.52380  0.70550  0.35330  Biso   1.000  H
  H64      1.0000 0.47620  0.29450  0.64670  Biso   1.000  H
  H65      1.0000 0.61100  0.74900  0.29900  Biso   1.000  H
  H66      1.0000 0.38900  0.25100  0.70100  Biso   1.000  H
  C75      1.0000 0.49110  0.66890  0.22938  Biso   1.000  C
  C76      1.0000 0.50890  0.33110  0.77062  Biso   1.000  C
  C77      1.0000 0.40100  0.73700  0.25250  Biso   1.000  C
  C78      1.0000 0.59900  0.26300  0.74750  Biso   1.000  C
  H67      1.0000 0.35260  0.75890  0.21760  Biso   1.000  H
  H68      1.0000 0.64740  0.24110  0.78240  Biso   1.000  H
  H69      1.0000 0.42880  0.78910  0.26000  Biso   1.000  H
  H70      1.0000 0.57120  0.21090  0.74000  Biso   1.000  H
  H71      1.0000 0.36500  0.70560  0.29450  Biso   1.000  H
  H72      1.0000 0.63500  0.29440  0.70550  Biso   1.000  H
  C79      1.0000 0.53500  0.70700  0.15608  Biso   1.000  C
  C80      1.0000 0.46500  0.29300  0.84392  Biso   1.000  C
  H73      1.0000 0.47800  0.72990  0.12720  Biso   1.000  H
  H74      1.0000 0.52200  0.27010  0.87280  Biso   1.000  H
  H75      1.0000 0.58050  0.65800  0.14000  Biso   1.000  H
  H76      1.0000 0.41950  0.34200  0.86000  Biso   1.000  H
  H77      1.0000 0.57410  0.75700  0.15460  Biso   1.000  H
  H78      1.0000 0.42590  0.24300  0.84540  Biso   1.000  H
  N11      1.0000 0.44260  0.58250  0.23217  Biso   1.000  N
  N12      1.0000 0.55740  0.41750  0.76783  Biso   1.000  N
  O23      1.0000 0.38140  0.57933  0.18878  Biso   1.000  O
  O24      1.0000 0.61860  0.42067  0.81122  Biso   1.000  O
  C81      1.0000 0.46030  0.51680  0.29169  Biso   1.000  C
  C82      1.0000 0.53970  0.48320  0.70831  Biso   1.000  C
  C83      1.0000 0.41810  0.43070  0.31317  Biso   1.000  C
  C84      1.0000 0.58190  0.56930  0.68683  Biso   1.000  C
  C85      1.0000 0.34600  0.40010  0.28102  Biso   1.000  C
  C86      1.0000 0.65400  0.59990  0.71898  Biso   1.000  C
  H79      1.0000 0.31460  0.43600  0.24200  Biso   1.000  H
  H80      1.0000 0.68540  0.56400  0.75800  Biso   1.000  H
  N13      1.0000 0.32720  0.31420  0.31223  Biso   1.000  N
  N14      1.0000 0.67280  0.68580  0.68777  Biso   1.000  N
  N15      1.0000 0.38760  0.28950  0.36630  Biso   1.000  N
  N16      1.0000 0.61240  0.71050  0.63370  Biso   1.000  N
  C87      1.0000 0.38830  0.19680  0.41490  Biso   1.000  C
  C88      1.0000 0.61170  0.80320  0.58510  Biso   1.000  C
  H81      1.0000 0.46060  0.16770  0.42000  Biso   1.000  H
  H82      1.0000 0.53940  0.83230  0.58000  Biso   1.000  H
  H83      1.0000 0.35310  0.15750  0.39610  Biso   1.000  H
  H84      1.0000 0.64690  0.84250  0.60390  Biso   1.000  H
  C89      1.0000 0.33530  0.20240  0.48360  Biso   1.000  C
  C90      1.0000 0.66470  0.79760  0.51640  Biso   1.000  C
  H85      1.0000 0.26160  0.22730  0.47950  Biso   1.000  H
  H86      1.0000 0.73840  0.77270  0.52050  Biso   1.000  H
  H87      1.0000 0.36770  0.24430  0.50170  Biso   1.000  H
  H88      1.0000 0.63230  0.75570  0.49830  Biso   1.000  H
  C91      1.0000 0.34470  0.10420  0.53340  Biso   1.000  C
  C92      1.0000 0.65530  0.89580  0.46660  Biso   1.000  C
  H89      1.0000 0.31530  0.06130  0.51450  Biso   1.000  H
  H90      1.0000 0.68470  0.93870  0.48550  Biso   1.000  H
  H91      1.0000 0.41820  0.08050  0.53960  Biso   1.000  H
  H92      1.0000 0.58180  0.91950  0.46040  Biso   1.000  H
  C93      1.0000 0.28540  0.11110  0.60210  Biso   1.000  C
  C94      1.0000 0.71460  0.88890  0.39790  Biso   1.000  C
  H93      1.0000 0.29110  0.05040  0.63340  Biso   1.000  H
  H94      1.0000 0.70890  0.94960  0.36660  Biso   1.000  H
  H95      1.0000 0.21260  0.13390  0.59570  Biso   1.000  H
  H96      1.0000 0.78740  0.86610  0.40430  Biso   1.000  H
  H97      1.0000 0.31510  0.15340  0.62060  Biso   1.000  H
  H98      1.0000 0.68490  0.84660  0.37940  Biso   1.000  H
  C95      1.0000 0.44180  0.35710  0.36817  Biso   1.000  C
  C96      1.0000 0.55820  0.64290  0.63183  Biso   1.000  C
  H99      1.0000 0.48740  0.35500  0.40080  Biso   1.000  H
  H100     1.0000 0.51260  0.64500  0.59920  Biso   1.000  H
  F49      1.0000 0.62190  0.06380  0.95510  Biso   1.000  F
  F50      1.0000 0.37810  0.93620  0.04490  Biso   1.000  F
  F51      1.0000 0.70930  0.01040  0.88000  Biso   1.000  F
  F52      1.0000 0.29070  0.98960  0.12000  Biso   1.000  F
  F53      1.0000 0.62770  0.91730  0.96620  Biso   1.000  F
  F54      1.0000 0.37230  0.08270  0.03380  Biso   1.000  F
  F55      1.0000 0.56730  0.03560  0.22140  Biso   1.000  F
  F56      1.0000 0.43270  0.96440  0.77860  Biso   1.000  F
  F57      1.0000 0.43600  0.95970  0.23540  Biso   1.000  F
  F58      1.0000 0.56400  0.04030  0.76460  Biso   1.000  F
  F59      1.0000 0.48370  0.00440  0.30940  Biso   1.000  F
  F60      1.0000 0.51630  0.99560  0.69060  Biso   1.000  F
  F61      1.0000 0.35810  0.79340  0.52410  Biso   1.000  F
  F62      1.0000 0.64190  0.20660  0.47590  Biso   1.000  F
  F63      1.0000 0.25580  0.81980  0.45300  Biso   1.000  F
  F64      1.0000 0.74420  0.18020  0.54700  Biso   1.000  F
  F65      1.0000 0.41450  0.81900  0.42430  Biso   1.000  F
  F66      1.0000 0.58550  0.18100  0.57570  Biso   1.000  F
  C97      1.0000 0.74680  0.33050  0.20566  Biso   1.000  C
  C98      1.0000 0.25320  0.66950  0.79434  Biso   1.000  C
  C99      1.0000 0.63800  0.34430  0.20415  Biso   1.000  C
  C100     1.0000 0.36200  0.65570  0.79585  Biso   1.000  C
  H101     1.0000 0.59680  0.30590  0.23690  Biso   1.000  H
  H102     1.0000 0.40320  0.69410  0.76310  Biso   1.000  H
  C101     1.0000 0.59070  0.41560  0.15369  Biso   1.000  C
  C102     1.0000 0.40930  0.58440  0.84631  Biso   1.000  C
  H103     1.0000 0.51790  0.42490  0.15270  Biso   1.000  H
  H104     1.0000 0.48210  0.57510  0.84730  Biso   1.000  H
  C103     1.0000 0.65230  0.47310  0.10474  Biso   1.000  C
  C104     1.0000 0.34770  0.52690  0.89526  Biso   1.000  C
  H105     1.0000 0.62060  0.52080  0.07100  Biso   1.000  H
  H106     1.0000 0.37940  0.47920  0.92900  Biso   1.000  H
  C105     1.0000 0.76110  0.45920  0.10625  Biso   1.000  C
  C106     1.0000 0.23890  0.54080  0.89375  Biso   1.000  C
  H107     1.0000 0.80220  0.49760  0.07350  Biso   1.000  H
  H108     1.0000 0.19780  0.50240  0.92650  Biso   1.000  H
  C107     1.0000 0.80830  0.38790  0.15672  Biso   1.000  C
  C108     1.0000 0.19170  0.61210  0.84328  Biso   1.000  C
  H109     1.0000 0.88110  0.37860  0.15770  Biso   1.000  H
  H110     1.0000 0.11890  0.62140  0.84230  Biso   1.000  H
  C109     1.0000 0.78650  0.24920  0.26720  Biso   1.000  C
  C110     1.0000 0.21350  0.75080  0.73280  Biso   1.000  C
  H111     1.0000 0.86130  0.25700  0.26110  Biso   1.000  H
  H112     1.0000 0.13870  0.74300  0.73890  Biso   1.000  H
  C111     1.0000 0.75300  0.29550  0.32310  Biso   1.000  C
  C112     1.0000 0.24700  0.70450  0.67690  Biso   1.000  C
  H113     1.0000 0.77660  0.25550  0.36530  Biso   1.000  H
  H114     1.0000 0.22340  0.74450  0.63470  Biso   1.000  H
  H115     1.0000 0.67730  0.30840  0.32760  Biso   1.000  H
  H116     1.0000 0.32270  0.69160  0.67240  Biso   1.000  H
  H117     1.0000 0.78210  0.35310  0.31330  Biso   1.000  H
  H118     1.0000 0.21790  0.64690  0.68670  Biso   1.000  H
  C113     1.0000 0.79590  0.16140  0.27690  Biso   1.000  C
  C114     1.0000 0.20410  0.83860  0.72310  Biso   1.000  C
  H119     1.0000 0.82210  0.13230  0.32090  Biso   1.000  H
  H120     1.0000 0.17790  0.86770  0.67910  Biso   1.000  H
  H121     1.0000 0.84430  0.14220  0.24150  Biso   1.000  H
  H122     1.0000 0.15570  0.85780  0.75850  Biso   1.000  H
  H123     1.0000 0.72850  0.14280  0.27580  Biso   1.000  H
  H124     1.0000 0.27150  0.85720  0.72420  Biso   1.000  H
  C115     1.0000 0.71020  0.33100  0.20210  Biso   1.000  C
  C116     1.0000 0.28980  0.66900  0.79790  Biso   1.000  C
  C117     1.0000 0.80930  0.35740  0.17860  Biso   1.000  C
  C118     1.0000 0.19070  0.64260  0.82140  Biso   1.000  C
  H125     1.0000 0.86840  0.32320  0.19940  Biso   1.000  H
  H126     1.0000 0.13160  0.67680  0.80060  Biso   1.000  H
  C119     1.0000 0.82000  0.43470  0.12380  Biso   1.000  C
  C120     1.0000 0.18000  0.56530  0.87620  Biso   1.000  C
  H127     1.0000 0.88630  0.45230  0.10810  Biso   1.000  H
  H128     1.0000 0.11370  0.54770  0.89190  Biso   1.000  H
  C121     1.0000 0.73170  0.48570  0.09260  Biso   1.000  C
  C122     1.0000 0.26830  0.51430  0.90740  Biso   1.000  C
  H129     1.0000 0.73880  0.53750  0.05600  Biso   1.000  H
  H130     1.0000 0.26120  0.46250  0.94400  Biso   1.000  H
  C123     1.0000 0.63260  0.45940  0.11610  Biso   1.000  C
  C124     1.0000 0.36740  0.54060  0.88390  Biso   1.000  C
  H131     1.0000 0.57350  0.49350  0.09530  Biso   1.000  H
  H132     1.0000 0.42650  0.50650  0.90470  Biso   1.000  H
  C125     1.0000 0.62190  0.38200  0.17090  Biso   1.000  C
  C126     1.0000 0.37810  0.61800  0.82910  Biso   1.000  C
  H133     1.0000 0.55560  0.36440  0.18660  Biso   1.000  H
  H134     1.0000 0.44440  0.63560  0.81340  Biso   1.000  H
  C127     1.0000 0.69610  0.24660  0.25940  Biso   1.000  C
  C128     1.0000 0.30390  0.75340  0.74060  Biso   1.000  C
  H135     1.0000 0.61960  0.24920  0.26950  Biso   1.000  H
  H136     1.0000 0.38040  0.75080  0.73050  Biso   1.000  H
  C129     1.0000 0.73700  0.24160  0.32900  Biso   1.000  C
  C130     1.0000 0.26300  0.75840  0.67100  Biso   1.000  C
  H137     1.0000 0.72410  0.18370  0.36080  Biso   1.000  H
  H138     1.0000 0.27590  0.81630  0.63920  Biso   1.000  H
  H139     1.0000 0.70160  0.29300  0.34700  Biso   1.000  H
  H140     1.0000 0.29840  0.70700  0.65300  Biso   1.000  H
  H141     1.0000 0.81160  0.24480  0.32250  Biso   1.000  H
  H142     1.0000 0.18840  0.75520  0.67750  Biso   1.000  H
  C131     1.0000 0.72760  0.16340  0.23720  Biso   1.000  C
  C132     1.0000 0.27240  0.83660  0.76280  Biso   1.000  C
  H143     1.0000 0.71610  0.11060  0.27470  Biso   1.000  H
  H144     1.0000 0.28390  0.88940  0.72530  Biso   1.000  H
  H145     1.0000 0.80110  0.15930  0.22130  Biso   1.000  H
  H146     1.0000 0.19890  0.84070  0.77870  Biso   1.000  H
  H147     1.0000 0.68720  0.16360  0.20030  Biso   1.000  H
  H148     1.0000 0.31280  0.83640  0.79970  Biso   1.000  H
