data_image0
_cell_length_a       12.804
_cell_length_b       14.64
_cell_length_c       19.928
_cell_angle_alpha    75.4
_cell_angle_beta     83.06
_cell_angle_gamma    79.89

_symmetry_space_group_name_H-M    "P 1"
_symmetry_int_tables_number       1

loop_
  _symmetry_equiv_pos_as_xyz
  'x, y, z'

loop_
  _atom_site_label
  _atom_site_occupancy
  _atom_site_fract_x
  _atom_site_fract_y
  _atom_site_fract_z
  _atom_site_thermal_displace_type
  _atom_site_B_iso_or_equiv
  _atom_site_type_symbol
  Cu1      1.0000 0.00000  0.00000  0.00000  Biso   1.000  Cu
  O1       1.0000 0.93210  0.92400  0.08360  Biso   1.000  O
  O2       1.0000 0.06790  0.07600  0.91640  Biso   1.000  O
  C1       1.0000 0.80230  0.88590  0.17440  Biso   1.000  C
  C2       1.0000 0.19770  0.11410  0.82560  Biso   1.000  C
  F1       1.0000 0.80350  0.95740  0.20430  Biso   1.000  F
  F2       1.0000 0.19650  0.04260  0.79570  Biso   1.000  F
  F3       1.0000 0.70560  0.86280  0.18920  Biso   1.000  F
  F4       1.0000 0.29440  0.13720  0.81080  Biso   1.000  F
  F5       1.0000 0.86960  0.81270  0.20650  Biso   1.000  F
  F6       1.0000 0.13040  0.18730  0.79350  Biso   1.000  F
  C3       1.0000 0.83420  0.91580  0.09710  Biso   1.000  C
  C4       1.0000 0.16580  0.08420  0.90290  Biso   1.000  C
  C5       1.0000 0.75470  0.93370  0.05110  Biso   1.000  C
  C6       1.0000 0.24530  0.06630  0.94890  Biso   1.000  C
  H1       1.0000 0.68480  0.92250  0.06940  Biso   1.000  H
  H2       1.0000 0.31520  0.07750  0.93060  Biso   1.000  H
  C7       1.0000 0.77370  0.96710  0.97950  Biso   1.000  C
  C8       1.0000 0.22630  0.03290  0.02050  Biso   1.000  C
  C9       1.0000 0.67750  0.98410  0.93380  Biso   1.000  C
  C10      1.0000 0.32250  0.01590  0.06620  Biso   1.000  C
  F7       1.0000 0.60160  0.92660  0.96290  Biso   1.000  F
  F8       1.0000 0.39840  0.07340  0.03710  Biso   1.000  F
  F9       1.0000 0.61400  0.06800  0.94400  Biso   1.000  F
  F10      1.0000 0.38600  0.93200  0.05600  Biso   1.000  F
  F11      1.0000 0.70030  0.00420  0.87320  Biso   1.000  F
  F12      1.0000 0.29970  0.99580  0.12680  Biso   1.000  F
  O3       1.0000 0.85850  0.98500  0.94570  Biso   1.000  O
  O4       1.0000 0.14150  0.01500  0.05430  Biso   1.000  O
  Cu2      1.0000 0.21569  0.23657  0.26179  Biso   1.000  Cu
  Cu3      1.0000 0.78431  0.76343  0.73821  Biso   1.000  Cu
  O5       1.0000 0.14910  0.17150  0.35090  Biso   1.000  O
  O6       1.0000 0.85090  0.82850  0.64910  Biso   1.000  O
  C11      1.0000 0.04360  0.14490  0.45470  Biso   1.000  C
  C12      1.0000 0.95640  0.85510  0.54530  Biso   1.000  C
  F13      1.0000 0.99960  0.19000  0.50290  Biso   1.000  F
  F14      1.0000 0.00040  0.81000  0.49710  Biso   1.000  F
  F15      1.0000 0.97010  0.10180  0.44060  Biso   1.000  F
  F16      1.0000 0.02990  0.89820  0.55940  Biso   1.000  F
  F17      1.0000 0.12060  0.07960  0.48250  Biso   1.000  F
  F18      1.0000 0.87940  0.92040  0.51750  Biso   1.000  F
  C13      1.0000 0.08280  0.21440  0.38790  Biso   1.000  C
  C14      1.0000 0.91720  0.78560  0.61210  Biso   1.000  C
  C15      1.0000 0.04030  0.30920  0.37590  Biso   1.000  C
  C16      1.0000 0.95970  0.69080  0.62410  Biso   1.000  C
  H3       1.0000 0.99770  0.33270  0.41220  Biso   1.000  H
  H4       1.0000 0.00230  0.66730  0.58780  Biso   1.000  H
  C17      1.0000 0.05790  0.37070  0.31320  Biso   1.000  C
  C18      1.0000 0.94210  0.62930  0.68680  Biso   1.000  C
  C19      1.0000 0.00360  0.47650  0.30230  Biso   1.000  C
  C20      1.0000 0.99640  0.52350  0.69770  Biso   1.000  C
  F19      1.0000 0.94910  0.49660  0.35760  Biso   1.000  F
  F20      1.0000 0.05090  0.50340  0.64240  Biso   1.000  F
  F21      1.0000 0.07350  0.53520  0.28090  Biso   1.000  F
  F22      1.0000 0.92650  0.46480  0.71910  Biso   1.000  F
  F23      1.0000 0.93610  0.49480  0.25200  Biso   1.000  F
  F24      1.0000 0.06390  0.50520  0.74800  Biso   1.000  F
  O7       1.0000 0.11310  0.35450  0.26014  Biso   1.000  O
  O8       1.0000 0.88690  0.64550  0.73986  Biso   1.000  O
  O9       1.0000 0.27920  0.30010  0.17114  Biso   1.000  O
  O10      1.0000 0.72080  0.69990  0.82886  Biso   1.000  O
  C21      1.0000 0.38990  0.32510  0.06900  Biso   1.000  C
  C22      1.0000 0.61010  0.67490  0.93100  Biso   1.000  C
  F25      1.0000 0.38560  0.41640  0.06820  Biso   1.000  F
  F26      1.0000 0.61440  0.58360  0.93180  Biso   1.000  F
  F27      1.0000 0.48470  0.29680  0.04170  Biso   1.000  F
  F28      1.0000 0.51530  0.70320  0.95830  Biso   1.000  F
  F29      1.0000 0.31930  0.32140  0.02810  Biso   1.000  F
  F30      1.0000 0.68070  0.67860  0.97190  Biso   1.000  F
  C23      1.0000 0.36440  0.26640  0.14280  Biso   1.000  C
  C24      1.0000 0.63560  0.73360  0.85720  Biso   1.000  C
  C25      1.0000 0.43280  0.18430  0.16930  Biso   1.000  C
  C26      1.0000 0.56720  0.81570  0.83070  Biso   1.000  C
  H5       1.0000 0.49890  0.17090  0.14380  Biso   1.000  H
  H6       1.0000 0.50110  0.82910  0.85620  Biso   1.000  H
  C27      1.0000 0.40970  0.12150  0.23070  Biso   1.000  C
  C28      1.0000 0.59030  0.87850  0.76930  Biso   1.000  C
  C29      1.0000 0.49050  0.03240  0.25480  Biso   1.000  C
  C30      1.0000 0.50950  0.96760  0.74520  Biso   1.000  C
  F31      1.0000 0.54600  0.03640  0.30000  Biso   1.000  F
  F32      1.0000 0.45400  0.96360  0.70000  Biso   1.000  F
  F33      1.0000 0.53200  0.99460  0.19780  Biso   1.000  F
  F34      1.0000 0.46800  0.00540  0.80220  Biso   1.000  F
  F35      1.0000 0.44200  0.95900  0.28470  Biso   1.000  F
  F36      1.0000 0.55800  0.04100  0.71530  Biso   1.000  F
  O11      1.0000 0.32680  0.12500  0.27100  Biso   1.000  O
  O12      1.0000 0.67320  0.87500  0.72900  Biso   1.000  O
  Cu4      1.0000 0.50000  0.50000  0.50000  Biso   1.000  Cu
  O13      1.0000 0.36030  0.47480  0.48870  Biso   1.000  O
  O14      1.0000 0.63970  0.52520  0.51130  Biso   1.000  O
  C31      1.0000 0.18010  0.49190  0.47910  Biso   1.000  C
  C32      1.0000 0.81990  0.50810  0.52090  Biso   1.000  C
  F37      1.0000 0.18530  0.46180  0.42230  Biso   1.000  F
  F38      1.0000 0.81470  0.53820  0.57770  Biso   1.000  F
  F39      1.0000 0.08950  0.55360  0.48140  Biso   1.000  F
  F40      1.0000 0.91050  0.44640  0.51860  Biso   1.000  F
  F41      1.0000 0.16840  0.41760  0.53250  Biso   1.000  F
  F42      1.0000 0.83160  0.58240  0.46750  Biso   1.000  F
  C33      1.0000 0.27730  0.53500  0.48330  Biso   1.000  C
  C34      1.0000 0.72270  0.46500  0.51670  Biso   1.000  C
  C35      1.0000 0.26680  0.63290  0.47830  Biso   1.000  C
  C36      1.0000 0.73320  0.36710  0.52170  Biso   1.000  C
  H7       1.0000 0.19810  0.67010  0.47510  Biso   1.000  H
  H8       1.0000 0.80190  0.32990  0.52490  Biso   1.000  H
  C37      1.0000 0.35390  0.67700  0.47800  Biso   1.000  C
  C38      1.0000 0.64610  0.32300  0.52200  Biso   1.000  C
  C39      1.0000 0.33630  0.78440  0.46930  Biso   1.000  C
  C40      1.0000 0.66370  0.21560  0.53070  Biso   1.000  C
  F43      1.0000 0.39300  0.81010  0.51150  Biso   1.000  F
  F44      1.0000 0.60700  0.18990  0.48850  Biso   1.000  F
  F45      1.0000 0.23720  0.82330  0.47530  Biso   1.000  F
  F46      1.0000 0.76280  0.17670  0.52470  Biso   1.000  F
  F47      1.0000 0.37510  0.82700  0.40710  Biso   1.000  F
  F48      1.0000 0.62490  0.17300  0.59290  Biso   1.000  F
  O15      1.0000 0.45000  0.63780  0.48301  Biso   1.000  O
  O16      1.0000 0.55000  0.36220  0.51699  Biso   1.000  O
  O17      1.0000 0.90180  0.10840  0.02794  Biso   1.000  O
  O18      1.0000 0.09820  0.89160  0.97206  Biso   1.000  O
  N1       1.0000 0.91710  0.19780  0.00660  Biso   1.000  N
  N2       1.0000 0.08290  0.80220  0.99340  Biso   1.000  N
  C41      1.0000 0.85630  0.26800  0.95020  Biso   1.000  C
  C42      1.0000 0.14370  0.73200  0.04980  Biso   1.000  C
  C43      1.0000 0.74290  0.29080  0.98320  Biso   1.000  C
  C44      1.0000 0.25710  0.70920  0.01680  Biso   1.000  C
  H9       1.0000 0.70660  0.23490  0.99130  Biso   1.000  H
  H10      1.0000 0.29340  0.76510  0.00870  Biso   1.000  H
  H11      1.0000 0.70350  0.34490  0.95170  Biso   1.000  H
  H12      1.0000 0.29650  0.65510  0.04830  Biso   1.000  H
  H13      1.0000 0.74630  0.30720  0.02750  Biso   1.000  H
  H14      1.0000 0.25370  0.69280  0.97250  Biso   1.000  H
  C45      1.0000 0.85370  0.22710  0.88760  Biso   1.000  C
  C46      1.0000 0.14630  0.77290  0.11240  Biso   1.000  C
  H15      1.0000 0.80920  0.17630  0.90020  Biso   1.000  H
  H16      1.0000 0.19080  0.82370  0.09980  Biso   1.000  H
  H17      1.0000 0.92620  0.20090  0.87290  Biso   1.000  H
  H18      1.0000 0.07380  0.79910  0.12710  Biso   1.000  H
  H19      1.0000 0.82410  0.27770  0.84940  Biso   1.000  H
  H20      1.0000 0.17590  0.72230  0.15060  Biso   1.000  H
  C47      1.0000 0.92180  0.35170  0.93610  Biso   1.000  C
  C48      1.0000 0.07820  0.64830  0.06390  Biso   1.000  C
  C49      1.0000 0.85900  0.45160  0.91590  Biso   1.000  C
  C50      1.0000 0.14100  0.54840  0.08410  Biso   1.000  C
  H21      1.0000 0.90790  0.49880  0.90600  Biso   1.000  H
  H22      1.0000 0.09210  0.50120  0.09400  Biso   1.000  H
  H23      1.0000 0.80680  0.46280  0.95430  Biso   1.000  H
  H24      1.0000 0.19320  0.53720  0.04570  Biso   1.000  H
  H25      1.0000 0.82200  0.45760  0.87440  Biso   1.000  H
  H26      1.0000 0.17800  0.54240  0.12560  Biso   1.000  H
  C51      1.0000 0.01970  0.34070  0.88530  Biso   1.000  C
  C52      1.0000 0.98030  0.65930  0.11470  Biso   1.000  C
  H27      1.0000 0.05750  0.39550  0.87850  Biso   1.000  H
  H28      1.0000 0.94250  0.60450  0.12150  Biso   1.000  H
  H29      1.0000 0.99760  0.33790  0.84060  Biso   1.000  H
  H30      1.0000 0.00240  0.66210  0.15940  Biso   1.000  H
  H31      1.0000 0.06700  0.28180  0.90410  Biso   1.000  H
  H32      1.0000 0.93300  0.71820  0.09590  Biso   1.000  H
  N3       1.0000 0.96500  0.33330  0.00490  Biso   1.000  N
  N4       1.0000 0.03500  0.66670  0.99510  Biso   1.000  N
  O19      1.0000 0.00760  0.39480  0.02180  Biso   1.000  O
  O20      1.0000 0.99240  0.60520  0.97820  Biso   1.000  O
  C53      1.0000 0.96780  0.24010  0.04220  Biso   1.000  C
  C54      1.0000 0.03220  0.75990  0.95780  Biso   1.000  C
  C55      1.0000 0.01340  0.20150  0.10500  Biso   1.000  C
  C56      1.0000 0.98660  0.79850  0.89500  Biso   1.000  C
  C57      1.0000 0.07770  0.24400  0.13800  Biso   1.000  C
  C58      1.0000 0.92230  0.75600  0.86200  Biso   1.000  C
  H33      1.0000 0.09600  0.30630  0.12020  Biso   1.000  H
  H34      1.0000 0.90400  0.69370  0.87980  Biso   1.000  H
  N5       1.0000 0.10920  0.18510  0.19710  Biso   1.000  N
  N6       1.0000 0.89080  0.81490  0.80290  Biso   1.000  N
  N7       1.0000 0.06720  0.10370  0.20280  Biso   1.000  N
  N8       1.0000 0.93280  0.89630  0.79720  Biso   1.000  N
  C59      1.0000 0.08910  0.02400  0.26330  Biso   1.000  C
  C60      1.0000 0.91090  0.97600  0.73670  Biso   1.000  C
  H35      1.0000 0.16440  0.01870  0.27270  Biso   1.000  H
  H36      1.0000 0.83560  0.98130  0.72730  Biso   1.000  H
  H37      1.0000 0.04440  0.03990  0.30410  Biso   1.000  H
  H38      1.0000 0.95560  0.96010  0.69590  Biso   1.000  H
  C61      1.0000 0.07080  0.93120  0.25760  Biso   1.000  C
  C62      1.0000 0.92920  0.06880  0.74240  Biso   1.000  C
  H39      1.0000 0.11390  0.91530  0.21620  Biso   1.000  H
  H40      1.0000 0.88610  0.08470  0.78380  Biso   1.000  H
  H41      1.0000 0.99490  0.93500  0.25020  Biso   1.000  H
  H42      1.0000 0.00510  0.06500  0.74980  Biso   1.000  H
  C63      1.0000 0.09790  0.85260  0.31990  Biso   1.000  C
  C64      1.0000 0.90210  0.14740  0.68010  Biso   1.000  C
  H43      1.0000 0.17470  0.84730  0.32550  Biso   1.000  H
  H44      1.0000 0.82530  0.15270  0.67450  Biso   1.000  H
  H45      1.0000 0.05820  0.87110  0.36140  Biso   1.000  H
  H46      1.0000 0.94180  0.12890  0.63860  Biso   1.000  H
  C65      1.0000 0.07560  0.75740  0.31910  Biso   1.000  C
  C66      1.0000 0.92440  0.24260  0.68090  Biso   1.000  C
  H47      1.0000 0.08920  0.71330  0.36420  Biso   1.000  H
  H48      1.0000 0.91080  0.28670  0.63580  Biso   1.000  H
  H49      1.0000 0.12180  0.73380  0.28230  Biso   1.000  H
  H50      1.0000 0.87820  0.26620  0.71770  Biso   1.000  H
  H51      1.0000 0.00090  0.76200  0.31030  Biso   1.000  H
  H52      1.0000 0.99910  0.23800  0.68970  Biso   1.000  H
  C67      1.0000 0.01060  0.11080  0.14980  Biso   1.000  C
  C68      1.0000 0.98940  0.88920  0.85020  Biso   1.000  C
  H53      1.0000 0.97430  0.06280  0.14320  Biso   1.000  H
  H54      1.0000 0.02570  0.93720  0.85680  Biso   1.000  H
  O21      1.0000 0.56210  0.49860  0.38369  Biso   1.000  O
  O22      1.0000 0.43790  0.50140  0.61631  Biso   1.000  O
  N9       1.0000 0.52390  0.54650  0.32570  Biso   1.000  N
  N10      1.0000 0.47610  0.45350  0.67430  Biso   1.000  N
  C69      1.0000 0.57170  0.63080  0.28160  Biso   1.000  C
  C70      1.0000 0.42830  0.36920  0.71840  Biso   1.000  C
  C71      1.0000 0.67880  0.59070  0.25040  Biso   1.000  C
  C72      1.0000 0.32120  0.40930  0.74960  Biso   1.000  C
  H55      1.0000 0.72830  0.56630  0.28700  Biso   1.000  H
  H56      1.0000 0.27170  0.43370  0.71300  Biso   1.000  H
  H57      1.0000 0.70730  0.64120  0.21440  Biso   1.000  H
  H58      1.0000 0.29270  0.35880  0.78560  Biso   1.000  H
  H59      1.0000 0.67000  0.53870  0.22980  Biso   1.000  H
  H60      1.0000 0.33000  0.46130  0.77020  Biso   1.000  H
  C73      1.0000 0.58730  0.69700  0.32620  Biso   1.000  C
  C74      1.0000 0.41270  0.30300  0.67380  Biso   1.000  C
  H61      1.0000 0.64200  0.66490  0.35820  Biso   1.000  H
  H62      1.0000 0.35800  0.33510  0.64180  Biso   1.000  H
  H63      1.0000 0.52010  0.71320  0.35290  Biso   1.000  H
  H64      1.0000 0.47990  0.28680  0.64710  Biso   1.000  H
  H65      1.0000 0.60970  0.75550  0.29620  Biso   1.000  H
  H66      1.0000 0.39030  0.24450  0.70380  Biso   1.000  H
  C75      1.0000 0.48610  0.67260  0.22840  Biso   1.000  C
  C76      1.0000 0.51390  0.32740  0.77160  Biso   1.000  C
  C77      1.0000 0.39440  0.74430  0.25190  Biso   1.000  C
  C78      1.0000 0.60560  0.25570  0.74810  Biso   1.000  C
  H67      1.0000 0.34390  0.76730  0.21590  Biso   1.000  H
  H68      1.0000 0.65610  0.23270  0.78410  Biso   1.000  H
  H69      1.0000 0.42330  0.79840  0.25930  Biso   1.000  H
  H70      1.0000 0.57670  0.20160  0.74070  Biso   1.000  H
  H71      1.0000 0.35780  0.71270  0.29540  Biso   1.000  H
  H72      1.0000 0.64220  0.28730  0.70460  Biso   1.000  H
  C79      1.0000 0.52760  0.71180  0.15450  Biso   1.000  C
  C80      1.0000 0.47240  0.28820  0.84550  Biso   1.000  C
  H73      1.0000 0.46770  0.73530  0.12520  Biso   1.000  H
  H74      1.0000 0.53230  0.26470  0.87480  Biso   1.000  H
  H75      1.0000 0.57540  0.66120  0.13730  Biso   1.000  H
  H76      1.0000 0.42460  0.33880  0.86270  Biso   1.000  H
  H77      1.0000 0.56650  0.76440  0.15290  Biso   1.000  H
  H78      1.0000 0.43350  0.23560  0.84710  Biso   1.000  H
  N11      1.0000 0.43660  0.58580  0.23270  Biso   1.000  N
  N12      1.0000 0.56340  0.41420  0.76730  Biso   1.000  N
  O23      1.0000 0.37410  0.58290  0.18800  Biso   1.000  O
  O24      1.0000 0.62590  0.41710  0.81200  Biso   1.000  O
  C81      1.0000 0.45740  0.51860  0.29130  Biso   1.000  C
  C82      1.0000 0.54260  0.48140  0.70870  Biso   1.000  C
  C83      1.0000 0.41320  0.43110  0.31420  Biso   1.000  C
  C84      1.0000 0.58680  0.56890  0.68580  Biso   1.000  C
  C85      1.0000 0.33960  0.40030  0.28140  Biso   1.000  C
  C86      1.0000 0.66040  0.59970  0.71860  Biso   1.000  C
  H79      1.0000 0.30620  0.43680  0.24100  Biso   1.000  H
  H80      1.0000 0.69380  0.56320  0.75900  Biso   1.000  H
  N13      1.0000 0.32330  0.31190  0.31520  Biso   1.000  N
  N14      1.0000 0.67670  0.68810  0.68480  Biso   1.000  N
  N15      1.0000 0.38470  0.28740  0.36870  Biso   1.000  N
  N16      1.0000 0.61530  0.71260  0.63130  Biso   1.000  N
  C87      1.0000 0.38510  0.19430  0.41940  Biso   1.000  C
  C88      1.0000 0.61490  0.80570  0.58060  Biso   1.000  C
  H81      1.0000 0.45960  0.16380  0.42660  Biso   1.000  H
  H82      1.0000 0.54040  0.83620  0.57340  Biso   1.000  H
  H83      1.0000 0.35040  0.15200  0.40050  Biso   1.000  H
  H84      1.0000 0.64960  0.84800  0.59950  Biso   1.000  H
  C89      1.0000 0.32780  0.20510  0.48830  Biso   1.000  C
  C90      1.0000 0.67220  0.79490  0.51170  Biso   1.000  C
  H85      1.0000 0.25210  0.23110  0.48140  Biso   1.000  H
  H86      1.0000 0.74790  0.76890  0.51860  Biso   1.000  H
  H87      1.0000 0.35880  0.25190  0.50500  Biso   1.000  H
  H88      1.0000 0.64120  0.74810  0.49500  Biso   1.000  H
  C91      1.0000 0.33390  0.11160  0.54410  Biso   1.000  C
  C92      1.0000 0.66610  0.88840  0.45590  Biso   1.000  C
  H89      1.0000 0.31120  0.06250  0.52520  Biso   1.000  H
  H90      1.0000 0.68880  0.93750  0.47480  Biso   1.000  H
  H91      1.0000 0.40890  0.08970  0.55520  Biso   1.000  H
  H92      1.0000 0.59110  0.91030  0.44480  Biso   1.000  H
  C93      1.0000 0.26690  0.11990  0.60920  Biso   1.000  C
  C94      1.0000 0.73310  0.88010  0.39080  Biso   1.000  C
  H93      1.0000 0.27220  0.05740  0.64210  Biso   1.000  H
  H94      1.0000 0.72780  0.94260  0.35790  Biso   1.000  H
  H95      1.0000 0.19270  0.14230  0.59860  Biso   1.000  H
  H96      1.0000 0.80730  0.85770  0.40140  Biso   1.000  H
  H97      1.0000 0.29180  0.16560  0.62980  Biso   1.000  H
  H98      1.0000 0.70820  0.83440  0.37020  Biso   1.000  H
  C95      1.0000 0.44010  0.35620  0.37050  Biso   1.000  C
  C96      1.0000 0.55990  0.64380  0.62950  Biso   1.000  C
  H99      1.0000 0.48820  0.35410  0.40390  Biso   1.000  H
  H100     1.0000 0.51180  0.64590  0.59610  Biso   1.000  H
  F49      1.0000 0.63700  0.07060  0.92210  Biso   1.000  F
  F50      1.0000 0.36300  0.92940  0.07790  Biso   1.000  F
  F51      1.0000 0.71100  0.94870  0.87650  Biso   1.000  F
  F52      1.0000 0.28900  0.05130  0.12350  Biso   1.000  F
  F53      1.0000 0.61400  0.93700  0.95940  Biso   1.000  F
  F54      1.0000 0.38600  0.06300  0.04060  Biso   1.000  F
  F55      1.0000 0.59160  0.04120  0.23610  Biso   1.000  F
  F56      1.0000 0.40840  0.95880  0.76390  Biso   1.000  F
  F57      1.0000 0.46270  0.95850  0.25400  Biso   1.000  F
  F58      1.0000 0.53730  0.04150  0.74600  Biso   1.000  F
  F59      1.0000 0.49170  0.02000  0.32550  Biso   1.000  F
  F60      1.0000 0.50830  0.98000  0.67450  Biso   1.000  F
  F61      1.0000 0.37700  0.80500  0.51750  Biso   1.000  F
  F62      1.0000 0.62300  0.19500  0.48250  Biso   1.000  F
  C97      1.0000 0.74580  0.32860  0.21000  Biso   1.000  C
  C98      1.0000 0.25420  0.67140  0.79000  Biso   1.000  C
  C99      1.0000 0.63700  0.34250  0.20840  Biso   1.000  C
  C100     1.0000 0.36300  0.65750  0.79160  Biso   1.000  C
  H101     1.0000 0.59520  0.30280  0.24220  Biso   1.000  H
  H102     1.0000 0.40480  0.69720  0.75780  Biso   1.000  H
  C101     1.0000 0.58980  0.41380  0.15800  Biso   1.000  C
  C102     1.0000 0.41020  0.58620  0.84200  Biso   1.000  C
  H103     1.0000 0.51470  0.42400  0.15650  Biso   1.000  H
  H104     1.0000 0.48530  0.57600  0.84350  Biso   1.000  H
  C103     1.0000 0.65130  0.47120  0.10900  Biso   1.000  C
  C104     1.0000 0.34870  0.52880  0.89100  Biso   1.000  C
  H105     1.0000 0.61800  0.52080  0.07400  Biso   1.000  H
  H106     1.0000 0.38200  0.47920  0.92600  Biso   1.000  H
  C105     1.0000 0.76010  0.45740  0.11050  Biso   1.000  C
  C106     1.0000 0.23990  0.54260  0.88950  Biso   1.000  C
  H107     1.0000 0.80200  0.49700  0.07680  Biso   1.000  H
  H108     1.0000 0.19800  0.50300  0.92320  Biso   1.000  H
  C107     1.0000 0.80740  0.38610  0.16100  Biso   1.000  C
  C108     1.0000 0.19260  0.61390  0.83900  Biso   1.000  C
  H109     1.0000 0.88250  0.37590  0.16250  Biso   1.000  H
  H110     1.0000 0.11750  0.62410  0.83750  Biso   1.000  H
  C109     1.0000 0.80650  0.26400  0.27470  Biso   1.000  C
  C110     1.0000 0.19350  0.73600  0.72530  Biso   1.000  C
  H111     1.0000 0.88420  0.26530  0.26150  Biso   1.000  H
  H112     1.0000 0.11580  0.73470  0.73850  Biso   1.000  H
  C111     1.0000 0.77870  0.30510  0.34210  Biso   1.000  C
  C112     1.0000 0.22130  0.69490  0.65790  Biso   1.000  C
  H113     1.0000 0.80670  0.25730  0.38240  Biso   1.000  H
  H114     1.0000 0.19330  0.74270  0.61760  Biso   1.000  H
  H115     1.0000 0.70130  0.32050  0.35020  Biso   1.000  H
  H116     1.0000 0.29870  0.67950  0.64980  Biso   1.000  H
  H117     1.0000 0.81090  0.36310  0.33550  Biso   1.000  H
  H118     1.0000 0.18910  0.63690  0.66450  Biso   1.000  H
  C113     1.0000 0.78820  0.16030  0.28190  Biso   1.000  C
  C114     1.0000 0.21180  0.83970  0.71810  Biso   1.000  C
  H119     1.0000 0.81390  0.12010  0.32570  Biso   1.000  H
  H120     1.0000 0.18610  0.87990  0.67430  Biso   1.000  H
  H121     1.0000 0.82720  0.13620  0.24290  Biso   1.000  H
  H122     1.0000 0.17280  0.86380  0.75710  Biso   1.000  H
  H123     1.0000 0.71210  0.15890  0.28170  Biso   1.000  H
  H124     1.0000 0.28790  0.84110  0.71830  Biso   1.000  H
  C115     1.0000 0.70260  0.33000  0.20710  Biso   1.000  C
  C116     1.0000 0.29740  0.67000  0.79290  Biso   1.000  C
  C117     1.0000 0.80160  0.35630  0.18350  Biso   1.000  C
  C118     1.0000 0.19840  0.64370  0.81650  Biso   1.000  C
  H125     1.0000 0.86290  0.32060  0.20540  Biso   1.000  H
  H126     1.0000 0.13710  0.67940  0.79460  Biso   1.000  H
  C119     1.0000 0.81230  0.43370  0.12880  Biso   1.000  C
  C120     1.0000 0.18770  0.56630  0.87120  Biso   1.000  C
  H127     1.0000 0.88050  0.45150  0.11280  Biso   1.000  H
  H128     1.0000 0.11950  0.54850  0.88720  Biso   1.000  H
  C121     1.0000 0.72400  0.48470  0.09760  Biso   1.000  C
  C122     1.0000 0.27600  0.51530  0.90240  Biso   1.000  C
  H129     1.0000 0.73050  0.53830  0.05970  Biso   1.000  H
  H130     1.0000 0.26950  0.46170  0.94030  Biso   1.000  H
  C123     1.0000 0.62490  0.45840  0.12110  Biso   1.000  C
  C124     1.0000 0.37510  0.54160  0.87890  Biso   1.000  C
  H131     1.0000 0.56370  0.49420  0.09920  Biso   1.000  H
  H132     1.0000 0.43630  0.50580  0.90080  Biso   1.000  H
  C125     1.0000 0.61420  0.38100  0.17590  Biso   1.000  C
  C126     1.0000 0.38580  0.61900  0.82410  Biso   1.000  C
  H133     1.0000 0.54600  0.36320  0.19180  Biso   1.000  H
  H134     1.0000 0.45400  0.63680  0.80820  Biso   1.000  H
  C127     1.0000 0.74960  0.25940  0.28020  Biso   1.000  C
  C128     1.0000 0.25040  0.74060  0.71980  Biso   1.000  C
  H135     1.0000 0.82350  0.27270  0.26360  Biso   1.000  H
  H136     1.0000 0.17650  0.72730  0.73640  Biso   1.000  H
  C129     1.0000 0.75630  0.27890  0.33720  Biso   1.000  C
  C130     1.0000 0.24370  0.72110  0.66280  Biso   1.000  C
  H137     1.0000 0.75080  0.22200  0.37500  Biso   1.000  H
  H138     1.0000 0.24920  0.77800  0.62500  Biso   1.000  H
  H139     1.0000 0.69850  0.32990  0.34430  Biso   1.000  H
  H140     1.0000 0.30150  0.67010  0.65570  Biso   1.000  H
  H141     1.0000 0.82490  0.30020  0.33660  Biso   1.000  H
  H142     1.0000 0.17510  0.69980  0.66340  Biso   1.000  H
  C131     1.0000 0.77440  0.17400  0.27400  Biso   1.000  C
  C132     1.0000 0.22560  0.82600  0.72600  Biso   1.000  C
  H143     1.0000 0.75580  0.13020  0.31810  Biso   1.000  H
  H144     1.0000 0.24420  0.86980  0.68190  Biso   1.000  H
  H145     1.0000 0.85110  0.16100  0.26180  Biso   1.000  H
  H146     1.0000 0.14890  0.83900  0.73820  Biso   1.000  H
  H147     1.0000 0.73550  0.16490  0.23730  Biso   1.000  H
  H148     1.0000 0.26450  0.83510  0.76270  Biso   1.000  H
