data_image0
_cell_length_a       12.8645
_cell_length_b       14.8097
_cell_length_c       20.06
_cell_angle_alpha    75.217
_cell_angle_beta     83.082
_cell_angle_gamma    80.105

_symmetry_space_group_name_H-M    "P 1"
_symmetry_int_tables_number       1

loop_
  _symmetry_equiv_pos_as_xyz
  'x, y, z'

loop_
  _atom_site_label
  _atom_site_occupancy
  _atom_site_fract_x
  _atom_site_fract_y
  _atom_site_fract_z
  _atom_site_thermal_displace_type
  _atom_site_B_iso_or_equiv
  _atom_site_type_symbol
  Cu1      1.0000 0.00000  0.00000  0.00000  Biso   1.000  Cu
  O1       1.0000 0.93240  0.92748  0.08737  Biso   1.000  O
  O2       1.0000 0.06760  0.07252  0.91263  Biso   1.000  O
  C1       1.0000 0.80340  0.88850  0.17720  Biso   1.000  C
  C2       1.0000 0.19660  0.11150  0.82280  Biso   1.000  C
  F1       1.0000 0.80450  0.95670  0.20822  Biso   1.000  F
  F2       1.0000 0.19550  0.04330  0.79178  Biso   1.000  F
  F3       1.0000 0.70696  0.86510  0.19168  Biso   1.000  F
  F4       1.0000 0.29304  0.13490  0.80832  Biso   1.000  F
  F5       1.0000 0.86790  0.81620  0.20895  Biso   1.000  F
  F6       1.0000 0.13210  0.18380  0.79105  Biso   1.000  F
  C3       1.0000 0.83510  0.91950  0.09967  Biso   1.000  C
  C4       1.0000 0.16490  0.08050  0.90033  Biso   1.000  C
  C5       1.0000 0.75850  0.93500  0.05460  Biso   1.000  C
  C6       1.0000 0.24150  0.06500  0.94540  Biso   1.000  C
  H1       1.0000 0.69020  0.92410  0.07200  Biso   1.000  H
  H2       1.0000 0.30980  0.07590  0.92800  Biso   1.000  H
  C7       1.0000 0.77930  0.96640  0.98340  Biso   1.000  C
  C8       1.0000 0.22070  0.03360  0.01660  Biso   1.000  C
  C9       1.0000 0.68420  0.98220  0.93990  Biso   1.000  C
  C10      1.0000 0.31580  0.01780  0.06010  Biso   1.000  C
  F7       1.0000 0.60520  0.94770  0.96770  Biso   1.000  F
  F8       1.0000 0.39480  0.05230  0.03230  Biso   1.000  F
  F9       1.0000 0.65970  0.06460  0.91350  Biso   1.000  F
  F10      1.0000 0.34030  0.93540  0.08650  Biso   1.000  F
  F11      1.0000 0.71650  0.93510  0.88830  Biso   1.000  F
  F12      1.0000 0.28350  0.06490  0.11170  Biso   1.000  F
  O3       1.0000 0.86284  0.98494  0.95025  Biso   1.000  O
  O4       1.0000 0.13716  0.01506  0.04975  Biso   1.000  O
  Cu2      1.0000 0.21602  0.23863  0.26241  Biso   1.000  Cu
  Cu3      1.0000 0.78398  0.76137  0.73759  Biso   1.000  Cu
  O5       1.0000 0.14847  0.17373  0.35057  Biso   1.000  O
  O6       1.0000 0.85153  0.82627  0.64943  Biso   1.000  O
  C11      1.0000 0.04020  0.14590  0.45260  Biso   1.000  C
  C12      1.0000 0.95980  0.85410  0.54740  Biso   1.000  C
  F13      1.0000 0.99700  0.18980  0.50087  Biso   1.000  F
  F14      1.0000 0.00300  0.81020  0.49913  Biso   1.000  F
  F15      1.0000 0.96690  0.10470  0.43982  Biso   1.000  F
  F16      1.0000 0.03310  0.89530  0.56018  Biso   1.000  F
  F17      1.0000 0.11330  0.08280  0.48085  Biso   1.000  F
  F18      1.0000 0.88670  0.91720  0.51915  Biso   1.000  F
  C13      1.0000 0.08040  0.21370  0.38749  Biso   1.000  C
  C14      1.0000 0.91960  0.78630  0.61251  Biso   1.000  C
  C15      1.0000 0.03700  0.30700  0.37441  Biso   1.000  C
  C16      1.0000 0.96300  0.69300  0.62559  Biso   1.000  C
  H3       1.0000 0.99200  0.32870  0.40880  Biso   1.000  H
  H4       1.0000 0.00800  0.67130  0.59120  Biso   1.000  H
  C17      1.0000 0.05720  0.37040  0.31211  Biso   1.000  C
  C18      1.0000 0.94280  0.62960  0.68789  Biso   1.000  C
  C19      1.0000 0.00260  0.47300  0.30130  Biso   1.000  C
  C20      1.0000 0.99740  0.52700  0.69870  Biso   1.000  C
  F19      1.0000 0.94780  0.49190  0.35595  Biso   1.000  F
  F20      1.0000 0.05220  0.50810  0.64405  Biso   1.000  F
  F21      1.0000 0.07210  0.53354  0.28100  Biso   1.000  F
  F22      1.0000 0.92790  0.46646  0.71900  Biso   1.000  F
  F23      1.0000 0.93911  0.49269  0.25043  Biso   1.000  F
  F24      1.0000 0.06089  0.50731  0.74957  Biso   1.000  F
  O7       1.0000 0.11578  0.35503  0.26100  Biso   1.000  O
  O8       1.0000 0.88422  0.64497  0.73900  Biso   1.000  O
  O9       1.0000 0.28159  0.30071  0.17225  Biso   1.000  O
  O10      1.0000 0.71841  0.69929  0.82775  Biso   1.000  O
  C21      1.0000 0.39080  0.32370  0.07040  Biso   1.000  C
  C22      1.0000 0.60920  0.67630  0.92960  Biso   1.000  C
  F25      1.0000 0.38510  0.41430  0.06839  Biso   1.000  F
  F26      1.0000 0.61490  0.58570  0.93161  Biso   1.000  F
  F27      1.0000 0.48510  0.29870  0.04366  Biso   1.000  F
  F28      1.0000 0.51490  0.70130  0.95634  Biso   1.000  F
  F29      1.0000 0.32280  0.31920  0.02828  Biso   1.000  F
  F30      1.0000 0.67720  0.68080  0.97172  Biso   1.000  F
  C23      1.0000 0.36410  0.26630  0.14255  Biso   1.000  C
  C24      1.0000 0.63590  0.73370  0.85745  Biso   1.000  C
  C25      1.0000 0.42870  0.18200  0.16710  Biso   1.000  C
  C26      1.0000 0.57130  0.81800  0.83290  Biso   1.000  C
  H5       1.0000 0.49190  0.16690  0.14170  Biso   1.000  H
  H6       1.0000 0.50810  0.83310  0.85830  Biso   1.000  H
  C27      1.0000 0.40180  0.11990  0.22820  Biso   1.000  C
  C28      1.0000 0.59820  0.88010  0.77180  Biso   1.000  C
  C29      1.0000 0.47980  0.02680  0.24950  Biso   1.000  C
  C30      1.0000 0.52020  0.97320  0.75050  Biso   1.000  C
  F31      1.0000 0.54900  0.03340  0.27800  Biso   1.000  F
  F32      1.0000 0.45100  0.96660  0.72200  Biso   1.000  F
  F33      1.0000 0.51140  0.98770  0.19310  Biso   1.000  F
  F34      1.0000 0.48860  0.01230  0.80690  Biso   1.000  F
  F35      1.0000 0.42600  0.96260  0.28410  Biso   1.000  F
  F36      1.0000 0.57400  0.03740  0.71590  Biso   1.000  F
  O11      1.0000 0.32310  0.12683  0.27037  Biso   1.000  O
  O12      1.0000 0.67690  0.87317  0.72963  Biso   1.000  O
  Cu4      1.0000 0.50000  0.50000  0.50000  Biso   1.000  Cu
  O13      1.0000 0.36140  0.47337  0.48896  Biso   1.000  O
  O14      1.0000 0.63860  0.52663  0.51104  Biso   1.000  O
  C31      1.0000 0.18110  0.48990  0.47760  Biso   1.000  C
  C32      1.0000 0.81890  0.51010  0.52240  Biso   1.000  C
  F37      1.0000 0.18771  0.45840  0.42363  Biso   1.000  F
  F38      1.0000 0.81229  0.54160  0.57637  Biso   1.000  F
  F39      1.0000 0.09279  0.55048  0.47973  Biso   1.000  F
  F40      1.0000 0.90721  0.44952  0.52027  Biso   1.000  F
  F41      1.0000 0.16817  0.41930  0.53165  Biso   1.000  F
  F42      1.0000 0.83183  0.58070  0.46835  Biso   1.000  F
  C33      1.0000 0.27960  0.53380  0.48215  Biso   1.000  C
  C34      1.0000 0.72040  0.46620  0.51785  Biso   1.000  C
  C35      1.0000 0.26980  0.62940  0.47682  Biso   1.000  C
  C36      1.0000 0.73020  0.37060  0.52318  Biso   1.000  C
  H7       1.0000 0.20320  0.66560  0.47250  Biso   1.000  H
  H8       1.0000 0.79680  0.33440  0.52750  Biso   1.000  H
  C37      1.0000 0.35600  0.67320  0.47768  Biso   1.000  C
  C38      1.0000 0.64400  0.32680  0.52232  Biso   1.000  C
  C39      1.0000 0.33960  0.78020  0.46870  Biso   1.000  C
  C40      1.0000 0.66040  0.21980  0.53130  Biso   1.000  C
  F43      1.0000 0.39720  0.80400  0.50640  Biso   1.000  F
  F44      1.0000 0.60280  0.19600  0.49360  Biso   1.000  F
  F45      1.0000 0.24210  0.80930  0.48420  Biso   1.000  F
  F46      1.0000 0.75790  0.19070  0.51580  Biso   1.000  F
  F47      1.0000 0.35460  0.81810  0.40410  Biso   1.000  F
  F48      1.0000 0.64540  0.18190  0.59590  Biso   1.000  F
  O15      1.0000 0.45078  0.63556  0.48359  Biso   1.000  O
  O16      1.0000 0.54922  0.36444  0.51641  Biso   1.000  O
  O17      1.0000 0.90314  0.11126  0.02807  Biso   1.000  O
  O18      1.0000 0.09686  0.88874  0.97193  Biso   1.000  O
  N1       1.0000 0.91986  0.19900  0.00628  Biso   1.000  N
  N2       1.0000 0.08014  0.80100  0.99372  Biso   1.000  N
  C41      1.0000 0.86040  0.26900  0.95003  Biso   1.000  C
  C42      1.0000 0.13960  0.73100  0.04997  Biso   1.000  C
  C43      1.0000 0.74910  0.29290  0.98320  Biso   1.000  C
  C44      1.0000 0.25090  0.70710  0.01680  Biso   1.000  C
  H9       1.0000 0.71230  0.23940  0.99160  Biso   1.000  H
  H10      1.0000 0.28770  0.76060  0.00840  Biso   1.000  H
  H11      1.0000 0.71120  0.34580  0.95270  Biso   1.000  H
  H12      1.0000 0.28880  0.65420  0.04730  Biso   1.000  H
  H13      1.0000 0.75380  0.30860  0.02620  Biso   1.000  H
  H14      1.0000 0.24620  0.69140  0.97380  Biso   1.000  H
  C45      1.0000 0.85410  0.22720  0.88918  Biso   1.000  C
  C46      1.0000 0.14590  0.77280  0.11082  Biso   1.000  C
  H15      1.0000 0.81030  0.17820  0.90310  Biso   1.000  H
  H16      1.0000 0.18970  0.82180  0.09690  Biso   1.000  H
  H17      1.0000 0.92390  0.20140  0.87390  Biso   1.000  H
  H18      1.0000 0.07610  0.79860  0.12610  Biso   1.000  H
  H19      1.0000 0.82410  0.27570  0.85200  Biso   1.000  H
  H20      1.0000 0.17590  0.72430  0.14800  Biso   1.000  H
  C47      1.0000 0.92830  0.35020  0.93399  Biso   1.000  C
  C48      1.0000 0.07170  0.64980  0.06601  Biso   1.000  C
  C49      1.0000 0.86800  0.44910  0.91511  Biso   1.000  C
  C50      1.0000 0.13200  0.55090  0.08489  Biso   1.000  C
  H21      1.0000 0.91670  0.49410  0.90570  Biso   1.000  H
  H22      1.0000 0.08330  0.50590  0.09430  Biso   1.000  H
  H23      1.0000 0.81790  0.45960  0.95290  Biso   1.000  H
  H24      1.0000 0.18210  0.54040  0.04710  Biso   1.000  H
  H25      1.0000 0.83110  0.45650  0.87480  Biso   1.000  H
  H26      1.0000 0.16890  0.54350  0.12520  Biso   1.000  H
  C51      1.0000 0.02470  0.33680  0.88359  Biso   1.000  C
  C52      1.0000 0.97530  0.66320  0.11641  Biso   1.000  C
  H27      1.0000 0.06320  0.38910  0.87600  Biso   1.000  H
  H28      1.0000 0.93680  0.61090  0.12400  Biso   1.000  H
  H29      1.0000 0.00220  0.33350  0.84050  Biso   1.000  H
  H30      1.0000 0.99780  0.66650  0.15950  Biso   1.000  H
  H31      1.0000 0.06960  0.27930  0.90250  Biso   1.000  H
  H32      1.0000 0.93040  0.72070  0.09750  Biso   1.000  H
  N3       1.0000 0.97230  0.33270  0.00300  Biso   1.000  N
  N4       1.0000 0.02770  0.66730  0.99700  Biso   1.000  N
  O19      1.0000 0.01940  0.39238  0.01771  Biso   1.000  O
  O20      1.0000 0.98060  0.60762  0.98229  Biso   1.000  O
  C53      1.0000 0.97120  0.24290  0.03930  Biso   1.000  C
  C54      1.0000 0.02880  0.75710  0.96070  Biso   1.000  C
  C55      1.0000 0.01800  0.20260  0.10370  Biso   1.000  C
  C56      1.0000 0.98200  0.79740  0.89630  Biso   1.000  C
  C57      1.0000 0.07960  0.24490  0.13725  Biso   1.000  C
  C58      1.0000 0.92040  0.75510  0.86275  Biso   1.000  C
  H33      1.0000 0.09780  0.30510  0.12000  Biso   1.000  H
  H34      1.0000 0.90220  0.69490  0.88000  Biso   1.000  H
  N5       1.0000 0.10800  0.18780  0.19647  Biso   1.000  N
  N6       1.0000 0.89200  0.81220  0.80353  Biso   1.000  N
  N7       1.0000 0.06610  0.10820  0.20149  Biso   1.000  N
  N8       1.0000 0.93390  0.89180  0.79851  Biso   1.000  N
  C59      1.0000 0.08440  0.02950  0.26223  Biso   1.000  C
  C60      1.0000 0.91560  0.97050  0.73777  Biso   1.000  C
  H35      1.0000 0.15520  0.02750  0.27510  Biso   1.000  H
  H36      1.0000 0.84480  0.97250  0.72490  Biso   1.000  H
  H37      1.0000 0.03530  0.04370  0.30010  Biso   1.000  H
  H38      1.0000 0.96470  0.95630  0.69990  Biso   1.000  H
  C61      1.0000 0.07450  0.93780  0.25659  Biso   1.000  C
  C62      1.0000 0.92550  0.06220  0.74341  Biso   1.000  C
  H39      1.0000 0.12360  0.92310  0.21890  Biso   1.000  H
  H40      1.0000 0.87640  0.07690  0.78110  Biso   1.000  H
  H41      1.0000 0.00360  0.93930  0.24410  Biso   1.000  H
  H42      1.0000 0.99640  0.06070  0.75590  Biso   1.000  H
  C63      1.0000 0.09390  0.85940  0.31950  Biso   1.000  C
  C64      1.0000 0.90610  0.14060  0.68050  Biso   1.000  C
  H43      1.0000 0.16670  0.85510  0.32960  Biso   1.000  H
  H44      1.0000 0.83330  0.14490  0.67040  Biso   1.000  H
  H45      1.0000 0.04910  0.87720  0.35800  Biso   1.000  H
  H46      1.0000 0.95090  0.12280  0.64200  Biso   1.000  H
  C65      1.0000 0.07660  0.76610  0.31790  Biso   1.000  C
  C66      1.0000 0.92340  0.23390  0.68210  Biso   1.000  C
  H47      1.0000 0.08990  0.72330  0.36180  Biso   1.000  H
  H48      1.0000 0.91010  0.27670  0.63820  Biso   1.000  H
  H49      1.0000 0.12370  0.74490  0.28230  Biso   1.000  H
  H50      1.0000 0.87630  0.25510  0.71770  Biso   1.000  H
  H51      1.0000 0.00470  0.76820  0.30850  Biso   1.000  H
  H52      1.0000 0.99530  0.23180  0.69150  Biso   1.000  H
  C67      1.0000 0.01220  0.11480  0.14723  Biso   1.000  C
  C68      1.0000 0.98780  0.88520  0.85277  Biso   1.000  C
  H53      1.0000 0.97720  0.06860  0.14010  Biso   1.000  H
  H54      1.0000 0.02280  0.93140  0.85990  Biso   1.000  H
  O21      1.0000 0.56268  0.49786  0.38347  Biso   1.000  O
  O22      1.0000 0.43732  0.50214  0.61653  Biso   1.000  O
  N9       1.0000 0.52646  0.54583  0.32541  Biso   1.000  N
  N10      1.0000 0.47354  0.45417  0.67459  Biso   1.000  N
  C69      1.0000 0.57400  0.62940  0.28196  Biso   1.000  C
  C70      1.0000 0.42600  0.37060  0.71804  Biso   1.000  C
  C71      1.0000 0.68090  0.58970  0.25130  Biso   1.000  C
  C72      1.0000 0.31910  0.41030  0.74870  Biso   1.000  C
  H55      1.0000 0.72880  0.56600  0.28710  Biso   1.000  H
  H56      1.0000 0.27120  0.43400  0.71290  Biso   1.000  H
  H57      1.0000 0.70910  0.63870  0.21620  Biso   1.000  H
  H58      1.0000 0.29090  0.36130  0.78380  Biso   1.000  H
  H59      1.0000 0.67230  0.53930  0.23130  Biso   1.000  H
  H60      1.0000 0.32770  0.46070  0.76870  Biso   1.000  H
  C73      1.0000 0.58860  0.69450  0.32686  Biso   1.000  C
  C74      1.0000 0.41140  0.30550  0.67314  Biso   1.000  C
  H61      1.0000 0.64180  0.66350  0.35810  Biso   1.000  H
  H62      1.0000 0.35820  0.33650  0.64190  Biso   1.000  H
  H63      1.0000 0.52290  0.70930  0.35280  Biso   1.000  H
  H64      1.0000 0.47710  0.29070  0.64720  Biso   1.000  H
  H65      1.0000 0.61020  0.75160  0.29790  Biso   1.000  H
  H66      1.0000 0.38980  0.24840  0.70210  Biso   1.000  H
  C75      1.0000 0.48960  0.67060  0.22854  Biso   1.000  C
  C76      1.0000 0.51040  0.32940  0.77146  Biso   1.000  C
  C77      1.0000 0.39940  0.74100  0.25150  Biso   1.000  C
  C78      1.0000 0.60060  0.25900  0.74850  Biso   1.000  C
  H67      1.0000 0.35030  0.76340  0.21640  Biso   1.000  H
  H68      1.0000 0.64970  0.23660  0.78360  Biso   1.000  H
  H69      1.0000 0.42790  0.79340  0.25860  Biso   1.000  H
  H70      1.0000 0.57210  0.20660  0.74140  Biso   1.000  H
  H71      1.0000 0.36360  0.71050  0.29390  Biso   1.000  H
  H72      1.0000 0.63640  0.28950  0.70610  Biso   1.000  H
  C79      1.0000 0.53200  0.71010  0.15487  Biso   1.000  C
  C80      1.0000 0.46800  0.28990  0.84513  Biso   1.000  C
  H73      1.0000 0.47420  0.73320  0.12600  Biso   1.000  H
  H74      1.0000 0.52580  0.26680  0.87400  Biso   1.000  H
  H75      1.0000 0.57870  0.66130  0.13820  Biso   1.000  H
  H76      1.0000 0.42130  0.33870  0.86180  Biso   1.000  H
  H77      1.0000 0.57010  0.76090  0.15370  Biso   1.000  H
  H78      1.0000 0.42990  0.23910  0.84630  Biso   1.000  H
  N11      1.0000 0.44130  0.58396  0.23240  Biso   1.000  N
  N12      1.0000 0.55870  0.41604  0.76760  Biso   1.000  N
  O23      1.0000 0.37868  0.58120  0.18837  Biso   1.000  O
  O24      1.0000 0.62132  0.41880  0.81163  Biso   1.000  O
  C81      1.0000 0.45900  0.51740  0.29160  Biso   1.000  C
  C82      1.0000 0.54100  0.48260  0.70840  Biso   1.000  C
  C83      1.0000 0.41600  0.43080  0.31384  Biso   1.000  C
  C84      1.0000 0.58400  0.56920  0.68616  Biso   1.000  C
  C85      1.0000 0.34340  0.39950  0.28106  Biso   1.000  C
  C86      1.0000 0.65660  0.60050  0.71894  Biso   1.000  C
  H79      1.0000 0.31210  0.43490  0.24130  Biso   1.000  H
  H80      1.0000 0.68790  0.56510  0.75870  Biso   1.000  H
  N13      1.0000 0.32510  0.31360  0.31348  Biso   1.000  N
  N14      1.0000 0.67490  0.68640  0.68652  Biso   1.000  N
  N15      1.0000 0.38740  0.28833  0.36733  Biso   1.000  N
  N16      1.0000 0.61260  0.71167  0.63267  Biso   1.000  N
  C87      1.0000 0.38700  0.19580  0.41706  Biso   1.000  C
  C88      1.0000 0.61300  0.80420  0.58294  Biso   1.000  C
  H81      1.0000 0.45950  0.16570  0.42320  Biso   1.000  H
  H82      1.0000 0.54050  0.83430  0.57680  Biso   1.000  H
  H83      1.0000 0.35210  0.15600  0.39810  Biso   1.000  H
  H84      1.0000 0.64790  0.84400  0.60190  Biso   1.000  H
  C89      1.0000 0.33220  0.20320  0.48613  Biso   1.000  C
  C90      1.0000 0.66780  0.79680  0.51387  Biso   1.000  C
  H85      1.0000 0.25850  0.22970  0.48050  Biso   1.000  H
  H86      1.0000 0.74150  0.77030  0.51950  Biso   1.000  H
  H87      1.0000 0.36440  0.24600  0.50400  Biso   1.000  H
  H88      1.0000 0.63560  0.75400  0.49600  Biso   1.000  H
  C91      1.0000 0.33840  0.10740  0.53840  Biso   1.000  C
  C92      1.0000 0.66160  0.89260  0.46160  Biso   1.000  C
  H89      1.0000 0.31090  0.06330  0.51920  Biso   1.000  H
  H90      1.0000 0.68910  0.93670  0.48080  Biso   1.000  H
  H91      1.0000 0.41180  0.08300  0.54660  Biso   1.000  H
  H92      1.0000 0.58820  0.91700  0.45340  Biso   1.000  H
  C93      1.0000 0.27640  0.11430  0.60610  Biso   1.000  C
  C94      1.0000 0.72360  0.88570  0.39390  Biso   1.000  C
  H93      1.0000 0.28230  0.05300  0.63750  Biso   1.000  H
  H94      1.0000 0.71770  0.94700  0.36250  Biso   1.000  H
  H95      1.0000 0.20330  0.13710  0.59820  Biso   1.000  H
  H96      1.0000 0.79670  0.86290  0.40180  Biso   1.000  H
  H97      1.0000 0.30410  0.15710  0.62560  Biso   1.000  H
  H98      1.0000 0.69590  0.84290  0.37440  Biso   1.000  H
  C95      1.0000 0.44160  0.35680  0.36891  Biso   1.000  C
  C96      1.0000 0.55840  0.64320  0.63109  Biso   1.000  C
  H99      1.0000 0.48820  0.35470  0.40150  Biso   1.000  H
  H100     1.0000 0.51180  0.64530  0.59850  Biso   1.000  H
  F49      1.0000 0.62070  0.06700  0.94960  Biso   1.000  F
  F50      1.0000 0.37930  0.93300  0.05040  Biso   1.000  F
  F51      1.0000 0.70390  0.00050  0.87720  Biso   1.000  F
  F52      1.0000 0.29610  0.99950  0.12280  Biso   1.000  F
  F53      1.0000 0.62190  0.91920  0.96130  Biso   1.000  F
  F54      1.0000 0.37810  0.08080  0.03870  Biso   1.000  F
  F55      1.0000 0.57350  0.03130  0.22000  Biso   1.000  F
  F56      1.0000 0.42650  0.96870  0.78000  Biso   1.000  F
  F57      1.0000 0.44300  0.95640  0.25190  Biso   1.000  F
  F58      1.0000 0.55700  0.04360  0.74810  Biso   1.000  F
  F59      1.0000 0.49140  0.01940  0.32080  Biso   1.000  F
  F60      1.0000 0.50860  0.98060  0.67920  Biso   1.000  F
  F61      1.0000 0.37030  0.80490  0.52140  Biso   1.000  F
  F62      1.0000 0.62970  0.19510  0.47860  Biso   1.000  F
  F63      1.0000 0.24250  0.82490  0.46720  Biso   1.000  F
  F64      1.0000 0.75750  0.17510  0.53280  Biso   1.000  F
  F65      1.0000 0.40030  0.82540  0.41630  Biso   1.000  F
  F66      1.0000 0.59970  0.17460  0.58370  Biso   1.000  F
  C97      1.0000 0.74660  0.33020  0.20640  Biso   1.000  C
  C98      1.0000 0.25340  0.66980  0.79360  Biso   1.000  C
  C99      1.0000 0.63780  0.34400  0.20489  Biso   1.000  C
  C100     1.0000 0.36220  0.65600  0.79511  Biso   1.000  C
  H101     1.0000 0.59690  0.30540  0.23770  Biso   1.000  H
  H102     1.0000 0.40310  0.69460  0.76230  Biso   1.000  H
  C101     1.0000 0.59050  0.41530  0.15443  Biso   1.000  C
  C102     1.0000 0.40950  0.58470  0.84557  Biso   1.000  C
  H103     1.0000 0.51730  0.42510  0.15310  Biso   1.000  H
  H104     1.0000 0.48270  0.57490  0.84690  Biso   1.000  H
  C103     1.0000 0.65200  0.47270  0.10548  Biso   1.000  C
  C104     1.0000 0.34800  0.52730  0.89452  Biso   1.000  C
  H105     1.0000 0.61970  0.52090  0.07140  Biso   1.000  H
  H106     1.0000 0.38030  0.47910  0.92860  Biso   1.000  H
  C105     1.0000 0.76080  0.45890  0.10699  Biso   1.000  C
  C106     1.0000 0.23920  0.54110  0.89301  Biso   1.000  C
  H107     1.0000 0.80170  0.49740  0.07410  Biso   1.000  H
  H108     1.0000 0.19830  0.50260  0.92590  Biso   1.000  H
  C107     1.0000 0.80810  0.38760  0.15746  Biso   1.000  C
  C108     1.0000 0.19190  0.61240  0.84254  Biso   1.000  C
  H109     1.0000 0.88130  0.37780  0.15880  Biso   1.000  H
  H110     1.0000 0.11870  0.62220  0.84120  Biso   1.000  H
  C109     1.0000 0.80170  0.26210  0.27340  Biso   1.000  C
  C110     1.0000 0.19830  0.73790  0.72660  Biso   1.000  C
  H111     1.0000 0.87720  0.26760  0.26500  Biso   1.000  H
  H112     1.0000 0.12280  0.73240  0.73500  Biso   1.000  H
  C111     1.0000 0.76710  0.28920  0.33750  Biso   1.000  C
  C112     1.0000 0.23290  0.71080  0.66250  Biso   1.000  C
  H113     1.0000 0.79580  0.24080  0.37520  Biso   1.000  H
  H114     1.0000 0.20420  0.75920  0.62480  Biso   1.000  H
  H115     1.0000 0.69120  0.29730  0.34370  Biso   1.000  H
  H116     1.0000 0.30880  0.70270  0.65630  Biso   1.000  H
  H117     1.0000 0.79120  0.34750  0.33630  Biso   1.000  H
  H118     1.0000 0.20880  0.65250  0.66370  Biso   1.000  H
  C113     1.0000 0.79460  0.16210  0.27990  Biso   1.000  C
  C114     1.0000 0.20540  0.83790  0.72010  Biso   1.000  C
  H119     1.0000 0.82050  0.12500  0.32290  Biso   1.000  H
  H120     1.0000 0.17950  0.87500  0.67710  Biso   1.000  H
  H121     1.0000 0.83640  0.14120  0.24220  Biso   1.000  H
  H122     1.0000 0.16360  0.85880  0.75780  Biso   1.000  H
  H123     1.0000 0.72210  0.15480  0.27890  Biso   1.000  H
  H124     1.0000 0.27790  0.84520  0.72110  Biso   1.000  H
  C115     1.0000 0.70890  0.33180  0.20510  Biso   1.000  C
  C116     1.0000 0.29110  0.66820  0.79490  Biso   1.000  C
  C117     1.0000 0.80790  0.35810  0.18160  Biso   1.000  C
  C118     1.0000 0.19210  0.64190  0.81840  Biso   1.000  C
  H125     1.0000 0.86750  0.32340  0.20280  Biso   1.000  H
  H126     1.0000 0.13250  0.67660  0.79720  Biso   1.000  H
  C119     1.0000 0.81870  0.43550  0.12680  Biso   1.000  C
  C120     1.0000 0.18130  0.56450  0.87320  Biso   1.000  C
  H127     1.0000 0.88510  0.45280  0.11120  Biso   1.000  H
  H128     1.0000 0.11490  0.54720  0.88880  Biso   1.000  H
  C121     1.0000 0.73030  0.48650  0.09560  Biso   1.000  C
  C122     1.0000 0.26970  0.51350  0.90440  Biso   1.000  C
  H129     1.0000 0.73680  0.53860  0.05880  Biso   1.000  H
  H130     1.0000 0.26320  0.46140  0.94120  Biso   1.000  H
  C123     1.0000 0.63120  0.46010  0.11910  Biso   1.000  C
  C124     1.0000 0.36880  0.53990  0.88090  Biso   1.000  C
  H131     1.0000 0.57160  0.49480  0.09790  Biso   1.000  H
  H132     1.0000 0.42840  0.50520  0.90210  Biso   1.000  H
  C125     1.0000 0.62050  0.38280  0.17390  Biso   1.000  C
  C126     1.0000 0.37950  0.61720  0.82610  Biso   1.000  C
  H133     1.0000 0.55410  0.36540  0.18940  Biso   1.000  H
  H134     1.0000 0.44590  0.63460  0.81060  Biso   1.000  H
  C127     1.0000 0.70840  0.25500  0.26420  Biso   1.000  C
  C128     1.0000 0.29160  0.74500  0.73580  Biso   1.000  C
  H135     1.0000 0.63230  0.25280  0.27400  Biso   1.000  H
  H136     1.0000 0.36770  0.74720  0.72600  Biso   1.000  H
  C129     1.0000 0.73500  0.25900  0.32660  Biso   1.000  C
  C130     1.0000 0.26500  0.74100  0.67340  Biso   1.000  C
  H137     1.0000 0.72320  0.20140  0.36000  Biso   1.000  H
  H138     1.0000 0.27680  0.79860  0.64000  Biso   1.000  H
  H139     1.0000 0.69250  0.31150  0.34070  Biso   1.000  H
  H140     1.0000 0.30750  0.68850  0.65930  Biso   1.000  H
  H141     1.0000 0.80850  0.26560  0.32330  Biso   1.000  H
  H142     1.0000 0.19150  0.73440  0.67670  Biso   1.000  H
  C131     1.0000 0.74380  0.16560  0.24870  Biso   1.000  C
  C132     1.0000 0.25620  0.83440  0.75130  Biso   1.000  C
  H143     1.0000 0.72970  0.11640  0.28870  Biso   1.000  H
  H144     1.0000 0.27030  0.88360  0.71130  Biso   1.000  H
  H145     1.0000 0.81860  0.15960  0.23580  Biso   1.000  H
  H146     1.0000 0.18140  0.84040  0.76420  Biso   1.000  H
  H147     1.0000 0.70720  0.16060  0.21110  Biso   1.000  H
  H148     1.0000 0.29280  0.83940  0.78890  Biso   1.000  H
