data_image0
_cell_length_a       12.736
_cell_length_b       14.476
_cell_length_c       19.819
_cell_angle_alpha    75.413
_cell_angle_beta     83.087
_cell_angle_gamma    79.451

_symmetry_space_group_name_H-M    "P 1"
_symmetry_int_tables_number       1

loop_
  _symmetry_equiv_pos_as_xyz
  'x, y, z'

loop_
  _atom_site_label
  _atom_site_occupancy
  _atom_site_fract_x
  _atom_site_fract_y
  _atom_site_fract_z
  _atom_site_thermal_displace_type
  _atom_site_B_iso_or_equiv
  _atom_site_type_symbol
  Cu1      1.0000 0.00000  0.00000  0.00000  Biso   1.000  Cu
  O1       1.0000 0.06770  0.07830  0.91735  Biso   1.000  O
  O2       1.0000 0.93230  0.92170  0.08265  Biso   1.000  O
  C1       1.0000 0.19700  0.11590  0.82680  Biso   1.000  C
  C2       1.0000 0.80300  0.88410  0.17320  Biso   1.000  C
  F1       1.0000 0.19480  0.04440  0.79613  Biso   1.000  F
  F2       1.0000 0.80520  0.95560  0.20387  Biso   1.000  F
  F3       1.0000 0.29360  0.13970  0.81165  Biso   1.000  F
  F4       1.0000 0.70640  0.86030  0.18835  Biso   1.000  F
  F5       1.0000 0.12870  0.19170  0.79462  Biso   1.000  F
  F6       1.0000 0.87130  0.80830  0.20538  Biso   1.000  F
  C3       1.0000 0.16550  0.08600  0.90440  Biso   1.000  C
  C4       1.0000 0.83450  0.91400  0.09560  Biso   1.000  C
  C5       1.0000 0.24420  0.06860  0.94970  Biso   1.000  C
  C6       1.0000 0.75580  0.93140  0.05030  Biso   1.000  C
  H1       1.0000 0.31410  0.08040  0.93090  Biso   1.000  H
  H2       1.0000 0.68590  0.91960  0.06910  Biso   1.000  H
  C7       1.0000 0.22710  0.03450  0.02160  Biso   1.000  C
  C8       1.0000 0.77290  0.96550  0.97840  Biso   1.000  C
  C9       1.0000 0.32270  0.01740  0.06580  Biso   1.000  C
  C10      1.0000 0.67730  0.98260  0.93420  Biso   1.000  C
  F7       1.0000 0.38800  0.06500  0.04010  Biso   1.000  F
  F8       1.0000 0.61200  0.93500  0.95990  Biso   1.000  F
  F9       1.0000 0.37000  0.94000  0.07700  Biso   1.000  F
  F10      1.0000 0.63000  0.06000  0.92300  Biso   1.000  F
  F11      1.0000 0.29300  0.04400  0.12720  Biso   1.000  F
  F12      1.0000 0.70700  0.95600  0.87280  Biso   1.000  F
  O3       1.0000 0.14250  0.01560  0.05590  Biso   1.000  O
  O4       1.0000 0.85750  0.98440  0.94410  Biso   1.000  O
  Cu2      1.0000 0.78377  0.76449  0.73861  Biso   1.000  Cu
  Cu3      1.0000 0.21623  0.23551  0.26139  Biso   1.000  Cu
  O5       1.0000 0.84930  0.83050  0.64940  Biso   1.000  O
  O6       1.0000 0.15070  0.16950  0.35060  Biso   1.000  O
  C11      1.0000 0.95310  0.85680  0.54420  Biso   1.000  C
  C12      1.0000 0.04690  0.14320  0.45580  Biso   1.000  C
  F13      1.0000 0.99820  0.81060  0.49520  Biso   1.000  F
  F14      1.0000 0.00180  0.18940  0.50480  Biso   1.000  F
  F15      1.0000 0.02730  0.89990  0.55830  Biso   1.000  F
  F16      1.0000 0.97270  0.10010  0.44170  Biso   1.000  F
  F17      1.0000 0.87560  0.92230  0.51660  Biso   1.000  F
  F18      1.0000 0.12440  0.07770  0.48340  Biso   1.000  F
  C13      1.0000 0.91390  0.78730  0.61160  Biso   1.000  C
  C14      1.0000 0.08610  0.21270  0.38840  Biso   1.000  C
  C15      1.0000 0.95760  0.69070  0.62320  Biso   1.000  C
  C16      1.0000 0.04240  0.30930  0.37680  Biso   1.000  C
  H3       1.0000 0.99980  0.66710  0.58640  Biso   1.000  H
  H4       1.0000 0.00020  0.33290  0.41360  Biso   1.000  H
  C17      1.0000 0.94160  0.62790  0.68690  Biso   1.000  C
  C18      1.0000 0.05840  0.37210  0.31310  Biso   1.000  C
  C19      1.0000 0.99570  0.52250  0.69810  Biso   1.000  C
  C20      1.0000 0.00430  0.47750  0.30190  Biso   1.000  C
  F19      1.0000 0.05030  0.50230  0.64140  Biso   1.000  F
  F20      1.0000 0.94970  0.49770  0.35860  Biso   1.000  F
  F21      1.0000 0.92630  0.46330  0.72000  Biso   1.000  F
  F22      1.0000 0.07370  0.53670  0.28000  Biso   1.000  F
  F23      1.0000 0.06530  0.50410  0.74757  Biso   1.000  F
  F24      1.0000 0.93470  0.49590  0.25243  Biso   1.000  F
  O7       1.0000 0.88700  0.64550  0.74083  Biso   1.000  O
  O8       1.0000 0.11300  0.35450  0.25917  Biso   1.000  O
  O9       1.0000 0.72060  0.70010  0.83000  Biso   1.000  O
  O10      1.0000 0.27940  0.29990  0.17000  Biso   1.000  O
  C21      1.0000 0.61010  0.67510  0.93240  Biso   1.000  C
  C22      1.0000 0.38990  0.32490  0.06760  Biso   1.000  C
  F25      1.0000 0.61170  0.58330  0.93280  Biso   1.000  F
  F26      1.0000 0.38830  0.41670  0.06720  Biso   1.000  F
  F27      1.0000 0.51630  0.70700  0.96160  Biso   1.000  F
  F28      1.0000 0.48370  0.29300  0.03840  Biso   1.000  F
  F29      1.0000 0.68370  0.67640  0.97320  Biso   1.000  F
  F30      1.0000 0.31630  0.32360  0.02680  Biso   1.000  F
  C23      1.0000 0.63370  0.73390  0.85830  Biso   1.000  C
  C24      1.0000 0.36630  0.26610  0.14170  Biso   1.000  C
  C25      1.0000 0.56370  0.81520  0.83170  Biso   1.000  C
  C26      1.0000 0.43630  0.18480  0.16830  Biso   1.000  C
  H5       1.0000 0.49700  0.82800  0.85740  Biso   1.000  H
  H6       1.0000 0.50300  0.17200  0.14260  Biso   1.000  H
  C27      1.0000 0.58520  0.87860  0.77000  Biso   1.000  C
  C28      1.0000 0.41480  0.12140  0.23000  Biso   1.000  C
  C29      1.0000 0.50350  0.96750  0.74460  Biso   1.000  C
  C30      1.0000 0.49650  0.03250  0.25540  Biso   1.000  C
  F31      1.0000 0.41020  0.95290  0.75790  Biso   1.000  F
  F32      1.0000 0.58980  0.04710  0.24210  Biso   1.000  F
  F33      1.0000 0.49890  0.03030  0.79150  Biso   1.000  F
  F34      1.0000 0.50110  0.96970  0.20850  Biso   1.000  F
  F35      1.0000 0.52070  0.02000  0.68940  Biso   1.000  F
  F36      1.0000 0.47930  0.98000  0.31060  Biso   1.000  F
  O11      1.0000 0.67020  0.87630  0.72910  Biso   1.000  O
  O12      1.0000 0.32980  0.12370  0.27090  Biso   1.000  O
  Cu4      1.0000 0.50000  0.50000  0.50000  Biso   1.000  Cu
  O13      1.0000 0.64010  0.52510  0.51097  Biso   1.000  O
  O14      1.0000 0.35990  0.47490  0.48903  Biso   1.000  O
  C31      1.0000 0.82230  0.50660  0.52010  Biso   1.000  C
  C32      1.0000 0.17770  0.49340  0.47990  Biso   1.000  C
  F37      1.0000 0.81590  0.53700  0.57850  Biso   1.000  F
  F38      1.0000 0.18410  0.46300  0.42150  Biso   1.000  F
  F39      1.0000 0.91270  0.44540  0.51790  Biso   1.000  F
  F40      1.0000 0.08730  0.55460  0.48210  Biso   1.000  F
  F41      1.0000 0.83160  0.58350  0.46740  Biso   1.000  F
  F42      1.0000 0.16840  0.41650  0.53260  Biso   1.000  F
  C33      1.0000 0.72380  0.46470  0.51700  Biso   1.000  C
  C34      1.0000 0.27620  0.53530  0.48300  Biso   1.000  C
  C35      1.0000 0.73380  0.36560  0.52220  Biso   1.000  C
  C36      1.0000 0.26620  0.63440  0.47780  Biso   1.000  C
  H7       1.0000 0.80280  0.32730  0.52620  Biso   1.000  H
  H8       1.0000 0.19720  0.67270  0.47380  Biso   1.000  H
  C37      1.0000 0.64750  0.32200  0.52170  Biso   1.000  C
  C38      1.0000 0.35250  0.67800  0.47830  Biso   1.000  C
  C39      1.0000 0.66580  0.21280  0.53050  Biso   1.000  C
  C40      1.0000 0.33420  0.78720  0.46950  Biso   1.000  C
  F43      1.0000 0.61600  0.18940  0.48410  Biso   1.000  F
  F44      1.0000 0.38400  0.81060  0.51590  Biso   1.000  F
  F45      1.0000 0.76610  0.17360  0.52460  Biso   1.000  F
  F46      1.0000 0.23390  0.82640  0.47540  Biso   1.000  F
  F47      1.0000 0.62630  0.17030  0.59360  Biso   1.000  F
  F48      1.0000 0.37370  0.82970  0.40640  Biso   1.000  F
  O15      1.0000 0.55100  0.36120  0.51678  Biso   1.000  O
  O16      1.0000 0.44900  0.63880  0.48322  Biso   1.000  O
  O17      1.0000 0.09990  0.89190  0.97181  Biso   1.000  O
  O18      1.0000 0.90010  0.10810  0.02819  Biso   1.000  O
  N1       1.0000 0.08610  0.80190  0.99310  Biso   1.000  N
  N2       1.0000 0.91390  0.19810  0.00690  Biso   1.000  N
  C41      1.0000 0.14740  0.73140  0.04920  Biso   1.000  C
  C42      1.0000 0.85260  0.26860  0.95080  Biso   1.000  C
  C43      1.0000 0.26100  0.70970  0.01690  Biso   1.000  C
  C44      1.0000 0.73900  0.29030  0.98310  Biso   1.000  C
  H9       1.0000 0.29660  0.76640  0.00990  Biso   1.000  H
  H10      1.0000 0.70340  0.23360  0.99010  Biso   1.000  H
  H11      1.0000 0.25870  0.69440  0.97170  Biso   1.000  H
  H12      1.0000 0.74130  0.30560  0.02830  Biso   1.000  H
  H13      1.0000 0.30090  0.65450  0.04820  Biso   1.000  H
  H14      1.0000 0.69910  0.34550  0.95180  Biso   1.000  H
  C45      1.0000 0.14880  0.77270  0.11250  Biso   1.000  C
  C46      1.0000 0.85120  0.22730  0.88750  Biso   1.000  C
  H15      1.0000 0.19120  0.82550  0.09980  Biso   1.000  H
  H16      1.0000 0.80880  0.17450  0.90020  Biso   1.000  H
  H17      1.0000 0.18090  0.72180  0.15040  Biso   1.000  H
  H18      1.0000 0.81910  0.27820  0.84960  Biso   1.000  H
  H19      1.0000 0.07540  0.79730  0.12790  Biso   1.000  H
  H20      1.0000 0.92460  0.20270  0.87210  Biso   1.000  H
  C47      1.0000 0.08330  0.64760  0.06270  Biso   1.000  C
  C48      1.0000 0.91670  0.35240  0.93730  Biso   1.000  C
  C49      1.0000 0.14860  0.54610  0.08150  Biso   1.000  C
  C50      1.0000 0.85140  0.45390  0.91850  Biso   1.000  C
  H21      1.0000 0.10070  0.49790  0.08920  Biso   1.000  H
  H22      1.0000 0.89930  0.50210  0.91080  Biso   1.000  H
  H23      1.0000 0.18400  0.53820  0.12430  Biso   1.000  H
  H24      1.0000 0.81600  0.46180  0.87570  Biso   1.000  H
  H25      1.0000 0.20270  0.53700  0.04320  Biso   1.000  H
  H26      1.0000 0.79730  0.46300  0.95680  Biso   1.000  H
  C51      1.0000 0.98440  0.65590  0.11340  Biso   1.000  C
  C52      1.0000 0.01560  0.34410  0.88660  Biso   1.000  C
  H27      1.0000 0.94830  0.59990  0.11900  Biso   1.000  H
  H28      1.0000 0.05170  0.40010  0.88100  Biso   1.000  H
  H29      1.0000 0.93550  0.71520  0.09500  Biso   1.000  H
  H30      1.0000 0.06450  0.28480  0.90500  Biso   1.000  H
  H31      1.0000 0.00560  0.65790  0.15880  Biso   1.000  H
  H32      1.0000 0.99440  0.34210  0.84120  Biso   1.000  H
  N3       1.0000 0.04200  0.66540  0.99260  Biso   1.000  N
  N4       1.0000 0.95800  0.33460  0.00740  Biso   1.000  N
  O19      1.0000 0.00160  0.60260  0.97460  Biso   1.000  O
  O20      1.0000 0.99840  0.39740  0.02540  Biso   1.000  O
  C53      1.0000 0.03710  0.75960  0.95700  Biso   1.000  C
  C54      1.0000 0.96290  0.24040  0.04300  Biso   1.000  C
  C55      1.0000 0.98870  0.79890  0.89400  Biso   1.000  C
  C56      1.0000 0.01130  0.20110  0.10600  Biso   1.000  C
  C57      1.0000 0.92440  0.75610  0.86150  Biso   1.000  C
  C58      1.0000 0.07560  0.24390  0.13850  Biso   1.000  C
  H33      1.0000 0.90770  0.69270  0.87920  Biso   1.000  H
  H34      1.0000 0.09230  0.30730  0.12080  Biso   1.000  H
  N5       1.0000 0.89020  0.81580  0.80310  Biso   1.000  N
  N6       1.0000 0.10980  0.18420  0.19690  Biso   1.000  N
  N7       1.0000 0.93200  0.89720  0.79650  Biso   1.000  N
  N8       1.0000 0.06800  0.10280  0.20350  Biso   1.000  N
  C59      1.0000 0.90750  0.97820  0.73620  Biso   1.000  C
  C60      1.0000 0.09250  0.02180  0.26380  Biso   1.000  C
  H35      1.0000 0.83070  0.98550  0.72860  Biso   1.000  H
  H36      1.0000 0.16930  0.01450  0.27140  Biso   1.000  H
  H37      1.0000 0.94940  0.96200  0.69410  Biso   1.000  H
  H38      1.0000 0.05060  0.03800  0.30590  Biso   1.000  H
  C61      1.0000 0.93010  0.07140  0.74270  Biso   1.000  C
  C62      1.0000 0.06990  0.92860  0.25730  Biso   1.000  C
  H39      1.0000 0.00730  0.06550  0.74870  Biso   1.000  H
  H40      1.0000 0.99270  0.93450  0.25130  Biso   1.000  H
  H41      1.0000 0.88930  0.08780  0.78510  Biso   1.000  H
  H42      1.0000 0.11070  0.91220  0.21490  Biso   1.000  H
  C63      1.0000 0.90060  0.15250  0.67950  Biso   1.000  C
  C64      1.0000 0.09940  0.84750  0.32050  Biso   1.000  C
  H43      1.0000 0.94050  0.13480  0.63730  Biso   1.000  H
  H44      1.0000 0.05950  0.86520  0.36270  Biso   1.000  H
  H45      1.0000 0.82330  0.15800  0.67410  Biso   1.000  H
  H46      1.0000 0.17670  0.84200  0.32590  Biso   1.000  H
  C65      1.0000 0.92280  0.24850  0.68240  Biso   1.000  C
  C66      1.0000 0.07720  0.75150  0.31760  Biso   1.000  C
  H47      1.0000 0.90150  0.29630  0.63970  Biso   1.000  H
  H48      1.0000 0.09850  0.70370  0.36030  Biso   1.000  H
  H49      1.0000 0.99960  0.24470  0.68640  Biso   1.000  H
  H50      1.0000 0.00040  0.75530  0.31360  Biso   1.000  H
  H51      1.0000 0.88210  0.26800  0.72320  Biso   1.000  H
  H52      1.0000 0.11790  0.73200  0.27680  Biso   1.000  H
  C67      1.0000 0.99120  0.89010  0.84950  Biso   1.000  C
  C68      1.0000 0.00880  0.10990  0.15050  Biso   1.000  C
  H53      1.0000 0.02810  0.93840  0.85580  Biso   1.000  H
  H54      1.0000 0.97190  0.06160  0.14420  Biso   1.000  H
  O21      1.0000 0.43770  0.50200  0.61604  Biso   1.000  O
  O22      1.0000 0.56230  0.49800  0.38396  Biso   1.000  O
  N9       1.0000 0.47710  0.45280  0.67460  Biso   1.000  N
  N10      1.0000 0.52290  0.54720  0.32540  Biso   1.000  N
  C69      1.0000 0.42970  0.36770  0.71860  Biso   1.000  C
  C70      1.0000 0.57030  0.63230  0.28140  Biso   1.000  C
  C71      1.0000 0.32230  0.40900  0.75010  Biso   1.000  C
  C72      1.0000 0.67770  0.59100  0.24990  Biso   1.000  C
  H55      1.0000 0.27200  0.43380  0.71360  Biso   1.000  H
  H56      1.0000 0.72800  0.56620  0.28640  Biso   1.000  H
  H57      1.0000 0.33140  0.46180  0.77060  Biso   1.000  H
  H58      1.0000 0.66860  0.53820  0.22940  Biso   1.000  H
  H59      1.0000 0.29410  0.35820  0.78670  Biso   1.000  H
  H60      1.0000 0.70590  0.64180  0.21330  Biso   1.000  H
  C73      1.0000 0.41400  0.30140  0.67340  Biso   1.000  C
  C74      1.0000 0.58600  0.69860  0.32660  Biso   1.000  C
  H61      1.0000 0.35780  0.33390  0.64190  Biso   1.000  H
  H62      1.0000 0.64220  0.66610  0.35810  Biso   1.000  H
  H63      1.0000 0.39300  0.24170  0.70340  Biso   1.000  H
  H64      1.0000 0.60700  0.75830  0.29660  Biso   1.000  H
  H65      1.0000 0.48120  0.28590  0.64580  Biso   1.000  H
  H66      1.0000 0.51880  0.71410  0.35420  Biso   1.000  H
  C75      1.0000 0.51690  0.32570  0.77150  Biso   1.000  C
  C76      1.0000 0.48310  0.67430  0.22850  Biso   1.000  C
  C77      1.0000 0.60670  0.25310  0.74820  Biso   1.000  C
  C78      1.0000 0.39330  0.74690  0.25180  Biso   1.000  C
  H67      1.0000 0.65840  0.22990  0.78390  Biso   1.000  H
  H68      1.0000 0.34160  0.77010  0.21610  Biso   1.000  H
  H69      1.0000 0.64270  0.28410  0.70400  Biso   1.000  H
  H70      1.0000 0.35730  0.71590  0.29600  Biso   1.000  H
  H71      1.0000 0.57690  0.19840  0.74170  Biso   1.000  H
  H72      1.0000 0.42310  0.80160  0.25830  Biso   1.000  H
  C79      1.0000 0.47420  0.28620  0.84680  Biso   1.000  C
  C80      1.0000 0.52580  0.71380  0.15320  Biso   1.000  C
  H73      1.0000 0.53420  0.26150  0.87640  Biso   1.000  H
  H74      1.0000 0.46580  0.73850  0.12360  Biso   1.000  H
  H75      1.0000 0.43440  0.23370  0.84820  Biso   1.000  H
  H76      1.0000 0.56560  0.76630  0.15180  Biso   1.000  H
  H77      1.0000 0.42650  0.33800  0.86390  Biso   1.000  H
  H78      1.0000 0.57350  0.66200  0.13610  Biso   1.000  H
  N11      1.0000 0.56560  0.41340  0.76790  Biso   1.000  N
  N12      1.0000 0.43440  0.58660  0.23210  Biso   1.000  N
  O23      1.0000 0.62900  0.41570  0.81110  Biso   1.000  O
  O24      1.0000 0.37100  0.58430  0.18890  Biso   1.000  O
  C81      1.0000 0.54370  0.48080  0.70790  Biso   1.000  C
  C82      1.0000 0.45630  0.51920  0.29210  Biso   1.000  C
  C83      1.0000 0.58750  0.56980  0.68520  Biso   1.000  C
  C84      1.0000 0.41250  0.43020  0.31480  Biso   1.000  C
  C85      1.0000 0.66050  0.60060  0.71810  Biso   1.000  C
  C86      1.0000 0.33950  0.39940  0.28190  Biso   1.000  C
  H79      1.0000 0.69330  0.56360  0.75910  Biso   1.000  H
  H80      1.0000 0.30670  0.43640  0.24090  Biso   1.000  H
  N13      1.0000 0.67810  0.68920  0.68440  Biso   1.000  N
  N14      1.0000 0.32190  0.31080  0.31560  Biso   1.000  N
  N15      1.0000 0.61470  0.71430  0.63020  Biso   1.000  N
  N16      1.0000 0.38530  0.28570  0.36980  Biso   1.000  N
  C87      1.0000 0.61570  0.80630  0.57950  Biso   1.000  C
  C88      1.0000 0.38430  0.19370  0.42050  Biso   1.000  C
  H81      1.0000 0.65080  0.84880  0.59850  Biso   1.000  H
  H82      1.0000 0.34920  0.15120  0.40150  Biso   1.000  H
  H83      1.0000 0.54100  0.83820  0.57160  Biso   1.000  H
  H84      1.0000 0.45900  0.16180  0.42840  Biso   1.000  H
  C89      1.0000 0.67440  0.79410  0.51010  Biso   1.000  C
  C90      1.0000 0.32560  0.20590  0.48990  Biso   1.000  C
  H85      1.0000 0.64390  0.74650  0.49330  Biso   1.000  H
  H86      1.0000 0.35610  0.25350  0.50670  Biso   1.000  H
  H87      1.0000 0.75080  0.76820  0.51710  Biso   1.000  H
  H88      1.0000 0.24920  0.23180  0.48290  Biso   1.000  H
  C91      1.0000 0.66610  0.88980  0.45430  Biso   1.000  C
  C92      1.0000 0.33390  0.11020  0.54570  Biso   1.000  C
  H89      1.0000 0.59080  0.91120  0.44230  Biso   1.000  H
  H90      1.0000 0.40920  0.08880  0.55770  Biso   1.000  H
  H91      1.0000 0.68740  0.94000  0.47340  Biso   1.000  H
  H92      1.0000 0.31260  0.06000  0.52660  Biso   1.000  H
  C93      1.0000 0.73670  0.87940  0.38920  Biso   1.000  C
  C94      1.0000 0.26330  0.12060  0.61080  Biso   1.000  C
  H93      1.0000 0.72930  0.94140  0.35450  Biso   1.000  H
  H94      1.0000 0.27070  0.05860  0.64550  Biso   1.000  H
  H95      1.0000 0.71530  0.83020  0.36990  Biso   1.000  H
  H96      1.0000 0.28470  0.16980  0.63010  Biso   1.000  H
  H97      1.0000 0.81150  0.85990  0.40070  Biso   1.000  H
  H98      1.0000 0.18850  0.14010  0.59930  Biso   1.000  H
  C95      1.0000 0.56010  0.64470  0.62930  Biso   1.000  C
  C96      1.0000 0.43990  0.35530  0.37070  Biso   1.000  C
  H99      1.0000 0.51120  0.64660  0.59620  Biso   1.000  H
  H100     1.0000 0.48880  0.35340  0.40380  Biso   1.000  H
  F49      1.0000 0.38200  0.92120  0.06140  Biso   1.000  F
  F50      1.0000 0.61800  0.07880  0.93860  Biso   1.000  F
  F51      1.0000 0.30100  0.99880  0.13030  Biso   1.000  F
  F52      1.0000 0.69900  0.00120  0.86970  Biso   1.000  F
  F53      1.0000 0.40030  0.07590  0.03910  Biso   1.000  F
  F54      1.0000 0.59970  0.92410  0.96090  Biso   1.000  F
  F55      1.0000 0.41520  0.96760  0.77690  Biso   1.000  F
  F56      1.0000 0.58480  0.03240  0.22310  Biso   1.000  F
  F57      1.0000 0.54200  0.04310  0.72640  Biso   1.000  F
  F58      1.0000 0.45800  0.95690  0.27360  Biso   1.000  F
  F59      1.0000 0.47530  0.95610  0.67880  Biso   1.000  F
  F60      1.0000 0.52470  0.04390  0.32120  Biso   1.000  F
  C97      1.0000 0.25090  0.66840  0.78420  Biso   1.000  C
  C98      1.0000 0.74910  0.33160  0.21580  Biso   1.000  C
  C99      1.0000 0.35740  0.65780  0.78680  Biso   1.000  C
  C100     1.0000 0.64260  0.34220  0.21320  Biso   1.000  C
  H101     1.0000 0.39740  0.69700  0.75080  Biso   1.000  H
  H102     1.0000 0.60260  0.30300  0.24920  Biso   1.000  H
  C101     1.0000 0.41010  0.59310  0.83900  Biso   1.000  C
  C102     1.0000 0.58990  0.40690  0.16100  Biso   1.000  C
  H103     1.0000 0.48540  0.58810  0.83910  Biso   1.000  H
  H104     1.0000 0.51460  0.41190  0.16090  Biso   1.000  H
  C103     1.0000 0.35610  0.53560  0.89070  Biso   1.000  C
  C104     1.0000 0.64390  0.46440  0.10930  Biso   1.000  C
  H105     1.0000 0.39350  0.49040  0.92690  Biso   1.000  H
  H106     1.0000 0.60650  0.50960  0.07310  Biso   1.000  H
  C105     1.0000 0.24770  0.54270  0.89090  Biso   1.000  C
  C106     1.0000 0.75230  0.45730  0.10910  Biso   1.000  C
  H107     1.0000 0.20920  0.50200  0.92670  Biso   1.000  H
  H108     1.0000 0.79080  0.49800  0.07330  Biso   1.000  H
  C107     1.0000 0.19340  0.61170  0.83660  Biso   1.000  C
  C108     1.0000 0.80660  0.38830  0.16340  Biso   1.000  C
  H109     1.0000 0.11780  0.61880  0.83650  Biso   1.000  H
  H110     1.0000 0.88220  0.38120  0.16350  Biso   1.000  H
  C109     1.0000 0.19330  0.73770  0.72370  Biso   1.000  C
  C110     1.0000 0.80670  0.26230  0.27630  Biso   1.000  C
  H111     1.0000 0.11470  0.73720  0.73500  Biso   1.000  H
  H112     1.0000 0.88530  0.26280  0.26500  Biso   1.000  H
  C111     1.0000 0.21230  0.84020  0.71420  Biso   1.000  C
  C112     1.0000 0.78770  0.15980  0.28580  Biso   1.000  C
  H113     1.0000 0.17410  0.88210  0.67470  Biso   1.000  H
  H114     1.0000 0.82590  0.11790  0.32530  Biso   1.000  H
  H115     1.0000 0.28920  0.84260  0.70480  Biso   1.000  H
  H116     1.0000 0.71080  0.15740  0.29520  Biso   1.000  H
  H117     1.0000 0.18590  0.86240  0.75680  Biso   1.000  H
  H118     1.0000 0.81410  0.13760  0.24320  Biso   1.000  H
  C113     1.0000 0.22480  0.70230  0.65730  Biso   1.000  C
  C114     1.0000 0.77520  0.29770  0.34270  Biso   1.000  C
  H119     1.0000 0.18720  0.74720  0.61880  Biso   1.000  H
  H120     1.0000 0.81280  0.25280  0.38120  Biso   1.000  H
  H121     1.0000 0.20550  0.63800  0.66400  Biso   1.000  H
  H122     1.0000 0.79450  0.36200  0.33600  Biso   1.000  H
  H123     1.0000 0.30230  0.69890  0.64620  Biso   1.000  H
  H124     1.0000 0.69770  0.30110  0.35380  Biso   1.000  H
