data_image0
_cell_length_a       12.9209
_cell_length_b       14.9332
_cell_length_c       20.1997
_cell_angle_alpha    74.708
_cell_angle_beta     83.596
_cell_angle_gamma    80.442

_symmetry_space_group_name_H-M    "P 1"
_symmetry_int_tables_number       1

loop_
  _symmetry_equiv_pos_as_xyz
  'x, y, z'

loop_
  _atom_site_label
  _atom_site_occupancy
  _atom_site_fract_x
  _atom_site_fract_y
  _atom_site_fract_z
  _atom_site_thermal_displace_type
  _atom_site_B_iso_or_equiv
  _atom_site_type_symbol
  Cu1      1.0000 0.50000  0.50000  0.50000  Biso   1.000  Cu
  O1       1.0000 0.36002  0.47514  0.49065  Biso   1.000  O
  O2       1.0000 0.63998  0.52486  0.50935  Biso   1.000  O
  C1       1.0000 0.17930  0.49450  0.48090  Biso   1.000  C
  C2       1.0000 0.82070  0.50550  0.51910  Biso   1.000  C
  F1       1.0000 0.16832  0.42201  0.53557  Biso   1.000  F
  F2       1.0000 0.83168  0.57799  0.46443  Biso   1.000  F
  F3       1.0000 0.08710  0.56170  0.48710  Biso   1.000  F
  F4       1.0000 0.91290  0.43830  0.51290  Biso   1.000  F
  F5       1.0000 0.17450  0.48510  0.42020  Biso   1.000  F
  F6       1.0000 0.82550  0.51490  0.57980  Biso   1.000  F
  C3       1.0000 0.27940  0.53590  0.48433  Biso   1.000  C
  C4       1.0000 0.72060  0.46410  0.51567  Biso   1.000  C
  C5       1.0000 0.27150  0.63100  0.47852  Biso   1.000  C
  C6       1.0000 0.72850  0.36900  0.52148  Biso   1.000  C
  H1       1.0000 0.20500  0.66790  0.47530  Biso   1.000  H
  H2       1.0000 0.79500  0.33210  0.52470  Biso   1.000  H
  C7       1.0000 0.35930  0.67280  0.47736  Biso   1.000  C
  C8       1.0000 0.64070  0.32720  0.52264  Biso   1.000  C
  C9       1.0000 0.34480  0.77870  0.46830  Biso   1.000  C
  C10      1.0000 0.65520  0.22130  0.53170  Biso   1.000  C
  F7       1.0000 0.36840  0.79740  0.52130  Biso   1.000  F
  F8       1.0000 0.63160  0.20260  0.47870  Biso   1.000  F
  F9       1.0000 0.41350  0.81890  0.42140  Biso   1.000  F
  F10      1.0000 0.58650  0.18110  0.57860  Biso   1.000  F
  F11      1.0000 0.25480  0.81600  0.45650  Biso   1.000  F
  F12      1.0000 0.74520  0.18400  0.54350  Biso   1.000  F
  O3       1.0000 0.45352  0.63472  0.48204  Biso   1.000  O
  O4       1.0000 0.54648  0.36528  0.51796  Biso   1.000  O
  Cu2      1.0000 0.21481  0.23727  0.26555  Biso   1.000  Cu
  Cu3      1.0000 0.78519  0.76273  0.73445  Biso   1.000  Cu
  O5       1.0000 0.14223  0.17353  0.35295  Biso   1.000  O
  O6       1.0000 0.85777  0.82647  0.64705  Biso   1.000  O
  C11      1.0000 0.03300  0.15030  0.45540  Biso   1.000  C
  C12      1.0000 0.96700  0.84970  0.54460  Biso   1.000  C
  F13      1.0000 0.00760  0.19170  0.50510  Biso   1.000  F
  F14      1.0000 0.99240  0.80830  0.49490  Biso   1.000  F
  F15      1.0000 0.95080  0.11820  0.44990  Biso   1.000  F
  F16      1.0000 0.04920  0.88180  0.55010  Biso   1.000  F
  F17      1.0000 0.09620  0.08440  0.47520  Biso   1.000  F
  F18      1.0000 0.90380  0.91560  0.52480  Biso   1.000  F
  C13      1.0000 0.07480  0.21490  0.38849  Biso   1.000  C
  C14      1.0000 0.92520  0.78510  0.61151  Biso   1.000  C
  C15      1.0000 0.03470  0.30920  0.37388  Biso   1.000  C
  C16      1.0000 0.96530  0.69080  0.62612  Biso   1.000  C
  H3       1.0000 0.99150  0.33290  0.40790  Biso   1.000  H
  H4       1.0000 0.00850  0.66710  0.59210  Biso   1.000  H
  C17      1.0000 0.05590  0.37010  0.31071  Biso   1.000  C
  C18      1.0000 0.94410  0.62990  0.68929  Biso   1.000  C
  O7       1.0000 0.11342  0.35249  0.26026  Biso   1.000  O
  O8       1.0000 0.88658  0.64751  0.73974  Biso   1.000  O
  O9       1.0000 0.31929  0.12536  0.27678  Biso   1.000  O
  O10      1.0000 0.68071  0.87464  0.72322  Biso   1.000  O
  C19      1.0000 0.46290  0.01690  0.25730  Biso   1.000  C
  C20      1.0000 0.53710  0.98310  0.74270  Biso   1.000  C
  F19      1.0000 0.55150  0.01070  0.22310  Biso   1.000  F
  F20      1.0000 0.44850  0.98930  0.77690  Biso   1.000  F
  F21      1.0000 0.42210  0.95820  0.26330  Biso   1.000  F
  F22      1.0000 0.57790  0.04180  0.73670  Biso   1.000  F
  F23      1.0000 0.48990  0.00690  0.32240  Biso   1.000  F
  F24      1.0000 0.51010  0.99310  0.67760  Biso   1.000  F
  C21      1.0000 0.39370  0.11240  0.23436  Biso   1.000  C
  C22      1.0000 0.60630  0.88760  0.76564  Biso   1.000  C
  C23      1.0000 0.42010  0.17180  0.17146  Biso   1.000  C
  C24      1.0000 0.57990  0.82820  0.82854  Biso   1.000  C
  H5       1.0000 0.47910  0.15190  0.14450  Biso   1.000  H
  H6       1.0000 0.52090  0.84810  0.85550  Biso   1.000  H
  C25      1.0000 0.36320  0.25880  0.14694  Biso   1.000  C
  C26      1.0000 0.63680  0.74120  0.85306  Biso   1.000  C
  C27      1.0000 0.39320  0.31600  0.07480  Biso   1.000  C
  C28      1.0000 0.60680  0.68400  0.92520  Biso   1.000  C
  F25      1.0000 0.38550  0.41440  0.07300  Biso   1.000  F
  F26      1.0000 0.61450  0.58560  0.92700  Biso   1.000  F
  F27      1.0000 0.34290  0.30020  0.02840  Biso   1.000  F
  F28      1.0000 0.65710  0.69980  0.97160  Biso   1.000  F
  F29      1.0000 0.49780  0.30130  0.05460  Biso   1.000  F
  F30      1.0000 0.50220  0.69870  0.94540  Biso   1.000  F
  O11      1.0000 0.28514  0.29819  0.17579  Biso   1.000  O
  O12      1.0000 0.71486  0.70181  0.82421  Biso   1.000  O
  Cu4      1.0000 0.00000  0.00000  0.00000  Biso   1.000  Cu
  O13      1.0000 0.93322  0.92598  0.08887  Biso   1.000  O
  O14      1.0000 0.06678  0.07402  0.91113  Biso   1.000  O
  C29      1.0000 0.80450  0.88680  0.17730  Biso   1.000  C
  C30      1.0000 0.19550  0.11320  0.82270  Biso   1.000  C
  F31      1.0000 0.80950  0.96500  0.20470  Biso   1.000  F
  F32      1.0000 0.19050  0.03500  0.79530  Biso   1.000  F
  F33      1.0000 0.71550  0.85160  0.18750  Biso   1.000  F
  F34      1.0000 0.28450  0.14840  0.81250  Biso   1.000  F
  F35      1.0000 0.88020  0.82480  0.20810  Biso   1.000  F
  F36      1.0000 0.11980  0.17520  0.79190  Biso   1.000  F
  C31      1.0000 0.83600  0.91881  0.10088  Biso   1.000  C
  C32      1.0000 0.16400  0.08119  0.89912  Biso   1.000  C
  C33      1.0000 0.75920  0.93750  0.05549  Biso   1.000  C
  C34      1.0000 0.24080  0.06250  0.94451  Biso   1.000  C
  H7       1.0000 0.69030  0.92790  0.07300  Biso   1.000  H
  H8       1.0000 0.30970  0.07210  0.92700  Biso   1.000  H
  C35      1.0000 0.77840  0.97000  0.98454  Biso   1.000  C
  C36      1.0000 0.22160  0.03000  0.01546  Biso   1.000  C
  C37      1.0000 0.68440  0.98820  0.94000  Biso   1.000  C
  C38      1.0000 0.31560  0.01180  0.06000  Biso   1.000  C
  F37      1.0000 0.61940  0.92850  0.96120  Biso   1.000  F
  F38      1.0000 0.38060  0.07150  0.03880  Biso   1.000  F
  F39      1.0000 0.62260  0.06900  0.95120  Biso   1.000  F
  F40      1.0000 0.37740  0.93100  0.04880  Biso   1.000  F
  F41      1.0000 0.70130  0.01050  0.87630  Biso   1.000  F
  F42      1.0000 0.29870  0.98950  0.12370  Biso   1.000  F
  O15      1.0000 0.86254  0.98787  0.95210  Biso   1.000  O
  O16      1.0000 0.13746  0.01213  0.04790  Biso   1.000  O
  O17      1.0000 0.55774  0.49550  0.38522  Biso   1.000  O
  O18      1.0000 0.44226  0.50450  0.61478  Biso   1.000  O
  N1       1.0000 0.52306  0.54228  0.32674  Biso   1.000  N
  N2       1.0000 0.47694  0.45772  0.67326  Biso   1.000  N
  C39      1.0000 0.57220  0.62500  0.28159  Biso   1.000  C
  C40      1.0000 0.42780  0.37500  0.71841  Biso   1.000  C
  C41      1.0000 0.67750  0.58220  0.25363  Biso   1.000  C
  C42      1.0000 0.32250  0.41780  0.74637  Biso   1.000  C
  H9       1.0000 0.66590  0.54140  0.22580  Biso   1.000  H
  H10      1.0000 0.33410  0.45860  0.77420  Biso   1.000  H
  H11      1.0000 0.71880  0.54610  0.29160  Biso   1.000  H
  H12      1.0000 0.28120  0.45390  0.70840  Biso   1.000  H
  H13      1.0000 0.71510  0.63180  0.22560  Biso   1.000  H
  H14      1.0000 0.28490  0.36820  0.77440  Biso   1.000  H
  C43      1.0000 0.58810  0.69030  0.32503  Biso   1.000  C
  C44      1.0000 0.41190  0.30970  0.67497  Biso   1.000  C
  H15      1.0000 0.64140  0.65930  0.35700  Biso   1.000  H
  H16      1.0000 0.35860  0.34070  0.64300  Biso   1.000  H
  H17      1.0000 0.52230  0.70600  0.35050  Biso   1.000  H
  H18      1.0000 0.47770  0.29400  0.64950  Biso   1.000  H
  H19      1.0000 0.61050  0.74720  0.29530  Biso   1.000  H
  H20      1.0000 0.38950  0.25280  0.70470  Biso   1.000  H
  C45      1.0000 0.48970  0.66570  0.22737  Biso   1.000  C
  C46      1.0000 0.51030  0.33430  0.77263  Biso   1.000  C
  C47      1.0000 0.40070  0.73710  0.24860  Biso   1.000  C
  C48      1.0000 0.59930  0.26290  0.75140  Biso   1.000  C
  H21      1.0000 0.37360  0.71170  0.29540  Biso   1.000  H
  H22      1.0000 0.62640  0.28830  0.70460  Biso   1.000  H
  H23      1.0000 0.34460  0.74980  0.21780  Biso   1.000  H
  H24      1.0000 0.65540  0.25020  0.78220  Biso   1.000  H
  H25      1.0000 0.42780  0.79490  0.24590  Biso   1.000  H
  H26      1.0000 0.57220  0.20510  0.75410  Biso   1.000  H
  C49      1.0000 0.53360  0.70310  0.15484  Biso   1.000  C
  C50      1.0000 0.46640  0.29690  0.84516  Biso   1.000  C
  H27      1.0000 0.58950  0.65710  0.14250  Biso   1.000  H
  H28      1.0000 0.41050  0.34290  0.85750  Biso   1.000  H
  H29      1.0000 0.56140  0.76070  0.15170  Biso   1.000  H
  H30      1.0000 0.43860  0.23930  0.84830  Biso   1.000  H
  H31      1.0000 0.47820  0.71560  0.12360  Biso   1.000  H
  H32      1.0000 0.52180  0.28440  0.87640  Biso   1.000  H
  N3       1.0000 0.43850  0.58038  0.23287  Biso   1.000  N
  N4       1.0000 0.56150  0.41962  0.76713  Biso   1.000  N
  O19      1.0000 0.37750  0.57759  0.18826  Biso   1.000  O
  O20      1.0000 0.62250  0.42241  0.81174  Biso   1.000  O
  C51      1.0000 0.45470  0.51557  0.29301  Biso   1.000  C
  C52      1.0000 0.54530  0.48443  0.70699  Biso   1.000  C
  C53      1.0000 0.40890  0.43067  0.31602  Biso   1.000  C
  C54      1.0000 0.59110  0.56933  0.68398  Biso   1.000  C
  C55      1.0000 0.33900  0.39843  0.28205  Biso   1.000  C
  C56      1.0000 0.66100  0.60157  0.71795  Biso   1.000  C
  H33      1.0000 0.31030  0.43260  0.24050  Biso   1.000  H
  H34      1.0000 0.68970  0.56740  0.75950  Biso   1.000  H
  N5       1.0000 0.31860  0.31351  0.31617  Biso   1.000  N
  N6       1.0000 0.68140  0.68649  0.68383  Biso   1.000  N
  N7       1.0000 0.37490  0.29071  0.37280  Biso   1.000  N
  N8       1.0000 0.62510  0.70929  0.62720  Biso   1.000  N
  C57      1.0000 0.37350  0.19930  0.42319  Biso   1.000  C
  C58      1.0000 0.62650  0.80070  0.57681  Biso   1.000  C
  H35      1.0000 0.44600  0.16840  0.42960  Biso   1.000  H
  H36      1.0000 0.55400  0.83160  0.57040  Biso   1.000  H
  H37      1.0000 0.33710  0.15960  0.40470  Biso   1.000  H
  H38      1.0000 0.66290  0.84040  0.59530  Biso   1.000  H
  C59      1.0000 0.32080  0.20720  0.49106  Biso   1.000  C
  C60      1.0000 0.67920  0.79280  0.50894  Biso   1.000  C
  H39      1.0000 0.24650  0.23290  0.48550  Biso   1.000  H
  H40      1.0000 0.75350  0.76710  0.51450  Biso   1.000  H
  H41      1.0000 0.35340  0.25080  0.50810  Biso   1.000  H
  H42      1.0000 0.64660  0.74920  0.49190  Biso   1.000  H
  C61      1.0000 0.32860  0.11220  0.54378  Biso   1.000  C
  C62      1.0000 0.67140  0.88780  0.45622  Biso   1.000  C
  H43      1.0000 0.40280  0.08840  0.55150  Biso   1.000  H
  H44      1.0000 0.59720  0.91160  0.44850  Biso   1.000  H
  H45      1.0000 0.30020  0.06750  0.52540  Biso   1.000  H
  H46      1.0000 0.69980  0.93250  0.47460  Biso   1.000  H
  C63      1.0000 0.26840  0.11880  0.61250  Biso   1.000  C
  C64      1.0000 0.73160  0.88120  0.38750  Biso   1.000  C
  H47      1.0000 0.27560  0.05740  0.64450  Biso   1.000  H
  H48      1.0000 0.72440  0.94260  0.35550  Biso   1.000  H
  H49      1.0000 0.19460  0.14090  0.60520  Biso   1.000  H
  H50      1.0000 0.80540  0.85910  0.39480  Biso   1.000  H
  H51      1.0000 0.29700  0.16230  0.63120  Biso   1.000  H
  H52      1.0000 0.70300  0.83770  0.36880  Biso   1.000  H
  C65      1.0000 0.42890  0.35920  0.37433  Biso   1.000  C
  C66      1.0000 0.57110  0.64080  0.62567  Biso   1.000  C
  H53      1.0000 0.47240  0.35870  0.40880  Biso   1.000  H
  H54      1.0000 0.52760  0.64130  0.59120  Biso   1.000  H
  O21      1.0000 0.90781  0.10984  0.02961  Biso   1.000  O
  O22      1.0000 0.09219  0.89016  0.97039  Biso   1.000  O
  N9       1.0000 0.92384  0.19758  0.00759  Biso   1.000  N
  N10      1.0000 0.07616  0.80242  0.99241  Biso   1.000  N
  C67      1.0000 0.86270  0.26760  0.95255  Biso   1.000  C
  C68      1.0000 0.13730  0.73240  0.04745  Biso   1.000  C
  C69      1.0000 0.75250  0.29060  0.98675  Biso   1.000  C
  C70      1.0000 0.24750  0.70940  0.01325  Biso   1.000  C
  H55      1.0000 0.71530  0.23690  0.99550  Biso   1.000  H
  H56      1.0000 0.28470  0.76310  0.00450  Biso   1.000  H
  H57      1.0000 0.71360  0.34400  0.95640  Biso   1.000  H
  H58      1.0000 0.28640  0.65600  0.04360  Biso   1.000  H
  H59      1.0000 0.75900  0.30550  0.02990  Biso   1.000  H
  H60      1.0000 0.24100  0.69450  0.97010  Biso   1.000  H
  C71      1.0000 0.85330  0.22770  0.89158  Biso   1.000  C
  C72      1.0000 0.14670  0.77230  0.10842  Biso   1.000  C
  H61      1.0000 0.80950  0.17820  0.90590  Biso   1.000  H
  H62      1.0000 0.19050  0.82180  0.09410  Biso   1.000  H
  H63      1.0000 0.92270  0.20250  0.87530  Biso   1.000  H
  H64      1.0000 0.07730  0.79750  0.12470  Biso   1.000  H
  H65      1.0000 0.82180  0.27710  0.85480  Biso   1.000  H
  H66      1.0000 0.17820  0.72290  0.14520  Biso   1.000  H
  C73      1.0000 0.93110  0.34790  0.93596  Biso   1.000  C
  C74      1.0000 0.06890  0.65210  0.06404  Biso   1.000  C
  C75      1.0000 0.02440  0.33540  0.88391  Biso   1.000  C
  C76      1.0000 0.97560  0.66460  0.11609  Biso   1.000  C
  H67      1.0000 0.06380  0.38770  0.87560  Biso   1.000  H
  H68      1.0000 0.93620  0.61230  0.12440  Biso   1.000  H
  H69      1.0000 0.99880  0.33320  0.84110  Biso   1.000  H
  H70      1.0000 0.00120  0.66680  0.15890  Biso   1.000  H
  H71      1.0000 0.06980  0.27730  0.90200  Biso   1.000  H
  H72      1.0000 0.93020  0.72270  0.09800  Biso   1.000  H
  C77      1.0000 0.87010  0.44660  0.91723  Biso   1.000  C
  C78      1.0000 0.12990  0.55340  0.08277  Biso   1.000  C
  H73      1.0000 0.81150  0.45210  0.95100  Biso   1.000  H
  H74      1.0000 0.18850  0.54790  0.04900  Biso   1.000  H
  H75      1.0000 0.84390  0.45860  0.87210  Biso   1.000  H
  H76      1.0000 0.15610  0.54140  0.12790  Biso   1.000  H
  H77      1.0000 0.91630  0.49190  0.91670  Biso   1.000  H
  H78      1.0000 0.08370  0.50810  0.08330  Biso   1.000  H
  N11      1.0000 0.97810  0.32969  0.00325  Biso   1.000  N
  N12      1.0000 0.02190  0.67031  0.99675  Biso   1.000  N
  O23      1.0000 0.02650  0.38872  0.01762  Biso   1.000  O
  O24      1.0000 0.97350  0.61128  0.98238  Biso   1.000  O
  C79      1.0000 0.97820  0.23933  0.04016  Biso   1.000  C
  C80      1.0000 0.02180  0.76067  0.95984  Biso   1.000  C
  C81      1.0000 0.02680  0.19890  0.10384  Biso   1.000  C
  C82      1.0000 0.97320  0.80110  0.89616  Biso   1.000  C
  C83      1.0000 0.08550  0.24190  0.13787  Biso   1.000  C
  C84      1.0000 0.91450  0.75810  0.86213  Biso   1.000  C
  H79      1.0000 0.10130  0.30340  0.12100  Biso   1.000  H
  H80      1.0000 0.89870  0.69660  0.87900  Biso   1.000  H
  N13      1.0000 0.11597  0.18456  0.19681  Biso   1.000  N
  N14      1.0000 0.88403  0.81544  0.80319  Biso   1.000  N
  N15      1.0000 0.07746  0.10346  0.20062  Biso   1.000  N
  N16      1.0000 0.92254  0.89654  0.79938  Biso   1.000  N
  C85      1.0000 0.09640  0.02510  0.26118  Biso   1.000  C
  C86      1.0000 0.90360  0.97490  0.73882  Biso   1.000  C
  H81      1.0000 0.16920  0.02060  0.27260  Biso   1.000  H
  H82      1.0000 0.83080  0.97940  0.72740  Biso   1.000  H
  H83      1.0000 0.05040  0.04000  0.30000  Biso   1.000  H
  H84      1.0000 0.94960  0.96000  0.70000  Biso   1.000  H
  C87      1.0000 0.08010  0.93420  0.25522  Biso   1.000  C
  C88      1.0000 0.91990  0.06580  0.74478  Biso   1.000  C
  H85      1.0000 0.12590  0.91900  0.21650  Biso   1.000  H
  H86      1.0000 0.87410  0.08100  0.78350  Biso   1.000  H
  H87      1.0000 0.00720  0.93830  0.24430  Biso   1.000  H
  H88      1.0000 0.99280  0.06170  0.75570  Biso   1.000  H
  C89      1.0000 0.10060  0.85550  0.31785  Biso   1.000  C
  C90      1.0000 0.89940  0.14450  0.68215  Biso   1.000  C
  H89      1.0000 0.17390  0.85140  0.32800  Biso   1.000  H
  H90      1.0000 0.82610  0.14860  0.67200  Biso   1.000  H
  H91      1.0000 0.05600  0.87220  0.35660  Biso   1.000  H
  H92      1.0000 0.94400  0.12780  0.64340  Biso   1.000  H
  C91      1.0000 0.08290  0.76180  0.31510  Biso   1.000  C
  C92      1.0000 0.91710  0.23820  0.68490  Biso   1.000  C
  H93      1.0000 0.10010  0.71700  0.35820  Biso   1.000  H
  H94      1.0000 0.89990  0.28300  0.64180  Biso   1.000  H
  H95      1.0000 0.12730  0.74320  0.27760  Biso   1.000  H
  H96      1.0000 0.87270  0.25680  0.72240  Biso   1.000  H
  H97      1.0000 0.00970  0.76330  0.30770  Biso   1.000  H
  H98      1.0000 0.99030  0.23670  0.69230  Biso   1.000  H
  C93      1.0000 0.02320  0.11010  0.14627  Biso   1.000  C
  C94      1.0000 0.97680  0.88990  0.85373  Biso   1.000  C
  H99      1.0000 0.98920  0.06330  0.13850  Biso   1.000  H
  H100     1.0000 0.01080  0.93670  0.86150  Biso   1.000  H
  F43      1.0000 0.09900  0.54610  0.48010  Biso   1.000  F
  F44      1.0000 0.90100  0.45390  0.51990  Biso   1.000  F
  F45      1.0000 0.18950  0.44510  0.43590  Biso   1.000  F
  F46      1.0000 0.81050  0.55490  0.56410  Biso   1.000  F
  F47      1.0000 0.40190  0.80410  0.50670  Biso   1.000  F
  F48      1.0000 0.59810  0.19590  0.49330  Biso   1.000  F
  F49      1.0000 0.36360  0.82050  0.40340  Biso   1.000  F
  F50      1.0000 0.63640  0.17950  0.59660  Biso   1.000  F
  F51      1.0000 0.24830  0.82110  0.48050  Biso   1.000  F
  F52      1.0000 0.75170  0.17890  0.51950  Biso   1.000  F
  F53      1.0000 0.97380  0.19600  0.49420  Biso   1.000  F
  F54      1.0000 0.02620  0.80400  0.50580  Biso   1.000  F
  F55      1.0000 0.97850  0.09380  0.43270  Biso   1.000  F
  F56      1.0000 0.02150  0.90620  0.56730  Biso   1.000  F
  F57      1.0000 0.11000  0.08490  0.49000  Biso   1.000  F
  F58      1.0000 0.89000  0.91510  0.51000  Biso   1.000  F
  C95      1.0000 0.06220  0.52630  0.28770  Biso   1.000  C
  C96      1.0000 0.93780  0.47370  0.71230  Biso   1.000  C
  F59      1.0000 0.07850  0.53240  0.27460  Biso   1.000  F
  F60      1.0000 0.92150  0.46760  0.72540  Biso   1.000  F
  F61      1.0000 0.94270  0.49260  0.24270  Biso   1.000  F
  F62      1.0000 0.05730  0.50740  0.75730  Biso   1.000  F
  F63      1.0000 0.96360  0.49750  0.35130  Biso   1.000  F
  F64      1.0000 0.03640  0.50250  0.64870  Biso   1.000  F
  F65      1.0000 0.00380  0.47220  0.29760  Biso   1.000  F
  F66      1.0000 0.99620  0.52780  0.70240  Biso   1.000  F
  F67      1.0000 0.92150  0.48060  0.35110  Biso   1.000  F
  F68      1.0000 0.07850  0.51940  0.64890  Biso   1.000  F
  F69      1.0000 0.93830  0.49130  0.25350  Biso   1.000  F
  F70      1.0000 0.06170  0.50870  0.74650  Biso   1.000  F
  F71      1.0000 0.50380  0.98300  0.19760  Biso   1.000  F
  F72      1.0000 0.49620  0.01700  0.80240  Biso   1.000  F
  F73      1.0000 0.39000  0.94470  0.27530  Biso   1.000  F
  F74      1.0000 0.61000  0.05530  0.72470  Biso   1.000  F
  F75      1.0000 0.52580  0.00910  0.29450  Biso   1.000  F
  F76      1.0000 0.47420  0.99090  0.70550  Biso   1.000  F
  F77      1.0000 0.31920  0.31620  0.03390  Biso   1.000  F
  F78      1.0000 0.68080  0.68380  0.96610  Biso   1.000  F
  F79      1.0000 0.47650  0.27220  0.04660  Biso   1.000  F
  F80      1.0000 0.52350  0.72780  0.95340  Biso   1.000  F
  F81      1.0000 0.39460  0.39310  0.06740  Biso   1.000  F
  F82      1.0000 0.60540  0.60690  0.93260  Biso   1.000  F
  F83      1.0000 0.80630  0.93620  0.21410  Biso   1.000  F
  F84      1.0000 0.19370  0.06380  0.78590  Biso   1.000  F
  F85      1.0000 0.70700  0.87560  0.19620  Biso   1.000  F
  F86      1.0000 0.29300  0.12440  0.80380  Biso   1.000  F
  F87      1.0000 0.85330  0.80230  0.20920  Biso   1.000  F
  F88      1.0000 0.14670  0.19770  0.79080  Biso   1.000  F
  F89      1.0000 0.60400  0.95540  0.96820  Biso   1.000  F
  F90      1.0000 0.39600  0.04460  0.03180  Biso   1.000  F
  F91      1.0000 0.65950  0.07240  0.91230  Biso   1.000  F
  F92      1.0000 0.34050  0.92760  0.08770  Biso   1.000  F
  F93      1.0000 0.71640  0.93890  0.89140  Biso   1.000  F
  F94      1.0000 0.28360  0.06110  0.10860  Biso   1.000  F
  C97      1.0000 0.19150  0.83040  0.74410  Biso   1.000  C
  C98      1.0000 0.80850  0.16960  0.25590  Biso   1.000  C
  H101     1.0000 0.19410  0.88290  0.70390  Biso   1.000  H
  H102     1.0000 0.80590  0.11710  0.29610  Biso   1.000  H
  H103     1.0000 0.20410  0.84960  0.78440  Biso   1.000  H
  H104     1.0000 0.79590  0.15040  0.21560  Biso   1.000  H
  H105     1.0000 0.12270  0.81030  0.75030  Biso   1.000  H
  H106     1.0000 0.87730  0.18970  0.24970  Biso   1.000  H
  C99      1.0000 0.23430  0.72480  0.67530  Biso   1.000  C
  C100     1.0000 0.76570  0.27520  0.32470  Biso   1.000  C
  H107     1.0000 0.27200  0.66340  0.67380  Biso   1.000  H
  H108     1.0000 0.72800  0.33660  0.32620  Biso   1.000  H
  H109     1.0000 0.24910  0.76970  0.63230  Biso   1.000  H
  H110     1.0000 0.75090  0.23030  0.36770  Biso   1.000  H
  H111     1.0000 0.15930  0.72180  0.68210  Biso   1.000  H
  H112     1.0000 0.84070  0.27820  0.31790  Biso   1.000  H
  C101     1.0000 0.36710  0.79060  0.70300  Biso   1.000  C
  C102     1.0000 0.63290  0.20940  0.29700  Biso   1.000  C
  H113     1.0000 0.40490  0.74910  0.67590  Biso   1.000  H
  H114     1.0000 0.59510  0.25090  0.32410  Biso   1.000  H
  H115     1.0000 0.41040  0.79290  0.73860  Biso   1.000  H
  H116     1.0000 0.58960  0.20710  0.26140  Biso   1.000  H
  H117     1.0000 0.35060  0.85300  0.67350  Biso   1.000  H
  H118     1.0000 0.64940  0.14700  0.32650  Biso   1.000  H
  C103     1.0000 0.26960  0.75530  0.73480  Biso   1.000  C
  C104     1.0000 0.73040  0.24470  0.26520  Biso   1.000  C
  C105     1.0000 0.27450  0.67150  0.79540  Biso   1.000  C
  C106     1.0000 0.72550  0.32850  0.20460  Biso   1.000  C
  C107     1.0000 0.36890  0.62890  0.82240  Biso   1.000  C
  C108     1.0000 0.63110  0.37110  0.17760  Biso   1.000  C
  H119     1.0000 0.43070  0.65340  0.80220  Biso   1.000  H
  H120     1.0000 0.56930  0.34660  0.19780  Biso   1.000  H
  C109     1.0000 0.37630  0.54960  0.87950  Biso   1.000  C
  C110     1.0000 0.62370  0.45040  0.12050  Biso   1.000  C
  H121     1.0000 0.44080  0.52120  0.89810  Biso   1.000  H
  H122     1.0000 0.55920  0.47880  0.10190  Biso   1.000  H
  C111     1.0000 0.28720  0.51830  0.90480  Biso   1.000  C
  C112     1.0000 0.71280  0.48170  0.09520  Biso   1.000  C
  H123     1.0000 0.29100  0.46440  0.94170  Biso   1.000  H
  H124     1.0000 0.70900  0.53560  0.05830  Biso   1.000  H
  C113     1.0000 0.19120  0.55560  0.88310  Biso   1.000  C
  C114     1.0000 0.80880  0.44440  0.11690  Biso   1.000  C
  H125     1.0000 0.13060  0.53000  0.90460  Biso   1.000  H
  H126     1.0000 0.86940  0.47000  0.09540  Biso   1.000  H
  C115     1.0000 0.18540  0.63350  0.82780  Biso   1.000  C
  C116     1.0000 0.81460  0.36650  0.17220  Biso   1.000  C
  H127     1.0000 0.11930  0.66140  0.81160  Biso   1.000  H
  H128     1.0000 0.88070  0.33860  0.18840  Biso   1.000  H
