data_image0
_cell_length_a       12.8295
_cell_length_b       14.8268
_cell_length_c       20.085
_cell_angle_alpha    74.542
_cell_angle_beta     83.687
_cell_angle_gamma    80.071

_symmetry_space_group_name_H-M    "P 1"
_symmetry_int_tables_number       1

loop_
  _symmetry_equiv_pos_as_xyz
  'x, y, z'

loop_
  _atom_site_label
  _atom_site_occupancy
  _atom_site_fract_x
  _atom_site_fract_y
  _atom_site_fract_z
  _atom_site_thermal_displace_type
  _atom_site_B_iso_or_equiv
  _atom_site_type_symbol
  Cu1      1.0000 0.50000  0.50000  0.50000  Biso   1.000  Cu
  O1       1.0000 0.35856  0.47589  0.49071  Biso   1.000  O
  O2       1.0000 0.64144  0.52411  0.50929  Biso   1.000  O
  C1       1.0000 0.17600  0.49560  0.48241  Biso   1.000  C
  C2       1.0000 0.82400  0.50440  0.51759  Biso   1.000  C
  F1       1.0000 0.16685  0.42130  0.53577  Biso   1.000  F
  F2       1.0000 0.83315  0.57870  0.46423  Biso   1.000  F
  F3       1.0000 0.08050  0.56550  0.48780  Biso   1.000  F
  F4       1.0000 0.91950  0.43450  0.51220  Biso   1.000  F
  F5       1.0000 0.17400  0.47800  0.41970  Biso   1.000  F
  F6       1.0000 0.82600  0.52200  0.58030  Biso   1.000  F
  C3       1.0000 0.27650  0.53714  0.48431  Biso   1.000  C
  C4       1.0000 0.72350  0.46286  0.51569  Biso   1.000  C
  C5       1.0000 0.26910  0.63303  0.47811  Biso   1.000  C
  C6       1.0000 0.73090  0.36697  0.52189  Biso   1.000  C
  H1       1.0000 0.20120  0.67100  0.47490  Biso   1.000  H
  H2       1.0000 0.79880  0.32900  0.52510  Biso   1.000  H
  C7       1.0000 0.35760  0.67544  0.47651  Biso   1.000  C
  C8       1.0000 0.64240  0.32456  0.52349  Biso   1.000  C
  C9       1.0000 0.34360  0.78270  0.46609  Biso   1.000  C
  C10      1.0000 0.65640  0.21730  0.53391  Biso   1.000  C
  F7       1.0000 0.38590  0.80210  0.51560  Biso   1.000  F
  F8       1.0000 0.61410  0.19790  0.48440  Biso   1.000  F
  F9       1.0000 0.39520  0.82140  0.40830  Biso   1.000  F
  F10      1.0000 0.60480  0.17860  0.59170  Biso   1.000  F
  F11      1.0000 0.24860  0.82570  0.46510  Biso   1.000  F
  F12      1.0000 0.75140  0.17430  0.53490  Biso   1.000  F
  O3       1.0000 0.45319  0.63640  0.48093  Biso   1.000  O
  O4       1.0000 0.54681  0.36360  0.51907  Biso   1.000  O
  Cu2      1.0000 0.21394  0.23553  0.26570  Biso   1.000  Cu
  Cu3      1.0000 0.78606  0.76447  0.73430  Biso   1.000  Cu
  O5       1.0000 0.14086  0.17146  0.35368  Biso   1.000  O
  O6       1.0000 0.85914  0.82854  0.64632  Biso   1.000  O
  C11      1.0000 0.03560  0.14910  0.45701  Biso   1.000  C
  C12      1.0000 0.96440  0.85090  0.54299  Biso   1.000  C
  F13      1.0000 0.99428  0.19609  0.50406  Biso   1.000  F
  F14      1.0000 0.00572  0.80391  0.49594  Biso   1.000  F
  F15      1.0000 0.95720  0.11530  0.44940  Biso   1.000  F
  F16      1.0000 0.04280  0.88470  0.55060  Biso   1.000  F
  F17      1.0000 0.10840  0.07520  0.48300  Biso   1.000  F
  F18      1.0000 0.89160  0.92480  0.51700  Biso   1.000  F
  C13      1.0000 0.07680  0.21454  0.39013  Biso   1.000  C
  C14      1.0000 0.92320  0.78546  0.60987  Biso   1.000  C
  C15      1.0000 0.03730  0.31049  0.37589  Biso   1.000  C
  C16      1.0000 0.96270  0.68951  0.62411  Biso   1.000  C
  H3       1.0000 0.99580  0.33520  0.41100  Biso   1.000  H
  H4       1.0000 0.00420  0.66480  0.58900  Biso   1.000  H
  C17      1.0000 0.05688  0.37074  0.31207  Biso   1.000  C
  C18      1.0000 0.94312  0.62926  0.68793  Biso   1.000  C
  C19      1.0000 0.00460  0.47420  0.29869  Biso   1.000  C
  C20      1.0000 0.99540  0.52580  0.70131  Biso   1.000  C
  F19      1.0000 0.07701  0.53219  0.27793  Biso   1.000  F
  F20      1.0000 0.92299  0.46781  0.72207  Biso   1.000  F
  F21      1.0000 0.93860  0.48990  0.24070  Biso   1.000  F
  F22      1.0000 0.06140  0.51010  0.75930  Biso   1.000  F
  F23      1.0000 0.94130  0.48680  0.35470  Biso   1.000  F
  F24      1.0000 0.05870  0.51320  0.64530  Biso   1.000  F
  O7       1.0000 0.11134  0.35227  0.26004  Biso   1.000  O
  O8       1.0000 0.88866  0.64773  0.73996  Biso   1.000  O
  O9       1.0000 0.32174  0.12348  0.27833  Biso   1.000  O
  O10      1.0000 0.67826  0.87652  0.72167  Biso   1.000  O
  C21      1.0000 0.47110  0.01780  0.26080  Biso   1.000  C
  C22      1.0000 0.52890  0.98220  0.73920  Biso   1.000  C
  F25      1.0000 0.57040  0.01860  0.23180  Biso   1.000  F
  F26      1.0000 0.42960  0.98140  0.76820  Biso   1.000  F
  F27      1.0000 0.43560  0.95290  0.26140  Biso   1.000  F
  F28      1.0000 0.56440  0.04710  0.73860  Biso   1.000  F
  F29      1.0000 0.49800  0.00960  0.32990  Biso   1.000  F
  F30      1.0000 0.50200  0.99040  0.67010  Biso   1.000  F
  C23      1.0000 0.39980  0.11279  0.23641  Biso   1.000  C
  C24      1.0000 0.60020  0.88721  0.76359  Biso   1.000  C
  C25      1.0000 0.42730  0.17239  0.17393  Biso   1.000  C
  C26      1.0000 0.57270  0.82761  0.82607  Biso   1.000  C
  H5       1.0000 0.49000  0.15370  0.14800  Biso   1.000  H
  H6       1.0000 0.51000  0.84630  0.85200  Biso   1.000  H
  C27      1.0000 0.36550  0.25961  0.14766  Biso   1.000  C
  C28      1.0000 0.63450  0.74039  0.85234  Biso   1.000  C
  C29      1.0000 0.39560  0.31500  0.07441  Biso   1.000  C
  C30      1.0000 0.60440  0.68500  0.92559  Biso   1.000  C
  F31      1.0000 0.38734  0.40733  0.07116  Biso   1.000  F
  F32      1.0000 0.61266  0.59267  0.92884  Biso   1.000  F
  F33      1.0000 0.34100  0.30170  0.02830  Biso   1.000  F
  F34      1.0000 0.65900  0.69830  0.97170  Biso   1.000  F
  F35      1.0000 0.49670  0.29340  0.05890  Biso   1.000  F
  F36      1.0000 0.50330  0.70660  0.94110  Biso   1.000  F
  O11      1.0000 0.28451  0.29789  0.17561  Biso   1.000  O
  O12      1.0000 0.71549  0.70211  0.82439  Biso   1.000  O
  Cu4      1.0000 0.00000  0.00000  0.00000  Biso   1.000  Cu
  O13      1.0000 0.93188  0.92443  0.08409  Biso   1.000  O
  O14      1.0000 0.06812  0.07557  0.91591  Biso   1.000  O
  C31      1.0000 0.80230  0.88800  0.17405  Biso   1.000  C
  C32      1.0000 0.19770  0.11200  0.82595  Biso   1.000  C
  F37      1.0000 0.79980  0.96420  0.20330  Biso   1.000  F
  F38      1.0000 0.20020  0.03580  0.79670  Biso   1.000  F
  F39      1.0000 0.70930  0.85580  0.18420  Biso   1.000  F
  F40      1.0000 0.29070  0.14420  0.81580  Biso   1.000  F
  F41      1.0000 0.87164  0.81681  0.20703  Biso   1.000  F
  F42      1.0000 0.12836  0.18319  0.79297  Biso   1.000  F
  C33      1.0000 0.83350  0.91837  0.09689  Biso   1.000  C
  C34      1.0000 0.16650  0.08163  0.90311  Biso   1.000  C
  C35      1.0000 0.75460  0.93686  0.05197  Biso   1.000  C
  C36      1.0000 0.24540  0.06314  0.94803  Biso   1.000  C
  H7       1.0000 0.68510  0.92590  0.07030  Biso   1.000  H
  H8       1.0000 0.31490  0.07410  0.92970  Biso   1.000  H
  C37      1.0000 0.77270  0.97149  0.97968  Biso   1.000  C
  C38      1.0000 0.22730  0.02851  0.02032  Biso   1.000  C
  C39      1.0000 0.67580  0.99180  0.93590  Biso   1.000  C
  C40      1.0000 0.32420  0.00820  0.06410  Biso   1.000  C
  F43      1.0000 0.61200  0.92940  0.95770  Biso   1.000  F
  F44      1.0000 0.38800  0.07060  0.04230  Biso   1.000  F
  F45      1.0000 0.61530  0.07230  0.94670  Biso   1.000  F
  F46      1.0000 0.38470  0.92770  0.05330  Biso   1.000  F
  F47      1.0000 0.69460  0.01130  0.87200  Biso   1.000  F
  F48      1.0000 0.30540  0.98870  0.12800  Biso   1.000  F
  O15      1.0000 0.85582  0.98947  0.94663  Biso   1.000  O
  O16      1.0000 0.14418  0.01053  0.05337  Biso   1.000  O
  O17      1.0000 0.55889  0.49499  0.38538  Biso   1.000  O
  O18      1.0000 0.44111  0.50501  0.61462  Biso   1.000  O
  N1       1.0000 0.52355  0.54198  0.32623  Biso   1.000  N
  N2       1.0000 0.47645  0.45802  0.67377  Biso   1.000  N
  C41      1.0000 0.57290  0.62463  0.28130  Biso   1.000  C
  C42      1.0000 0.42710  0.37537  0.71870  Biso   1.000  C
  C43      1.0000 0.68000  0.58183  0.25284  Biso   1.000  C
  C44      1.0000 0.32000  0.41817  0.74716  Biso   1.000  C
  H9       1.0000 0.66870  0.54030  0.22450  Biso   1.000  H
  H10      1.0000 0.33130  0.45970  0.77550  Biso   1.000  H
  H11      1.0000 0.72260  0.54510  0.29140  Biso   1.000  H
  H12      1.0000 0.27740  0.45490  0.70860  Biso   1.000  H
  H13      1.0000 0.71740  0.63270  0.22440  Biso   1.000  H
  H14      1.0000 0.28260  0.36730  0.77560  Biso   1.000  H
  C45      1.0000 0.58890  0.69047  0.32413  Biso   1.000  C
  C46      1.0000 0.41110  0.30953  0.67587  Biso   1.000  C
  H15      1.0000 0.64330  0.65890  0.35680  Biso   1.000  H
  H16      1.0000 0.35670  0.34110  0.64320  Biso   1.000  H
  H17      1.0000 0.52200  0.70710  0.34980  Biso   1.000  H
  H18      1.0000 0.47800  0.29290  0.65020  Biso   1.000  H
  H19      1.0000 0.61160  0.74810  0.29350  Biso   1.000  H
  H20      1.0000 0.38840  0.25190  0.70650  Biso   1.000  H
  C47      1.0000 0.48910  0.66580  0.22594  Biso   1.000  C
  C48      1.0000 0.51090  0.33420  0.77406  Biso   1.000  C
  C49      1.0000 0.39960  0.73827  0.24598  Biso   1.000  C
  C50      1.0000 0.60040  0.26173  0.75402  Biso   1.000  C
  H21      1.0000 0.37160  0.71300  0.29350  Biso   1.000  H
  H22      1.0000 0.62840  0.28700  0.70650  Biso   1.000  H
  H23      1.0000 0.34290  0.75120  0.21430  Biso   1.000  H
  H24      1.0000 0.65710  0.24880  0.78570  Biso   1.000  H
  H25      1.0000 0.42710  0.79700  0.24300  Biso   1.000  H
  H26      1.0000 0.57290  0.20300  0.75700  Biso   1.000  H
  C51      1.0000 0.53320  0.70233  0.15248  Biso   1.000  C
  C52      1.0000 0.46680  0.29767  0.84752  Biso   1.000  C
  H27      1.0000 0.59010  0.65480  0.14050  Biso   1.000  H
  H28      1.0000 0.40990  0.34520  0.85950  Biso   1.000  H
  H29      1.0000 0.56150  0.76100  0.14860  Biso   1.000  H
  H30      1.0000 0.43850  0.23900  0.85140  Biso   1.000  H
  H31      1.0000 0.47660  0.71480  0.12070  Biso   1.000  H
  H32      1.0000 0.52340  0.28520  0.87930  Biso   1.000  H
  N3       1.0000 0.43820  0.57955  0.23146  Biso   1.000  N
  N4       1.0000 0.56180  0.42045  0.76854  Biso   1.000  N
  O19      1.0000 0.37614  0.57649  0.18720  Biso   1.000  O
  O20      1.0000 0.62386  0.42351  0.81280  Biso   1.000  O
  C53      1.0000 0.45559  0.51469  0.29274  Biso   1.000  C
  C54      1.0000 0.54441  0.48531  0.70726  Biso   1.000  C
  C55      1.0000 0.40854  0.42919  0.31646  Biso   1.000  C
  C56      1.0000 0.59146  0.57081  0.68354  Biso   1.000  C
  C57      1.0000 0.33810  0.39759  0.28261  Biso   1.000  C
  C58      1.0000 0.66190  0.60241  0.71739  Biso   1.000  C
  H33      1.0000 0.30900  0.43240  0.24010  Biso   1.000  H
  H34      1.0000 0.69100  0.56760  0.75990  Biso   1.000  H
  N5       1.0000 0.31729  0.31231  0.31774  Biso   1.000  N
  N6       1.0000 0.68271  0.68769  0.68226  Biso   1.000  N
  N7       1.0000 0.37442  0.28899  0.37457  Biso   1.000  N
  N8       1.0000 0.62558  0.71101  0.62543  Biso   1.000  N
  C59      1.0000 0.37190  0.19796  0.42592  Biso   1.000  C
  C60      1.0000 0.62810  0.80204  0.57408  Biso   1.000  C
  H35      1.0000 0.44550  0.16570  0.43340  Biso   1.000  H
  H36      1.0000 0.55450  0.83430  0.56660  Biso   1.000  H
  H37      1.0000 0.33480  0.15740  0.40750  Biso   1.000  H
  H38      1.0000 0.66520  0.84260  0.59250  Biso   1.000  H
  C61      1.0000 0.31680  0.20871  0.49450  Biso   1.000  C
  C62      1.0000 0.68320  0.79129  0.50550  Biso   1.000  C
  H39      1.0000 0.24120  0.23520  0.48800  Biso   1.000  H
  H40      1.0000 0.75880  0.76480  0.51200  Biso   1.000  H
  H41      1.0000 0.34960  0.25380  0.51110  Biso   1.000  H
  H42      1.0000 0.65040  0.74620  0.48890  Biso   1.000  H
  C63      1.0000 0.32430  0.11440  0.54872  Biso   1.000  C
  C64      1.0000 0.67570  0.88560  0.45128  Biso   1.000  C
  H43      1.0000 0.29830  0.06760  0.53000  Biso   1.000  H
  H44      1.0000 0.70170  0.93240  0.47000  Biso   1.000  H
  H45      1.0000 0.39960  0.09120  0.55840  Biso   1.000  H
  H46      1.0000 0.60040  0.90880  0.44160  Biso   1.000  H
  C65      1.0000 0.26050  0.12170  0.61579  Biso   1.000  C
  C66      1.0000 0.73950  0.87830  0.38421  Biso   1.000  C
  H47      1.0000 0.26730  0.05940  0.64890  Biso   1.000  H
  H48      1.0000 0.73270  0.94060  0.35110  Biso   1.000  H
  H49      1.0000 0.18570  0.14390  0.60660  Biso   1.000  H
  H50      1.0000 0.81430  0.85610  0.39340  Biso   1.000  H
  H51      1.0000 0.28720  0.16660  0.63520  Biso   1.000  H
  H52      1.0000 0.71280  0.83340  0.36480  Biso   1.000  H
  C67      1.0000 0.42928  0.35729  0.37561  Biso   1.000  C
  C68      1.0000 0.57072  0.64271  0.62439  Biso   1.000  C
  H53      1.0000 0.47410  0.35670  0.41040  Biso   1.000  H
  H54      1.0000 0.52590  0.64330  0.58960  Biso   1.000  H
  O21      1.0000 0.90695  0.10839  0.02858  Biso   1.000  O
  O22      1.0000 0.09305  0.89161  0.97142  Biso   1.000  O
  N9       1.0000 0.92259  0.19704  0.00645  Biso   1.000  N
  N10      1.0000 0.07741  0.80296  0.99355  Biso   1.000  N
  C69      1.0000 0.86000  0.26755  0.95080  Biso   1.000  C
  C70      1.0000 0.14000  0.73245  0.04920  Biso   1.000  C
  C71      1.0000 0.74950  0.29037  0.98494  Biso   1.000  C
  C72      1.0000 0.25050  0.70963  0.01506  Biso   1.000  C
  H55      1.0000 0.71220  0.23560  0.99370  Biso   1.000  H
  H56      1.0000 0.28780  0.76440  0.00630  Biso   1.000  H
  H57      1.0000 0.70950  0.34490  0.95410  Biso   1.000  H
  H58      1.0000 0.29050  0.65510  0.04590  Biso   1.000  H
  H59      1.0000 0.75610  0.30530  0.02890  Biso   1.000  H
  H60      1.0000 0.24390  0.69470  0.97110  Biso   1.000  H
  C73      1.0000 0.85220  0.22773  0.88980  Biso   1.000  C
  C74      1.0000 0.14780  0.77227  0.11020  Biso   1.000  C
  H61      1.0000 0.80770  0.17740  0.90390  Biso   1.000  H
  H62      1.0000 0.19230  0.82260  0.09610  Biso   1.000  H
  H63      1.0000 0.92320  0.20190  0.87390  Biso   1.000  H
  H64      1.0000 0.07680  0.79810  0.12610  Biso   1.000  H
  H65      1.0000 0.82040  0.27820  0.85210  Biso   1.000  H
  H66      1.0000 0.17960  0.72180  0.14790  Biso   1.000  H
  C75      1.0000 0.92860  0.34878  0.93470  Biso   1.000  C
  C76      1.0000 0.07140  0.65122  0.06530  Biso   1.000  C
  C77      1.0000 0.02270  0.33642  0.88319  Biso   1.000  C
  C78      1.0000 0.97730  0.66358  0.11681  Biso   1.000  C
  H67      1.0000 0.06220  0.38970  0.87500  Biso   1.000  H
  H68      1.0000 0.93780  0.61030  0.12500  Biso   1.000  H
  H69      1.0000 0.99720  0.33430  0.83950  Biso   1.000  H
  H70      1.0000 0.00280  0.66570  0.16050  Biso   1.000  H
  H71      1.0000 0.06920  0.27720  0.90190  Biso   1.000  H
  H72      1.0000 0.93080  0.72280  0.09810  Biso   1.000  H
  C79      1.0000 0.86700  0.44838  0.91552  Biso   1.000  C
  C80      1.0000 0.13300  0.55162  0.08448  Biso   1.000  C
  H73      1.0000 0.80720  0.45420  0.94980  Biso   1.000  H
  H74      1.0000 0.19280  0.54580  0.05020  Biso   1.000  H
  H75      1.0000 0.84010  0.46070  0.86960  Biso   1.000  H
  H76      1.0000 0.15990  0.53930  0.13040  Biso   1.000  H
  H77      1.0000 0.91380  0.49440  0.91480  Biso   1.000  H
  H78      1.0000 0.08620  0.50560  0.08520  Biso   1.000  H
  N11      1.0000 0.97552  0.33040  0.00314  Biso   1.000  N
  N12      1.0000 0.02448  0.66960  0.99686  Biso   1.000  N
  O23      1.0000 0.02309  0.38968  0.01797  Biso   1.000  O
  O24      1.0000 0.97691  0.61032  0.98203  Biso   1.000  O
  C81      1.0000 0.97627  0.23883  0.03999  Biso   1.000  C
  C82      1.0000 0.02373  0.76117  0.96001  Biso   1.000  C
  C83      1.0000 0.02527  0.19802  0.10397  Biso   1.000  C
  C84      1.0000 0.97473  0.80198  0.89603  Biso   1.000  C
  C85      1.0000 0.08523  0.24069  0.13793  Biso   1.000  C
  C86      1.0000 0.91477  0.75931  0.86207  Biso   1.000  C
  H79      1.0000 0.10090  0.30340  0.12080  Biso   1.000  H
  H80      1.0000 0.89910  0.69660  0.87920  Biso   1.000  H
  N13      1.0000 0.11699  0.18267  0.19652  Biso   1.000  N
  N14      1.0000 0.88301  0.81733  0.80348  Biso   1.000  N
  N15      1.0000 0.07831  0.10096  0.20116  Biso   1.000  N
  N16      1.0000 0.92169  0.89904  0.79884  Biso   1.000  N
  C87      1.0000 0.10130  0.02121  0.26144  Biso   1.000  C
  C88      1.0000 0.89870  0.97879  0.73856  Biso   1.000  C
  H81      1.0000 0.06020  0.03690  0.30260  Biso   1.000  H
  H82      1.0000 0.93980  0.96310  0.69740  Biso   1.000  H
  H83      1.0000 0.17750  0.01350  0.26940  Biso   1.000  H
  H84      1.0000 0.82250  0.98650  0.73060  Biso   1.000  H
  C89      1.0000 0.07680  0.92994  0.25541  Biso   1.000  C
  C90      1.0000 0.92320  0.07006  0.74459  Biso   1.000  C
  H85      1.0000 0.11610  0.91460  0.21360  Biso   1.000  H
  H86      1.0000 0.88390  0.08540  0.78640  Biso   1.000  H
  H87      1.0000 0.00010  0.93640  0.24940  Biso   1.000  H
  H88      1.0000 0.99990  0.06360  0.75060  Biso   1.000  H
  C91      1.0000 0.10520  0.84989  0.31738  Biso   1.000  C
  C92      1.0000 0.89480  0.15011  0.68262  Biso   1.000  C
  H89      1.0000 0.18220  0.84320  0.32240  Biso   1.000  H
  H90      1.0000 0.81780  0.15680  0.67760  Biso   1.000  H
  H91      1.0000 0.06760  0.86690  0.35910  Biso   1.000  H
  H92      1.0000 0.93240  0.13310  0.64090  Biso   1.000  H
  C93      1.0000 0.07940  0.75590  0.31521  Biso   1.000  C
  C94      1.0000 0.92060  0.24410  0.68479  Biso   1.000  C
  H93      1.0000 0.09650  0.70920  0.35880  Biso   1.000  H
  H94      1.0000 0.90350  0.29080  0.64120  Biso   1.000  H
  H95      1.0000 0.12110  0.73520  0.27660  Biso   1.000  H
  H96      1.0000 0.87890  0.26480  0.72340  Biso   1.000  H
  H97      1.0000 0.00360  0.76180  0.30880  Biso   1.000  H
  H98      1.0000 0.99640  0.23820  0.69120  Biso   1.000  H
  C95      1.0000 0.02265  0.10758  0.14746  Biso   1.000  C
  C96      1.0000 0.97735  0.89242  0.85254  Biso   1.000  C
  H99      1.0000 0.98780  0.05980  0.14010  Biso   1.000  H
  H100     1.0000 0.01220  0.94020  0.85990  Biso   1.000  H
  F49      1.0000 0.09610  0.54920  0.48100  Biso   1.000  F
  F50      1.0000 0.90390  0.45080  0.51900  Biso   1.000  F
  F51      1.0000 0.18300  0.45690  0.43130  Biso   1.000  F
  F52      1.0000 0.81700  0.54310  0.56870  Biso   1.000  F
  F53      1.0000 0.40290  0.80900  0.50410  Biso   1.000  F
  F54      1.0000 0.59710  0.19100  0.49590  Biso   1.000  F
  F55      1.0000 0.36890  0.82480  0.40120  Biso   1.000  F
  F56      1.0000 0.63110  0.17520  0.59880  Biso   1.000  F
  F57      1.0000 0.24260  0.81970  0.47860  Biso   1.000  F
  F58      1.0000 0.75740  0.18030  0.52140  Biso   1.000  F
  F59      1.0000 0.96610  0.10000  0.43960  Biso   1.000  F
  F60      1.0000 0.03390  0.90000  0.56040  Biso   1.000  F
  F61      1.0000 0.11080  0.08970  0.48800  Biso   1.000  F
  F62      1.0000 0.88920  0.91030  0.51200  Biso   1.000  F
  F63      1.0000 0.95700  0.50230  0.35250  Biso   1.000  F
  F64      1.0000 0.04300  0.49770  0.64750  Biso   1.000  F
  F65      1.0000 0.93860  0.49960  0.25680  Biso   1.000  F
  F66      1.0000 0.06140  0.50040  0.74320  Biso   1.000  F
  F67      1.0000 0.52560  0.98860  0.20430  Biso   1.000  F
  F68      1.0000 0.47440  0.01140  0.79570  Biso   1.000  F
  F69      1.0000 0.40070  0.94420  0.27300  Biso   1.000  F
  F70      1.0000 0.59930  0.05580  0.72700  Biso   1.000  F
  F71      1.0000 0.51190  0.00480  0.30920  Biso   1.000  F
  F72      1.0000 0.48810  0.99520  0.69080  Biso   1.000  F
  F73      1.0000 0.32000  0.31320  0.03390  Biso   1.000  F
  F74      1.0000 0.68000  0.68680  0.96610  Biso   1.000  F
  F75      1.0000 0.48570  0.28110  0.04180  Biso   1.000  F
  F76      1.0000 0.51430  0.71890  0.95820  Biso   1.000  F
  F77      1.0000 0.80520  0.95050  0.20420  Biso   1.000  F
  F78      1.0000 0.19480  0.04950  0.79580  Biso   1.000  F
  F79      1.0000 0.70730  0.86540  0.19320  Biso   1.000  F
  F80      1.0000 0.29270  0.13460  0.80680  Biso   1.000  F
  F81      1.0000 0.60050  0.94380  0.96310  Biso   1.000  F
  F82      1.0000 0.39950  0.05620  0.03690  Biso   1.000  F
  F83      1.0000 0.63660  0.07690  0.92070  Biso   1.000  F
  F84      1.0000 0.36340  0.92310  0.07930  Biso   1.000  F
  F85      1.0000 0.70790  0.96010  0.87860  Biso   1.000  F
  F86      1.0000 0.29210  0.03990  0.12140  Biso   1.000  F
  C97      1.0000 0.16510  0.82340  0.72510  Biso   1.000  C
  C98      1.0000 0.83490  0.17660  0.27490  Biso   1.000  C
  H101     1.0000 0.16690  0.87700  0.68430  Biso   1.000  H
  H102     1.0000 0.83310  0.12300  0.31570  Biso   1.000  H
  H103     1.0000 0.16290  0.84570  0.76710  Biso   1.000  H
  H104     1.0000 0.83710  0.15430  0.23290  Biso   1.000  H
  H105     1.0000 0.10190  0.79400  0.72610  Biso   1.000  H
  H106     1.0000 0.89810  0.20600  0.27390  Biso   1.000  H
  C99      1.0000 0.24920  0.70660  0.66106  Biso   1.000  C
  C100     1.0000 0.75080  0.29340  0.33894  Biso   1.000  C
  H107     1.0000 0.29370  0.64450  0.66800  Biso   1.000  H
  H108     1.0000 0.70630  0.35550  0.33200  Biso   1.000  H
  H109     1.0000 0.27120  0.74780  0.61670  Biso   1.000  H
  H110     1.0000 0.72880  0.25220  0.38330  Biso   1.000  H
  H111     1.0000 0.17480  0.69900  0.66080  Biso   1.000  H
  H112     1.0000 0.82520  0.30100  0.33920  Biso   1.000  H
  C101     1.0000 0.35930  0.79980  0.69920  Biso   1.000  C
  C102     1.0000 0.64070  0.20020  0.30080  Biso   1.000  C
  H113     1.0000 0.40750  0.76570  0.66970  Biso   1.000  H
  H114     1.0000 0.59250  0.23430  0.33030  Biso   1.000  H
  H115     1.0000 0.39530  0.79920  0.74000  Biso   1.000  H
  H116     1.0000 0.60470  0.20080  0.26000  Biso   1.000  H
  H117     1.0000 0.33860  0.86540  0.67320  Biso   1.000  H
  H118     1.0000 0.66140  0.13460  0.32680  Biso   1.000  H
  C103     1.0000 0.26180  0.75250  0.72204  Biso   1.000  C
  C104     1.0000 0.73820  0.24750  0.27796  Biso   1.000  C
  C105     1.0000 0.27310  0.67310  0.78894  Biso   1.000  C
  C106     1.0000 0.72690  0.32690  0.21106  Biso   1.000  C
  C107     1.0000 0.36970  0.63210  0.81660  Biso   1.000  C
  C108     1.0000 0.63030  0.36790  0.18340  Biso   1.000  C
  H119     1.0000 0.43250  0.65620  0.79530  Biso   1.000  H
  H120     1.0000 0.56750  0.34380  0.20470  Biso   1.000  H
  C109     1.0000 0.37610  0.55490  0.87580  Biso   1.000  C
  C110     1.0000 0.62390  0.44510  0.12420  Biso   1.000  C
  H121     1.0000 0.44250  0.52730  0.89460  Biso   1.000  H
  H122     1.0000 0.55750  0.47270  0.10540  Biso   1.000  H
  C111     1.0000 0.28520  0.52080  0.90560  Biso   1.000  C
  C112     1.0000 0.71480  0.47920  0.09440  Biso   1.000  C
  H123     1.0000 0.28910  0.46850  0.94520  Biso   1.000  H
  H124     1.0000 0.71090  0.53150  0.05480  Biso   1.000  H
  C113     1.0000 0.19150  0.55870  0.88070  Biso   1.000  C
  C114     1.0000 0.80850  0.44130  0.11930  Biso   1.000  C
  H125     1.0000 0.12930  0.53400  0.90260  Biso   1.000  H
  H126     1.0000 0.87070  0.46600  0.09740  Biso   1.000  H
  C115     1.0000 0.18480  0.63440  0.82292  Biso   1.000  C
  C116     1.0000 0.81520  0.36560  0.17708  Biso   1.000  C
  H127     1.0000 0.11710  0.66090  0.80580  Biso   1.000  H
  H128     1.0000 0.88290  0.33910  0.19420  Biso   1.000  H
