data_image0
_cell_length_a       7.8631
_cell_length_b       14.278
_cell_length_c       14.3028
_cell_angle_alpha    90
_cell_angle_beta     104.829
_cell_angle_gamma    90

_symmetry_space_group_name_H-M    "P 1"
_symmetry_int_tables_number       1

loop_
  _symmetry_equiv_pos_as_xyz
  'x, y, z'

loop_
  _atom_site_label
  _atom_site_occupancy
  _atom_site_fract_x
  _atom_site_fract_y
  _atom_site_fract_z
  _atom_site_thermal_displace_type
  _atom_site_B_iso_or_equiv
  _atom_site_type_symbol
  Cu1      1.0000 0.43442  0.25519  0.12348  Biso   1.000  Cu
  Cu2      1.0000 0.56558  0.75519  0.37652  Biso   1.000  Cu
  Cu3      1.0000 0.56558  0.74481  0.87652  Biso   1.000  Cu
  Cu4      1.0000 0.43442  0.24481  0.62348  Biso   1.000  Cu
  O1       1.0000 0.62840  0.27684  0.23923  Biso   1.000  O
  O2       1.0000 0.37160  0.77684  0.26077  Biso   1.000  O
  O3       1.0000 0.37160  0.72316  0.76077  Biso   1.000  O
  O4       1.0000 0.62840  0.22316  0.73923  Biso   1.000  O
  N1       1.0000 0.33340  0.38342  0.12503  Biso   1.000  N
  N2       1.0000 0.66660  0.88342  0.37497  Biso   1.000  N
  N3       1.0000 0.66660  0.61658  0.87497  Biso   1.000  N
  N4       1.0000 0.33340  0.11658  0.62503  Biso   1.000  N
  C1       1.0000 0.76640  0.30671  0.22084  Biso   1.000  C
  C2       1.0000 0.23360  0.80671  0.27916  Biso   1.000  C
  C3       1.0000 0.23360  0.69329  0.77916  Biso   1.000  C
  C4       1.0000 0.76640  0.19329  0.72084  Biso   1.000  C
  H1       1.0000 0.31600  0.18770  0.27000  Biso   1.000  H
  H2       1.0000 0.68400  0.68770  0.23000  Biso   1.000  H
  H3       1.0000 0.68400  0.81230  0.73000  Biso   1.000  H
  H4       1.0000 0.31600  0.31230  0.77000  Biso   1.000  H
  O5       1.0000 0.78314  0.34065  0.14439  Biso   1.000  O
  O6       1.0000 0.21686  0.84065  0.35561  Biso   1.000  O
  O7       1.0000 0.21686  0.65935  0.85561  Biso   1.000  O
  O8       1.0000 0.78314  0.15935  0.64439  Biso   1.000  O
  N5       1.0000 0.57400  0.14957  0.08690  Biso   1.000  N
  N6       1.0000 0.42600  0.64957  0.41310  Biso   1.000  N
  N7       1.0000 0.42600  0.85043  0.91310  Biso   1.000  N
  N8       1.0000 0.57400  0.35043  0.58690  Biso   1.000  N
  C5       1.0000 0.92780  0.29393  0.30067  Biso   1.000  C
  C6       1.0000 0.07220  0.79393  0.19933  Biso   1.000  C
  C7       1.0000 0.07220  0.70607  0.69933  Biso   1.000  C
  C8       1.0000 0.92780  0.20607  0.80067  Biso   1.000  C
  O9       1.0000 0.22717  0.28122  0.51924  Biso   1.000  O
  O10      1.0000 0.77283  0.78122  0.98076  Biso   1.000  O
  O11      1.0000 0.77283  0.71878  0.48076  Biso   1.000  O
  O12      1.0000 0.22717  0.21878  0.01924  Biso   1.000  O
  C9       1.0000 0.05960  0.27752  0.36108  Biso   1.000  C
  C10      1.0000 0.94040  0.77752  0.13892  Biso   1.000  C
  C11      1.0000 0.94040  0.72248  0.63892  Biso   1.000  C
  C12      1.0000 0.05960  0.22248  0.86108  Biso   1.000  C
  O13      1.0000 0.33154  0.20320  0.41115  Biso   1.000  O
  O14      1.0000 0.66846  0.70320  0.08885  Biso   1.000  O
  O15      1.0000 0.66846  0.79680  0.58885  Biso   1.000  O
  O16      1.0000 0.33154  0.29680  0.91115  Biso   1.000  O
  C13      1.0000 0.22140  0.25048  0.43610  Biso   1.000  C
  C14      1.0000 0.77860  0.75048  0.06390  Biso   1.000  C
  C15      1.0000 0.77860  0.74952  0.56390  Biso   1.000  C
  C16      1.0000 0.22140  0.24952  0.93610  Biso   1.000  C
  O17      1.0000 0.30400  0.17378  0.22095  Biso   1.000  O
  O18      1.0000 0.69600  0.67378  0.27905  Biso   1.000  O
  O19      1.0000 0.69600  0.82622  0.77905  Biso   1.000  O
  O20      1.0000 0.30400  0.32622  0.72095  Biso   1.000  O
  C17      1.0000 0.16680  0.39553  0.13100  Biso   1.000  C
  C18      1.0000 0.83320  0.89553  0.36900  Biso   1.000  C
  C19      1.0000 0.83320  0.60447  0.86900  Biso   1.000  C
  C20      1.0000 0.16680  0.10447  0.63100  Biso   1.000  C
  H5       1.0000 0.10080  0.34250  0.14100  Biso   1.000  H
  H6       1.0000 0.89920  0.84250  0.35900  Biso   1.000  H
  H7       1.0000 0.89920  0.65750  0.85900  Biso   1.000  H
  H8       1.0000 0.10080  0.15750  0.64100  Biso   1.000  H
  C21      1.0000 0.08920  0.48271  0.12299  Biso   1.000  C
  C22      1.0000 0.91080  0.98271  0.37701  Biso   1.000  C
  C23      1.0000 0.91080  0.51729  0.87701  Biso   1.000  C
  C24      1.0000 0.08920  0.01729  0.62299  Biso   1.000  C
  H9       1.0000 0.97220  0.48960  0.12880  Biso   1.000  H
  H10      1.0000 0.02780  0.98960  0.37120  Biso   1.000  H
  H11      1.0000 0.02780  0.51040  0.87120  Biso   1.000  H
  H12      1.0000 0.97220  0.01040  0.62880  Biso   1.000  H
  C25      1.0000 0.18300  0.56006  0.10646  Biso   1.000  C
  C26      1.0000 0.81700  0.06006  0.39354  Biso   1.000  C
  C27      1.0000 0.81700  0.43994  0.89354  Biso   1.000  C
  C28      1.0000 0.18300  0.93994  0.60646  Biso   1.000  C
  H13      1.0000 0.13110  0.62060  0.10030  Biso   1.000  H
  H14      1.0000 0.86890  0.12060  0.39970  Biso   1.000  H
  H15      1.0000 0.86890  0.37940  0.89970  Biso   1.000  H
  H16      1.0000 0.13110  0.87940  0.60030  Biso   1.000  H
  C29      1.0000 0.35300  0.54795  0.09909  Biso   1.000  C
  C30      1.0000 0.64700  0.04795  0.40091  Biso   1.000  C
  C31      1.0000 0.64700  0.45205  0.90091  Biso   1.000  C
  C32      1.0000 0.35300  0.95205  0.59909  Biso   1.000  C
  H17      1.0000 0.42010  0.59990  0.08710  Biso   1.000  H
  H18      1.0000 0.57990  0.09990  0.41290  Biso   1.000  H
  H19      1.0000 0.57990  0.40010  0.91290  Biso   1.000  H
  H20      1.0000 0.42010  0.90010  0.58710  Biso   1.000  H
  C33      1.0000 0.42420  0.45884  0.10950  Biso   1.000  C
  C34      1.0000 0.57580  0.95884  0.39050  Biso   1.000  C
  C35      1.0000 0.57580  0.54116  0.89050  Biso   1.000  C
  C36      1.0000 0.42420  0.04116  0.60950  Biso   1.000  C
  H21      1.0000 0.54200  0.45070  0.10550  Biso   1.000  H
  H22      1.0000 0.45800  0.95070  0.39450  Biso   1.000  H
  H23      1.0000 0.45800  0.54930  0.89450  Biso   1.000  H
  H24      1.0000 0.54200  0.04930  0.60550  Biso   1.000  H
  C37      1.0000 0.59660  0.06945  0.13683  Biso   1.000  C
  C38      1.0000 0.40340  0.56945  0.36317  Biso   1.000  C
  C39      1.0000 0.40340  0.93055  0.86317  Biso   1.000  C
  C40      1.0000 0.59660  0.43055  0.63683  Biso   1.000  C
  H25      1.0000 0.54290  0.06270  0.18890  Biso   1.000  H
  H26      1.0000 0.45710  0.56270  0.31110  Biso   1.000  H
  H27      1.0000 0.45710  0.93730  0.81110  Biso   1.000  H
  H28      1.0000 0.54290  0.43730  0.68890  Biso   1.000  H
  C41      1.0000 0.69470  0.99619  0.11584  Biso   1.000  C
  C42      1.0000 0.30530  0.49619  0.38416  Biso   1.000  C
  C43      1.0000 0.30530  0.00381  0.88416  Biso   1.000  C
  C44      1.0000 0.69470  0.50381  0.61584  Biso   1.000  C
  H29      1.0000 0.70760  0.94000  0.15250  Biso   1.000  H
  H30      1.0000 0.29240  0.44000  0.34750  Biso   1.000  H
  H31      1.0000 0.29240  0.06000  0.84750  Biso   1.000  H
  H32      1.0000 0.70760  0.56000  0.65250  Biso   1.000  H
  C45      1.0000 0.77380  0.00572  0.04095  Biso   1.000  C
  C46      1.0000 0.22620  0.50572  0.45905  Biso   1.000  C
  C47      1.0000 0.22620  0.99428  0.95905  Biso   1.000  C
  C48      1.0000 0.77380  0.49428  0.54095  Biso   1.000  C
  H33      1.0000 0.84240  0.95620  0.02520  Biso   1.000  H
  H34      1.0000 0.15760  0.45620  0.47480  Biso   1.000  H
  H35      1.0000 0.15760  0.04380  0.97480  Biso   1.000  H
  H36      1.0000 0.84240  0.54380  0.52520  Biso   1.000  H
  C49      1.0000 0.75190  0.08836  0.98912  Biso   1.000  C
  C50      1.0000 0.24810  0.58836  0.51088  Biso   1.000  C
  C51      1.0000 0.24810  0.91164  0.01088  Biso   1.000  C
  C52      1.0000 0.75190  0.41164  0.48912  Biso   1.000  C
  H37      1.0000 0.80550  0.09680  0.93720  Biso   1.000  H
  H38      1.0000 0.19450  0.59680  0.56280  Biso   1.000  H
  H39      1.0000 0.19450  0.90320  0.06280  Biso   1.000  H
  H40      1.0000 0.80550  0.40320  0.43720  Biso   1.000  H
  C53      1.0000 0.65120  0.15833  0.01383  Biso   1.000  C
  C54      1.0000 0.34880  0.65833  0.48617  Biso   1.000  C
  C55      1.0000 0.34880  0.84167  0.98617  Biso   1.000  C
  C56      1.0000 0.65120  0.34167  0.51383  Biso   1.000  C
  H41      1.0000 0.63570  0.21500  0.97780  Biso   1.000  H
  H42      1.0000 0.36430  0.71500  0.52220  Biso   1.000  H
  H43      1.0000 0.36430  0.78500  0.02220  Biso   1.000  H
  H44      1.0000 0.63570  0.28500  0.47780  Biso   1.000  H
  C57      1.0000 0.15830  0.11185  0.19550  Biso   1.000  C
  C58      1.0000 0.84170  0.61185  0.30450  Biso   1.000  C
  C59      1.0000 0.84170  0.88815  0.80450  Biso   1.000  C
  C60      1.0000 0.15830  0.38815  0.69550  Biso   1.000  C
  H45      1.0000 0.12070  0.10540  0.12500  Biso   1.000  H
  H46      1.0000 0.87930  0.60540  0.37500  Biso   1.000  H
  H47      1.0000 0.87930  0.89460  0.87500  Biso   1.000  H
  H48      1.0000 0.12070  0.39460  0.62500  Biso   1.000  H
  H49      1.0000 0.06110  0.13700  0.21920  Biso   1.000  H
  H50      1.0000 0.93890  0.63700  0.28080  Biso   1.000  H
  H51      1.0000 0.93890  0.86300  0.78080  Biso   1.000  H
  H52      1.0000 0.06110  0.36300  0.71920  Biso   1.000  H
  H53      1.0000 0.19250  0.05040  0.22480  Biso   1.000  H
  H54      1.0000 0.80750  0.55040  0.27520  Biso   1.000  H
  H55      1.0000 0.80750  0.94960  0.77520  Biso   1.000  H
  H56      1.0000 0.19250  0.44960  0.72480  Biso   1.000  H
