data_image0
_cell_length_a       10.5816
_cell_length_b       14.0388
_cell_length_c       14.5487
_cell_angle_alpha    90
_cell_angle_beta     94.38
_cell_angle_gamma    90

_symmetry_space_group_name_H-M    "P 1"
_symmetry_int_tables_number       1

loop_
  _symmetry_equiv_pos_as_xyz
  'x, y, z'

loop_
  _atom_site_label
  _atom_site_occupancy
  _atom_site_fract_x
  _atom_site_fract_y
  _atom_site_fract_z
  _atom_site_thermal_displace_type
  _atom_site_B_iso_or_equiv
  _atom_site_type_symbol
  Cu1      1.0000 0.94940  0.23017  0.61173  Biso   1.000  Cu
  Cu2      1.0000 0.94940  0.76983  0.11173  Biso   1.000  Cu
  Cu3      1.0000 0.44940  0.73017  0.61173  Biso   1.000  Cu
  Cu4      1.0000 0.44940  0.26983  0.11173  Biso   1.000  Cu
  O1       1.0000 0.06110  0.21520  0.51150  Biso   1.000  O
  O2       1.0000 0.06110  0.78480  0.01150  Biso   1.000  O
  O3       1.0000 0.56110  0.71520  0.51150  Biso   1.000  O
  O4       1.0000 0.56110  0.28480  0.01150  Biso   1.000  O
  N1       1.0000 0.83080  0.13240  0.54940  Biso   1.000  N
  N2       1.0000 0.83080  0.86760  0.04940  Biso   1.000  N
  N3       1.0000 0.33080  0.63240  0.54940  Biso   1.000  N
  N4       1.0000 0.33080  0.36760  0.04940  Biso   1.000  N
  C1       1.0000 0.02560  0.25930  0.43770  Biso   1.000  C
  C2       1.0000 0.02560  0.74070  0.93770  Biso   1.000  C
  C3       1.0000 0.52560  0.75930  0.43770  Biso   1.000  C
  C4       1.0000 0.52560  0.24070  0.93770  Biso   1.000  C
  O5       1.0000 0.93520  0.31200  0.42400  Biso   1.000  O
  O6       1.0000 0.93520  0.68800  0.92400  Biso   1.000  O
  O7       1.0000 0.43520  0.81200  0.42400  Biso   1.000  O
  O8       1.0000 0.43520  0.18800  0.92400  Biso   1.000  O
  N5       1.0000 0.04200  0.34940  0.65530  Biso   1.000  N
  N6       1.0000 0.04200  0.65060  0.15530  Biso   1.000  N
  N7       1.0000 0.54200  0.84940  0.65530  Biso   1.000  N
  N8       1.0000 0.54200  0.15060  0.15530  Biso   1.000  N
  C5       1.0000 0.10940  0.24020  0.36200  Biso   1.000  C
  C6       1.0000 0.10940  0.75980  0.86200  Biso   1.000  C
  C7       1.0000 0.60940  0.74020  0.36200  Biso   1.000  C
  C8       1.0000 0.60940  0.25980  0.86200  Biso   1.000  C
  O9       1.0000 0.35010  0.26900  0.22150  Biso   1.000  O
  O10      1.0000 0.35010  0.73100  0.72150  Biso   1.000  O
  O11      1.0000 0.85010  0.76900  0.22150  Biso   1.000  O
  O12      1.0000 0.85010  0.23100  0.72150  Biso   1.000  O
  C9       1.0000 0.17420  0.23020  0.29930  Biso   1.000  C
  C10      1.0000 0.17420  0.76980  0.79930  Biso   1.000  C
  C11      1.0000 0.67420  0.73020  0.29930  Biso   1.000  C
  C12      1.0000 0.67420  0.26980  0.79930  Biso   1.000  C
  O13      1.0000 0.20120  0.17720  0.15130  Biso   1.000  O
  O14      1.0000 0.20120  0.82280  0.65130  Biso   1.000  O
  O15      1.0000 0.70120  0.67720  0.15130  Biso   1.000  O
  O16      1.0000 0.70120  0.32280  0.65130  Biso   1.000  O
  C13      1.0000 0.24770  0.22310  0.21740  Biso   1.000  C
  C14      1.0000 0.24770  0.77690  0.71740  Biso   1.000  C
  C15      1.0000 0.74770  0.72310  0.21740  Biso   1.000  C
  C16      1.0000 0.74770  0.27690  0.71740  Biso   1.000  C
  O17      1.0000 0.09200  0.13350  0.68810  Biso   1.000  O
  O18      1.0000 0.09200  0.86650  0.18810  Biso   1.000  O
  O19      1.0000 0.59200  0.63350  0.68810  Biso   1.000  O
  O20      1.0000 0.59200  0.36650  0.18810  Biso   1.000  O
  C17      1.0000 0.86970  0.04110  0.54390  Biso   1.000  C
  C18      1.0000 0.86970  0.95890  0.04390  Biso   1.000  C
  C19      1.0000 0.36970  0.54110  0.54390  Biso   1.000  C
  C20      1.0000 0.36970  0.45890  0.04390  Biso   1.000  C
  H1       1.0000 0.95060  0.02490  0.57240  Biso   1.000  H
  H2       1.0000 0.95060  0.97510  0.07240  Biso   1.000  H
  H3       1.0000 0.45060  0.52490  0.57240  Biso   1.000  H
  H4       1.0000 0.45060  0.47510  0.07240  Biso   1.000  H
  O21      1.0000 0.18450  0.99880  0.58380  Biso   1.000  O
  O22      1.0000 0.18450  0.00120  0.08380  Biso   1.000  O
  O23      1.0000 0.68450  0.49880  0.58380  Biso   1.000  O
  O24      1.0000 0.68450  0.50120  0.08380  Biso   1.000  O
  C21      1.0000 0.79930  0.97010  0.49970  Biso   1.000  C
  C22      1.0000 0.79930  0.02990  0.99970  Biso   1.000  C
  C23      1.0000 0.29930  0.47010  0.49970  Biso   1.000  C
  C24      1.0000 0.29930  0.52990  0.99970  Biso   1.000  C
  C25      1.0000 0.68090  0.99530  0.46000  Biso   1.000  C
  C26      1.0000 0.68090  0.00470  0.96000  Biso   1.000  C
  C27      1.0000 0.18090  0.49530  0.46000  Biso   1.000  C
  C28      1.0000 0.18090  0.50470  0.96000  Biso   1.000  C
  H5       1.0000 0.62800  0.94780  0.43080  Biso   1.000  H
  H6       1.0000 0.62800  0.05220  0.93080  Biso   1.000  H
  H7       1.0000 0.12800  0.44780  0.43080  Biso   1.000  H
  H8       1.0000 0.12800  0.55220  0.93080  Biso   1.000  H
  C29      1.0000 0.63810  0.08900  0.46210  Biso   1.000  C
  C30      1.0000 0.63810  0.91100  0.96210  Biso   1.000  C
  C31      1.0000 0.13810  0.58900  0.46210  Biso   1.000  C
  C32      1.0000 0.13810  0.41100  0.96210  Biso   1.000  C
  C33      1.0000 0.71830  0.15510  0.50850  Biso   1.000  C
  C34      1.0000 0.71830  0.84490  0.00850  Biso   1.000  C
  C35      1.0000 0.21830  0.65510  0.50850  Biso   1.000  C
  C36      1.0000 0.21830  0.34490  0.00850  Biso   1.000  C
  H9       1.0000 0.69100  0.21950  0.51090  Biso   1.000  H
  H10      1.0000 0.69100  0.78050  0.01090  Biso   1.000  H
  H11      1.0000 0.19100  0.71950  0.51090  Biso   1.000  H
  H12      1.0000 0.19100  0.28050  0.01090  Biso   1.000  H
  C37      1.0000 0.84790  0.86990  0.49500  Biso   1.000  C
  C38      1.0000 0.84790  0.13010  0.99500  Biso   1.000  C
  C39      1.0000 0.34790  0.36990  0.49500  Biso   1.000  C
  C40      1.0000 0.34790  0.63010  0.99500  Biso   1.000  C
  H13      1.0000 0.85850  0.85310  0.43070  Biso   1.000  H
  H14      1.0000 0.85850  0.14690  0.93070  Biso   1.000  H
  H15      1.0000 0.35850  0.35310  0.43070  Biso   1.000  H
  H16      1.0000 0.35850  0.64690  0.93070  Biso   1.000  H
  H17      1.0000 0.78720  0.82610  0.52030  Biso   1.000  H
  H18      1.0000 0.78720  0.17390  0.02030  Biso   1.000  H
  H19      1.0000 0.28720  0.32610  0.52030  Biso   1.000  H
  H20      1.0000 0.28720  0.67390  0.02030  Biso   1.000  H
  H21      1.0000 0.92980  0.86500  0.53100  Biso   1.000  H
  H22      1.0000 0.92980  0.13500  0.03100  Biso   1.000  H
  H23      1.0000 0.42980  0.36500  0.53100  Biso   1.000  H
  H24      1.0000 0.42980  0.63500  0.03100  Biso   1.000  H
  C41      1.0000 0.50980  0.11820  0.41830  Biso   1.000  C
  C42      1.0000 0.50980  0.88180  0.91830  Biso   1.000  C
  C43      1.0000 0.00980  0.61820  0.41830  Biso   1.000  C
  C44      1.0000 0.00980  0.38180  0.91830  Biso   1.000  C
  H25      1.0000 0.45760  0.14250  0.46590  Biso   1.000  H
  H26      1.0000 0.45760  0.85750  0.96590  Biso   1.000  H
  H27      1.0000 0.95760  0.64250  0.46590  Biso   1.000  H
  H28      1.0000 0.95760  0.35750  0.96590  Biso   1.000  H
  H29      1.0000 0.46810  0.06290  0.38810  Biso   1.000  H
  H30      1.0000 0.46810  0.93710  0.88810  Biso   1.000  H
  H31      1.0000 0.96810  0.56290  0.38810  Biso   1.000  H
  H32      1.0000 0.96810  0.43710  0.88810  Biso   1.000  H
  H33      1.0000 0.52060  0.16810  0.37250  Biso   1.000  H
  H34      1.0000 0.52060  0.83190  0.87250  Biso   1.000  H
  H35      1.0000 0.02060  0.66810  0.37250  Biso   1.000  H
  H36      1.0000 0.02060  0.33190  0.87250  Biso   1.000  H
  C45      1.0000 0.16390  0.34590  0.69080  Biso   1.000  C
  C46      1.0000 0.16390  0.65410  0.19080  Biso   1.000  C
  C47      1.0000 0.66390  0.84590  0.69080  Biso   1.000  C
  C48      1.0000 0.66390  0.15410  0.19080  Biso   1.000  C
  H37      1.0000 0.20630  0.28630  0.69280  Biso   1.000  H
  H38      1.0000 0.20630  0.71370  0.19280  Biso   1.000  H
  H39      1.0000 0.70630  0.78630  0.69280  Biso   1.000  H
  H40      1.0000 0.70630  0.21370  0.19280  Biso   1.000  H
  C49      1.0000 0.22930  0.42540  0.72430  Biso   1.000  C
  C50      1.0000 0.22930  0.57460  0.22430  Biso   1.000  C
  C51      1.0000 0.72930  0.92540  0.72430  Biso   1.000  C
  C52      1.0000 0.72930  0.07460  0.22430  Biso   1.000  C
  C53      1.0000 0.16570  0.51180  0.72000  Biso   1.000  C
  C54      1.0000 0.16570  0.48820  0.22000  Biso   1.000  C
  C55      1.0000 0.66570  0.01180  0.72000  Biso   1.000  C
  C56      1.0000 0.66570  0.98820  0.22000  Biso   1.000  C
  H41      1.0000 0.20830  0.56760  0.74250  Biso   1.000  H
  H42      1.0000 0.20830  0.43240  0.24250  Biso   1.000  H
  H43      1.0000 0.70830  0.06760  0.74250  Biso   1.000  H
  H44      1.0000 0.70830  0.93240  0.24250  Biso   1.000  H
  C57      1.0000 0.04060  0.51820  0.68320  Biso   1.000  C
  C58      1.0000 0.04060  0.48180  0.18320  Biso   1.000  C
  C59      1.0000 0.54060  0.01820  0.68320  Biso   1.000  C
  C60      1.0000 0.54060  0.98180  0.18320  Biso   1.000  C
  C61      1.0000 0.98400  0.43400  0.65190  Biso   1.000  C
  C62      1.0000 0.98400  0.56600  0.15190  Biso   1.000  C
  C63      1.0000 0.48400  0.93400  0.65190  Biso   1.000  C
  C64      1.0000 0.48400  0.06600  0.15190  Biso   1.000  C
  H45      1.0000 0.89870  0.43650  0.62640  Biso   1.000  H
  H46      1.0000 0.89870  0.56350  0.12640  Biso   1.000  H
  H47      1.0000 0.39870  0.93650  0.62640  Biso   1.000  H
  H48      1.0000 0.39870  0.06350  0.12640  Biso   1.000  H
  C65      1.0000 0.36530  0.41690  0.76530  Biso   1.000  C
  C66      1.0000 0.36530  0.58310  0.26530  Biso   1.000  C
  C67      1.0000 0.86530  0.91690  0.76530  Biso   1.000  C
  C68      1.0000 0.86530  0.08310  0.26530  Biso   1.000  C
  H49      1.0000 0.40580  0.47970  0.76590  Biso   1.000  H
  H50      1.0000 0.40580  0.52030  0.26590  Biso   1.000  H
  H51      1.0000 0.90580  0.97970  0.76590  Biso   1.000  H
  H52      1.0000 0.90580  0.02030  0.26590  Biso   1.000  H
  H53      1.0000 0.41200  0.37300  0.72790  Biso   1.000  H
  H54      1.0000 0.41200  0.62700  0.22790  Biso   1.000  H
  H55      1.0000 0.91200  0.87300  0.72790  Biso   1.000  H
  H56      1.0000 0.91200  0.12700  0.22790  Biso   1.000  H
  H57      1.0000 0.36590  0.39260  0.82850  Biso   1.000  H
  H58      1.0000 0.36590  0.60740  0.32850  Biso   1.000  H
  H59      1.0000 0.86590  0.89260  0.82850  Biso   1.000  H
  H60      1.0000 0.86590  0.10740  0.32850  Biso   1.000  H
  C69      1.0000 0.96850  0.61050  0.67770  Biso   1.000  C
  C70      1.0000 0.96850  0.38950  0.17770  Biso   1.000  C
  C71      1.0000 0.46850  0.11050  0.67770  Biso   1.000  C
  C72      1.0000 0.46850  0.88950  0.17770  Biso   1.000  C
  H61      1.0000 0.88400  0.59980  0.64700  Biso   1.000  H
  H62      1.0000 0.88400  0.40020  0.14700  Biso   1.000  H
  H63      1.0000 0.38400  0.09980  0.64700  Biso   1.000  H
  H64      1.0000 0.38400  0.90020  0.14700  Biso   1.000  H
  H65      1.0000 0.01420  0.65700  0.64250  Biso   1.000  H
  H66      1.0000 0.01420  0.34300  0.14250  Biso   1.000  H
  H67      1.0000 0.51420  0.15700  0.64250  Biso   1.000  H
  H68      1.0000 0.51420  0.84300  0.14250  Biso   1.000  H
  H69      1.0000 0.96030  0.63500  0.74010  Biso   1.000  H
  H70      1.0000 0.96030  0.36500  0.24010  Biso   1.000  H
  H71      1.0000 0.46030  0.13500  0.74010  Biso   1.000  H
  H72      1.0000 0.46030  0.86500  0.24010  Biso   1.000  H
  C73      1.0000 0.12250  0.11180  0.78140  Biso   1.000  C
  C74      1.0000 0.12250  0.88820  0.28140  Biso   1.000  C
  C75      1.0000 0.62250  0.61180  0.78140  Biso   1.000  C
  C76      1.0000 0.62250  0.38820  0.28140  Biso   1.000  C
  H73      1.0000 0.20070  0.14500  0.80310  Biso   1.000  H
  H74      1.0000 0.20070  0.85500  0.30310  Biso   1.000  H
  H75      1.0000 0.70070  0.64500  0.80310  Biso   1.000  H
  H76      1.0000 0.70070  0.35500  0.30310  Biso   1.000  H
  H77      1.0000 0.13480  0.04290  0.78850  Biso   1.000  H
  H78      1.0000 0.13480  0.95710  0.28850  Biso   1.000  H
  H79      1.0000 0.63480  0.54290  0.78850  Biso   1.000  H
  H80      1.0000 0.63480  0.45710  0.28850  Biso   1.000  H
  H81      1.0000 0.05330  0.13230  0.81790  Biso   1.000  H
  H82      1.0000 0.05330  0.86770  0.31790  Biso   1.000  H
  H83      1.0000 0.55330  0.63230  0.81790  Biso   1.000  H
  H84      1.0000 0.55330  0.36770  0.31790  Biso   1.000  H
  C77      1.0000 0.19010  0.99620  0.48630  Biso   1.000  C
  C78      1.0000 0.19010  0.00380  0.98630  Biso   1.000  C
  C79      1.0000 0.69010  0.49620  0.48630  Biso   1.000  C
  C80      1.0000 0.69010  0.50380  0.98630  Biso   1.000  C
  H85      1.0000 0.18660  0.06130  0.46190  Biso   1.000  H
  H86      1.0000 0.18660  0.93870  0.96190  Biso   1.000  H
  H87      1.0000 0.68660  0.56130  0.46190  Biso   1.000  H
  H88      1.0000 0.68660  0.43870  0.96190  Biso   1.000  H
  H89      1.0000 0.11810  0.95950  0.45860  Biso   1.000  H
  H90      1.0000 0.11810  0.04050  0.95860  Biso   1.000  H
  H91      1.0000 0.61810  0.45950  0.45860  Biso   1.000  H
  H92      1.0000 0.61810  0.54050  0.95860  Biso   1.000  H
  H93      1.0000 0.26940  0.96590  0.47140  Biso   1.000  H
  H94      1.0000 0.26940  0.03410  0.97140  Biso   1.000  H
  H95      1.0000 0.76940  0.46590  0.47140  Biso   1.000  H
  H96      1.0000 0.76940  0.53410  0.97140  Biso   1.000  H
  H97      1.0000 0.19390  0.94900  0.61300  Biso   1.000  H
  H98      1.0000 0.19390  0.05100  0.11300  Biso   1.000  H
  H99      1.0000 0.69390  0.44900  0.61300  Biso   1.000  H
  H100     1.0000 0.69390  0.55100  0.11300  Biso   1.000  H
  H101     1.0000 0.09270  0.09010  0.65050  Biso   1.000  H
  H102     1.0000 0.09270  0.90990  0.15050  Biso   1.000  H
  H103     1.0000 0.59270  0.59010  0.65050  Biso   1.000  H
  H104     1.0000 0.59270  0.40990  0.15050  Biso   1.000  H
