data_image0
_cell_length_a       8.616
_cell_length_b       11.843
_cell_length_c       12.177
_cell_angle_alpha    103.4
_cell_angle_beta     112
_cell_angle_gamma    75.5

_symmetry_space_group_name_H-M    "P 1"
_symmetry_int_tables_number       1

loop_
  _symmetry_equiv_pos_as_xyz
  'x, y, z'

loop_
  _atom_site_label
  _atom_site_occupancy
  _atom_site_fract_x
  _atom_site_fract_y
  _atom_site_fract_z
  _atom_site_thermal_displace_type
  _atom_site_B_iso_or_equiv
  _atom_site_type_symbol
  Cu1      1.0000 0.20138  0.06506  0.47985  Biso   1.000  Cu
  Cu2      1.0000 0.79862  0.93494  0.52015  Biso   1.000  Cu
  O1       1.0000 0.39720  0.05910  0.62780  Biso   1.000  O
  O2       1.0000 0.60280  0.94090  0.37220  Biso   1.000  O
  N1       1.0000 0.81580  0.47260  0.53750  Biso   1.000  N
  N2       1.0000 0.18420  0.52740  0.46250  Biso   1.000  N
  C1       1.0000 0.96050  0.39870  0.57340  Biso   1.000  C
  C2       1.0000 0.03950  0.60130  0.42660  Biso   1.000  C
  C3       1.0000 0.98060  0.28410  0.51060  Biso   1.000  C
  C4       1.0000 0.01940  0.71590  0.48940  Biso   1.000  C
  C5       1.0000 0.84200  0.25050  0.41020  Biso   1.000  C
  C6       1.0000 0.15800  0.74950  0.58980  Biso   1.000  C
  C7       1.0000 0.68840  0.33130  0.37540  Biso   1.000  C
  C8       1.0000 0.31160  0.66870  0.62460  Biso   1.000  C
  C9       1.0000 0.68060  0.44090  0.43870  Biso   1.000  C
  C10      1.0000 0.31940  0.55910  0.56130  Biso   1.000  C
  C11      1.0000 0.09740  0.44080  0.68560  Biso   1.000  C
  C12      1.0000 0.90260  0.55920  0.31440  Biso   1.000  C
  C13      1.0000 0.53510  0.30130  0.27250  Biso   1.000  C
  C14      1.0000 0.46490  0.69870  0.72750  Biso   1.000  C
  O3       1.0000 0.12480  0.21720  0.55280  Biso   1.000  O
  O4       1.0000 0.87520  0.78280  0.44720  Biso   1.000  O
  O5       1.0000 0.47470  0.20400  0.28650  Biso   1.000  O
  O6       1.0000 0.52530  0.79600  0.71350  Biso   1.000  O
  P1       1.0000 0.36340  0.22420  0.37100  Biso   1.000  P
  P2       1.0000 0.63660  0.77580  0.62900  Biso   1.000  P
  O7       1.0000 0.47740  0.27380  0.49900  Biso   1.000  O
  O8       1.0000 0.52260  0.72620  0.50100  Biso   1.000  O
  O9       1.0000 0.21350  0.31740  0.33340  Biso   1.000  O
  O10      1.0000 0.78650  0.68260  0.66660  Biso   1.000  O
  O11      1.0000 0.33340  0.10370  0.36630  Biso   1.000  O
  O12      1.0000 0.66660  0.89630  0.63370  Biso   1.000  O
  C15      1.0000 0.84880  0.13350  0.33890  Biso   1.000  C
  C16      1.0000 0.15120  0.86650  0.66110  Biso   1.000  C
  N3       1.0000 0.98370  0.05530  0.35460  Biso   1.000  N
  N4       1.0000 0.01630  0.94470  0.64540  Biso   1.000  N
  C17      1.0000 0.97870  0.94570  0.27120  Biso   1.000  C
  C18      1.0000 0.02130  0.05430  0.72880  Biso   1.000  C
  C19      1.0000 0.12890  0.85440  0.33050  Biso   1.000  C
  C20      1.0000 0.87110  0.14560  0.66950  Biso   1.000  C
  C21      1.0000 0.00860  0.96320  0.15850  Biso   1.000  C
  C22      1.0000 0.99140  0.03680  0.84150  Biso   1.000  C
  O13      1.0000 0.24620  0.89370  0.42430  Biso   1.000  O
  O14      1.0000 0.75380  0.10630  0.57570  Biso   1.000  O
  O15      1.0000 0.13310  0.75160  0.28350  Biso   1.000  O
  O16      1.0000 0.86690  0.24840  0.71650  Biso   1.000  O
  C23      1.0000 0.86520  0.04200  0.08290  Biso   1.000  C
  C24      1.0000 0.13480  0.95800  0.91710  Biso   1.000  C
  C25      1.0000 0.87260  0.15780  0.09290  Biso   1.000  C
  C26      1.0000 0.12740  0.84220  0.90710  Biso   1.000  C
  C27      1.0000 0.74210  0.22990  0.01510  Biso   1.000  C
  C28      1.0000 0.25790  0.77010  0.98490  Biso   1.000  C
  C29      1.0000 0.60740  0.17220  0.92700  Biso   1.000  C
  C30      1.0000 0.39260  0.82780  0.07300  Biso   1.000  C
  C31      1.0000 0.59670  0.05930  0.91810  Biso   1.000  C
  C32      1.0000 0.40330  0.94070  0.08190  Biso   1.000  C
  C33      1.0000 0.72500  0.99720  0.99670  Biso   1.000  C
  C34      1.0000 0.27500  0.00280  0.00330  Biso   1.000  C
  O17      1.0000 0.48180  0.24170  0.84250  Biso   1.000  O
  O18      1.0000 0.51820  0.75830  0.15750  Biso   1.000  O
  O19      1.0000 0.61340  0.40640  0.79190  Biso   1.000  O
  O20      1.0000 0.38660  0.59360  0.20810  Biso   1.000  O
  O21      1.0000 0.82080  0.71910  0.08700  Biso   1.000  O
  O22      1.0000 0.17920  0.28090  0.91300  Biso   1.000  O
  O23      1.0000 0.10430  0.39530  0.10460  Biso   1.000  O
  O24      1.0000 0.89570  0.60470  0.89540  Biso   1.000  O
  O25      1.0000 0.75520  0.54080  0.99920  Biso   1.000  O
  O26      1.0000 0.24480  0.45920  0.00080  Biso   1.000  O
  H1       1.0000 0.80100  0.54400  0.57500  Biso   1.000  H
  H2       1.0000 0.19900  0.45600  0.42500  Biso   1.000  H
  H3       1.0000 0.56700  0.24200  0.53800  Biso   1.000  H
  H4       1.0000 0.43300  0.75800  0.46200  Biso   1.000  H
  H5       1.0000 0.57700  0.50400  0.42700  Biso   1.000  H
  H6       1.0000 0.42300  0.49600  0.57300  Biso   1.000  H
  H7       1.0000 0.20300  0.41600  0.68000  Biso   1.000  H
  H8       1.0000 0.79700  0.58400  0.32000  Biso   1.000  H
  H9       1.0000 0.09200  0.41200  0.75800  Biso   1.000  H
  H10      1.0000 0.90800  0.58800  0.24200  Biso   1.000  H
  H11      1.0000 0.07900  0.51900  0.70600  Biso   1.000  H
  H12      1.0000 0.92100  0.48100  0.29400  Biso   1.000  H
  H13      1.0000 0.55200  0.28200  0.19600  Biso   1.000  H
  H14      1.0000 0.44800  0.71800  0.80400  Biso   1.000  H
  H15      1.0000 0.43700  0.37300  0.26000  Biso   1.000  H
  H16      1.0000 0.56300  0.62700  0.74000  Biso   1.000  H
  H17      1.0000 0.73800  0.11200  0.26200  Biso   1.000  H
  H18      1.0000 0.26200  0.88800  0.73800  Biso   1.000  H
  H19      1.0000 0.85800  0.91000  0.23900  Biso   1.000  H
  H20      1.0000 0.14200  0.09000  0.76100  Biso   1.000  H
  H21      1.0000 0.02000  0.87500  0.11000  Biso   1.000  H
  H22      1.0000 0.98000  0.12500  0.89000  Biso   1.000  H
  H23      1.0000 0.11900  0.98800  0.17400  Biso   1.000  H
  H24      1.0000 0.88100  0.01200  0.82600  Biso   1.000  H
  H25      1.0000 0.97300  0.20100  0.16700  Biso   1.000  H
  H26      1.0000 0.02700  0.79900  0.83300  Biso   1.000  H
  H27      1.0000 0.76600  0.31900  0.03400  Biso   1.000  H
  H28      1.0000 0.23400  0.68100  0.96600  Biso   1.000  H
  H29      1.0000 0.48900  0.02300  0.84200  Biso   1.000  H
  H30      1.0000 0.51100  0.97700  0.15800  Biso   1.000  H
  H31      1.0000 0.71900  0.92400  0.98900  Biso   1.000  H
  H32      1.0000 0.28100  0.07600  0.01100  Biso   1.000  H
  H33      1.0000 0.42900  0.12400  0.67400  Biso   1.000  H
  H34      1.0000 0.57100  0.87600  0.32600  Biso   1.000  H
  H35      1.0000 0.51600  0.99300  0.62800  Biso   1.000  H
  H36      1.0000 0.48400  0.00700  0.37200  Biso   1.000  H
