data_image0
_cell_length_a       13.761
_cell_length_b       7.374
_cell_length_c       8.709
_cell_angle_alpha    90
_cell_angle_beta     124.515
_cell_angle_gamma    90

_symmetry_space_group_name_H-M    "P 1"
_symmetry_int_tables_number       1

loop_
  _symmetry_equiv_pos_as_xyz
  'x, y, z'

loop_
  _atom_site_label
  _atom_site_occupancy
  _atom_site_fract_x
  _atom_site_fract_y
  _atom_site_fract_z
  _atom_site_thermal_displace_type
  _atom_site_B_iso_or_equiv
  _atom_site_type_symbol
  Cu1      1.0000 0.84469  0.50000  0.85475  Biso   1.000  Cu
  Cu2      1.0000 0.34469  0.00000  0.85475  Biso   1.000  Cu
  Cu3      1.0000 0.15531  0.50000  0.14525  Biso   1.000  Cu
  Cu4      1.0000 0.65531  0.00000  0.14525  Biso   1.000  Cu
  O1       1.0000 0.97880  0.50000  0.82550  Biso   1.000  O
  O2       1.0000 0.47880  0.00000  0.82550  Biso   1.000  O
  O3       1.0000 0.02120  0.50000  0.17450  Biso   1.000  O
  O4       1.0000 0.52120  0.00000  0.17450  Biso   1.000  O
  O5       1.0000 0.82910  0.50000  0.52750  Biso   1.000  O
  O6       1.0000 0.32910  0.00000  0.52750  Biso   1.000  O
  O7       1.0000 0.17090  0.50000  0.47250  Biso   1.000  O
  O8       1.0000 0.67090  0.00000  0.47250  Biso   1.000  O
  O9       1.0000 0.71840  0.50000  0.89840  Biso   1.000  O
  O10      1.0000 0.21840  0.00000  0.89840  Biso   1.000  O
  O11      1.0000 0.28160  0.50000  0.10160  Biso   1.000  O
  O12      1.0000 0.78160  0.00000  0.10160  Biso   1.000  O
  O13      1.0000 0.53300  0.50000  0.80990  Biso   1.000  O
  O14      1.0000 0.03300  0.00000  0.80990  Biso   1.000  O
  O15      1.0000 0.46700  0.50000  0.19010  Biso   1.000  O
  O16      1.0000 0.96700  0.00000  0.19010  Biso   1.000  O
  N1       1.0000 0.83799  0.76930  0.83160  Biso   1.000  N
  N2       1.0000 0.33799  0.26930  0.83160  Biso   1.000  N
  N3       1.0000 0.16201  0.76930  0.16840  Biso   1.000  N
  N4       1.0000 0.66201  0.26930  0.16840  Biso   1.000  N
  N5       1.0000 0.16201  0.23070  0.16840  Biso   1.000  N
  N6       1.0000 0.66201  0.73070  0.16840  Biso   1.000  N
  N7       1.0000 0.83799  0.23070  0.83160  Biso   1.000  N
  N8       1.0000 0.33799  0.73070  0.83160  Biso   1.000  N
  H1       1.0000 0.83350  0.82630  0.91340  Biso   1.000  H
  H2       1.0000 0.33350  0.32630  0.91340  Biso   1.000  H
  H3       1.0000 0.16650  0.82630  0.08660  Biso   1.000  H
  H4       1.0000 0.66650  0.32630  0.08660  Biso   1.000  H
  H5       1.0000 0.16650  0.17370  0.08660  Biso   1.000  H
  H6       1.0000 0.66650  0.67370  0.08660  Biso   1.000  H
  H7       1.0000 0.83350  0.17370  0.91340  Biso   1.000  H
  H8       1.0000 0.33350  0.67370  0.91340  Biso   1.000  H
  H9       1.0000 0.77970  0.80730  0.72510  Biso   1.000  H
  H10      1.0000 0.27970  0.30730  0.72510  Biso   1.000  H
  H11      1.0000 0.22030  0.80730  0.27490  Biso   1.000  H
  H12      1.0000 0.72030  0.30730  0.27490  Biso   1.000  H
  H13      1.0000 0.22030  0.19270  0.27490  Biso   1.000  H
  H14      1.0000 0.72030  0.69270  0.27490  Biso   1.000  H
  H15      1.0000 0.77970  0.19270  0.72510  Biso   1.000  H
  H16      1.0000 0.27970  0.69270  0.72510  Biso   1.000  H
  H17      1.0000 0.89900  0.81310  0.84070  Biso   1.000  H
  H18      1.0000 0.39900  0.31310  0.84070  Biso   1.000  H
  H19      1.0000 0.10100  0.81310  0.15930  Biso   1.000  H
  H20      1.0000 0.60100  0.31310  0.15930  Biso   1.000  H
  H21      1.0000 0.10100  0.18690  0.15930  Biso   1.000  H
  H22      1.0000 0.60100  0.68690  0.15930  Biso   1.000  H
  H23      1.0000 0.89900  0.18690  0.84070  Biso   1.000  H
  H24      1.0000 0.39900  0.68690  0.84070  Biso   1.000  H
  C1       1.0000 0.93630  0.50000  0.65100  Biso   1.000  C
  C2       1.0000 0.43630  0.00000  0.65100  Biso   1.000  C
  C3       1.0000 0.06370  0.50000  0.34900  Biso   1.000  C
  C4       1.0000 0.56370  0.00000  0.34900  Biso   1.000  C
  C5       1.0000 0.02650  0.50000  0.60410  Biso   1.000  C
  C6       1.0000 0.52650  0.00000  0.60410  Biso   1.000  C
  C7       1.0000 0.97350  0.50000  0.39590  Biso   1.000  C
  C8       1.0000 0.47350  0.00000  0.39590  Biso   1.000  C
  H25      1.0000 0.07630  0.39390  0.65990  Biso   1.000  H
  H26      1.0000 0.57630  0.89390  0.65990  Biso   1.000  H
  H27      1.0000 0.92370  0.39390  0.34010  Biso   1.000  H
  H28      1.0000 0.42370  0.89390  0.34010  Biso   1.000  H
  H29      1.0000 0.92370  0.60610  0.34010  Biso   1.000  H
  H30      1.0000 0.42370  0.10610  0.34010  Biso   1.000  H
  H31      1.0000 0.07630  0.60610  0.65990  Biso   1.000  H
  H32      1.0000 0.57630  0.10610  0.65990  Biso   1.000  H
  C9       1.0000 0.60690  0.50000  0.77180  Biso   1.000  C
  C10      1.0000 0.10690  0.00000  0.77180  Biso   1.000  C
  C11      1.0000 0.39310  0.50000  0.22820  Biso   1.000  C
  C12      1.0000 0.89310  0.00000  0.22820  Biso   1.000  C
  C13      1.0000 0.56630  0.50000  0.56940  Biso   1.000  C
  C14      1.0000 0.06630  0.00000  0.56940  Biso   1.000  C
  C15      1.0000 0.43370  0.50000  0.43060  Biso   1.000  C
  C16      1.0000 0.93370  0.00000  0.43060  Biso   1.000  C
  H33      1.0000 0.59870  0.39390  0.54800  Biso   1.000  H
  H34      1.0000 0.09870  0.89390  0.54800  Biso   1.000  H
  H35      1.0000 0.40130  0.39390  0.45200  Biso   1.000  H
  H36      1.0000 0.90130  0.89390  0.45200  Biso   1.000  H
  H37      1.0000 0.40130  0.60610  0.45200  Biso   1.000  H
  H38      1.0000 0.90130  0.10610  0.45200  Biso   1.000  H
  H39      1.0000 0.59870  0.60610  0.54800  Biso   1.000  H
  H40      1.0000 0.09870  0.10610  0.54800  Biso   1.000  H
