data_image0
_cell_length_a       6.8459
_cell_length_b       12.4795
_cell_length_c       21.686
_cell_angle_alpha    90
_cell_angle_beta     90
_cell_angle_gamma    90

_symmetry_space_group_name_H-M    "P 1"
_symmetry_int_tables_number       1

loop_
  _symmetry_equiv_pos_as_xyz
  'x, y, z'

loop_
  _atom_site_label
  _atom_site_occupancy
  _atom_site_fract_x
  _atom_site_fract_y
  _atom_site_fract_z
  _atom_site_thermal_displace_type
  _atom_site_B_iso_or_equiv
  _atom_site_type_symbol
  Cu1      1.0000 0.09361  0.21906  0.83183  Biso   1.000  Cu
  Cu2      1.0000 0.59361  0.28094  0.16817  Biso   1.000  Cu
  Cu3      1.0000 0.90639  0.71906  0.66817  Biso   1.000  Cu
  Cu4      1.0000 0.40639  0.78094  0.33183  Biso   1.000  Cu
  S1       1.0000 0.69999  0.09471  0.67949  Biso   1.000  S
  S2       1.0000 0.19999  0.40529  0.32051  Biso   1.000  S
  S3       1.0000 0.30001  0.59471  0.82051  Biso   1.000  S
  S4       1.0000 0.80001  0.90529  0.17949  Biso   1.000  S
  S5       1.0000 0.63914  0.26372  0.96440  Biso   1.000  S
  S6       1.0000 0.13914  0.23628  0.03560  Biso   1.000  S
  S7       1.0000 0.36086  0.76372  0.53560  Biso   1.000  S
  S8       1.0000 0.86086  0.73628  0.46440  Biso   1.000  S
  O1       1.0000 0.73200  0.01805  0.91390  Biso   1.000  O
  O2       1.0000 0.23200  0.48195  0.08610  Biso   1.000  O
  O3       1.0000 0.26800  0.51805  0.58610  Biso   1.000  O
  O4       1.0000 0.76800  0.98195  0.41390  Biso   1.000  O
  H1       1.0000 0.73300  0.08090  0.92640  Biso   1.000  H
  H2       1.0000 0.23300  0.41910  0.07360  Biso   1.000  H
  H3       1.0000 0.26700  0.58090  0.57360  Biso   1.000  H
  H4       1.0000 0.76700  0.91910  0.42640  Biso   1.000  H
  H5       1.0000 0.81200  0.01100  0.88890  Biso   1.000  H
  H6       1.0000 0.31200  0.48900  0.11110  Biso   1.000  H
  H7       1.0000 0.18800  0.51100  0.61110  Biso   1.000  H
  H8       1.0000 0.68800  0.98900  0.38890  Biso   1.000  H
  O5       1.0000 0.36950  0.55003  0.96679  Biso   1.000  O
  O6       1.0000 0.86950  0.94997  0.03321  Biso   1.000  O
  O7       1.0000 0.63050  0.05003  0.53321  Biso   1.000  O
  O8       1.0000 0.13050  0.44997  0.46679  Biso   1.000  O
  H9       1.0000 0.40000  0.61700  0.96800  Biso   1.000  H
  H10      1.0000 0.90000  0.88300  0.03200  Biso   1.000  H
  H11      1.0000 0.60000  0.11700  0.53200  Biso   1.000  H
  H12      1.0000 0.10000  0.38300  0.46800  Biso   1.000  H
  H13      1.0000 0.33900  0.52600  0.00760  Biso   1.000  H
  H14      1.0000 0.83900  0.97400  0.99240  Biso   1.000  H
  H15      1.0000 0.66100  0.02600  0.49240  Biso   1.000  H
  H16      1.0000 0.16100  0.47400  0.50760  Biso   1.000  H
  N1       1.0000 0.98040  0.36129  0.85529  Biso   1.000  N
  N2       1.0000 0.48040  0.13871  0.14471  Biso   1.000  N
  N3       1.0000 0.01960  0.86129  0.64471  Biso   1.000  N
  N4       1.0000 0.51960  0.63871  0.35529  Biso   1.000  N
  N5       1.0000 0.82400  0.41068  0.82543  Biso   1.000  N
  N6       1.0000 0.32400  0.08932  0.17457  Biso   1.000  N
  N7       1.0000 0.17600  0.91068  0.67457  Biso   1.000  N
  N8       1.0000 0.67600  0.58932  0.32543  Biso   1.000  N
  N9       1.0000 0.89740  0.49944  0.90870  Biso   1.000  N
  N10      1.0000 0.39740  0.00056  0.09130  Biso   1.000  N
  N11      1.0000 0.10260  0.99944  0.59130  Biso   1.000  N
  N12      1.0000 0.60260  0.50056  0.40870  Biso   1.000  N
  N13      1.0000 0.88680  0.57241  0.95645  Biso   1.000  N
  N14      1.0000 0.38680  0.92759  0.04355  Biso   1.000  N
  N15      1.0000 0.11320  0.07241  0.54355  Biso   1.000  N
  N16      1.0000 0.61320  0.42759  0.45645  Biso   1.000  N
  N17      1.0000 0.92620  0.71661  0.01139  Biso   1.000  N
  N18      1.0000 0.42620  0.78339  0.98861  Biso   1.000  N
  N19      1.0000 0.07380  0.21661  0.48861  Biso   1.000  N
  N20      1.0000 0.57380  0.28339  0.51139  Biso   1.000  N
  N21      1.0000 0.81510  0.64296  0.04550  Biso   1.000  N
  N22      1.0000 0.31510  0.85704  0.95450  Biso   1.000  N
  N23      1.0000 0.18490  0.14296  0.45450  Biso   1.000  N
  N24      1.0000 0.68490  0.35704  0.54550  Biso   1.000  N
  N25      1.0000 0.18320  0.06461  0.82877  Biso   1.000  N
  N26      1.0000 0.68320  0.43539  0.17123  Biso   1.000  N
  N27      1.0000 0.81680  0.56461  0.67123  Biso   1.000  N
  N28      1.0000 0.31680  0.93539  0.32877  Biso   1.000  N
  N29      1.0000 0.05950  0.97559  0.83159  Biso   1.000  N
  N30      1.0000 0.55950  0.52441  0.16841  Biso   1.000  N
  N31      1.0000 0.94050  0.47559  0.66841  Biso   1.000  N
  N32      1.0000 0.44050  0.02441  0.33159  Biso   1.000  N
  N33      1.0000 0.35690  0.92265  0.81478  Biso   1.000  N
  N34      1.0000 0.85690  0.57735  0.18522  Biso   1.000  N
  N35      1.0000 0.64310  0.42265  0.68522  Biso   1.000  N
  N36      1.0000 0.14310  0.07735  0.31478  Biso   1.000  N
  N37      1.0000 0.51590  0.85728  0.80295  Biso   1.000  N
  N38      1.0000 0.01590  0.64272  0.19705  Biso   1.000  N
  N39      1.0000 0.48410  0.35728  0.69705  Biso   1.000  N
  N40      1.0000 0.98410  0.14272  0.30295  Biso   1.000  N
  N41      1.0000 0.73360  0.76858  0.75160  Biso   1.000  N
  N42      1.0000 0.23360  0.73142  0.24840  Biso   1.000  N
  N43      1.0000 0.26640  0.26858  0.74840  Biso   1.000  N
  N44      1.0000 0.76640  0.23142  0.25160  Biso   1.000  N
  N45      1.0000 0.77280  0.75644  0.81500  Biso   1.000  N
  N46      1.0000 0.27280  0.74356  0.18500  Biso   1.000  N
  N47      1.0000 0.22720  0.25644  0.68500  Biso   1.000  N
  N48      1.0000 0.72720  0.24356  0.31500  Biso   1.000  N
  N49      1.0000 0.85420  0.17667  0.78916  Biso   1.000  N
  N50      1.0000 0.35420  0.32333  0.21084  Biso   1.000  N
  N51      1.0000 0.14580  0.67667  0.71084  Biso   1.000  N
  N52      1.0000 0.64580  0.82333  0.28916  Biso   1.000  N
  N53      1.0000 0.31950  0.24950  0.88506  Biso   1.000  N
  N54      1.0000 0.81950  0.25050  0.11494  Biso   1.000  N
  N55      1.0000 0.68050  0.74950  0.61494  Biso   1.000  N
  N56      1.0000 0.18050  0.75050  0.38506  Biso   1.000  N
  C1       1.0000 0.02250  0.41579  0.90481  Biso   1.000  C
  C2       1.0000 0.52250  0.08421  0.09519  Biso   1.000  C
  C3       1.0000 0.97750  0.91579  0.59519  Biso   1.000  C
  C4       1.0000 0.47750  0.58421  0.40481  Biso   1.000  C
  H17      1.0000 0.12370  0.39950  0.93330  Biso   1.000  H
  H18      1.0000 0.62370  0.10050  0.06670  Biso   1.000  H
  H19      1.0000 0.87630  0.89950  0.56670  Biso   1.000  H
  H20      1.0000 0.37630  0.60050  0.43330  Biso   1.000  H
  C5       1.0000 0.77840  0.49338  0.85857  Biso   1.000  C
  C6       1.0000 0.27840  0.00662  0.14143  Biso   1.000  C
  C7       1.0000 0.22160  0.99338  0.64143  Biso   1.000  C
  C8       1.0000 0.72160  0.50662  0.35857  Biso   1.000  C
  H21      1.0000 0.67680  0.54260  0.84920  Biso   1.000  H
  H22      1.0000 0.17680  0.95740  0.15080  Biso   1.000  H
  H23      1.0000 0.32320  0.04260  0.65080  Biso   1.000  H
  H24      1.0000 0.82320  0.45740  0.34920  Biso   1.000  H
  C9       1.0000 0.96810  0.67196  0.95894  Biso   1.000  C
  C10      1.0000 0.46810  0.82804  0.04106  Biso   1.000  C
  C11      1.0000 0.03190  0.17196  0.54106  Biso   1.000  C
  C12      1.0000 0.53190  0.32804  0.45894  Biso   1.000  C
  H25      1.0000 0.04390  0.70380  0.92720  Biso   1.000  H
  H26      1.0000 0.54390  0.79620  0.07280  Biso   1.000  H
  H27      1.0000 0.95610  0.20380  0.57280  Biso   1.000  H
  H28      1.0000 0.45610  0.29620  0.42720  Biso   1.000  H
  C13      1.0000 0.79420  0.55768  0.01155  Biso   1.000  C
  C14      1.0000 0.29420  0.94232  0.98845  Biso   1.000  C
  C15      1.0000 0.20580  0.05768  0.48845  Biso   1.000  C
  C16      1.0000 0.70580  0.44232  0.51155  Biso   1.000  C
  H29      1.0000 0.72520  0.49490  0.02330  Biso   1.000  H
  H30      1.0000 0.22520  0.00510  0.97670  Biso   1.000  H
  H31      1.0000 0.27480  0.99490  0.47670  Biso   1.000  H
  H32      1.0000 0.77480  0.50510  0.52330  Biso   1.000  H
  C17      1.0000 0.36130  0.03098  0.81885  Biso   1.000  C
  C18      1.0000 0.86130  0.46902  0.18115  Biso   1.000  C
  C19      1.0000 0.63870  0.53098  0.68115  Biso   1.000  C
  C20      1.0000 0.13870  0.96902  0.31885  Biso   1.000  C
  H33      1.0000 0.47420  0.07480  0.81510  Biso   1.000  H
  H34      1.0000 0.97420  0.42520  0.18490  Biso   1.000  H
  H35      1.0000 0.52580  0.57480  0.68490  Biso   1.000  H
  H36      1.0000 0.02580  0.92520  0.31510  Biso   1.000  H
  C21      1.0000 0.16930  0.89223  0.82294  Biso   1.000  C
  C22      1.0000 0.66930  0.60777  0.17706  Biso   1.000  C
  C23      1.0000 0.83070  0.39223  0.67706  Biso   1.000  C
  C24      1.0000 0.33070  0.10777  0.32294  Biso   1.000  C
  H37      1.0000 0.12430  0.82020  0.82240  Biso   1.000  H
  H38      1.0000 0.62430  0.67980  0.17760  Biso   1.000  H
  H39      1.0000 0.87570  0.32020  0.67760  Biso   1.000  H
  H40      1.0000 0.37570  0.17980  0.32240  Biso   1.000  H
  C25      1.0000 0.58120  0.82842  0.74596  Biso   1.000  C
  C26      1.0000 0.08120  0.67158  0.25404  Biso   1.000  C
  C27      1.0000 0.41880  0.32842  0.75404  Biso   1.000  C
  C28      1.0000 0.91880  0.17158  0.24596  Biso   1.000  C
  H41      1.0000 0.52340  0.84920  0.70800  Biso   1.000  H
  H42      1.0000 0.02340  0.65080  0.29200  Biso   1.000  H
  H43      1.0000 0.47660  0.34920  0.79200  Biso   1.000  H
  H44      1.0000 0.97660  0.15080  0.20800  Biso   1.000  H
  C29      1.0000 0.63890  0.81012  0.84426  Biso   1.000  C
  C30      1.0000 0.13890  0.68988  0.15574  Biso   1.000  C
  C31      1.0000 0.36110  0.31012  0.65574  Biso   1.000  C
  C32      1.0000 0.86110  0.18988  0.34426  Biso   1.000  C
  H45      1.0000 0.62840  0.81560  0.88780  Biso   1.000  H
  H46      1.0000 0.12840  0.68440  0.11220  Biso   1.000  H
  H47      1.0000 0.37160  0.31560  0.61220  Biso   1.000  H
  H48      1.0000 0.87160  0.18440  0.38780  Biso   1.000  H
  C33      1.0000 0.79140  0.14143  0.74383  Biso   1.000  C
  C34      1.0000 0.29140  0.35857  0.25617  Biso   1.000  C
  C35      1.0000 0.20860  0.64143  0.75617  Biso   1.000  C
  C36      1.0000 0.70860  0.85857  0.24383  Biso   1.000  C
  C37      1.0000 0.45230  0.25577  0.91788  Biso   1.000  C
  C38      1.0000 0.95230  0.24423  0.08212  Biso   1.000  C
  C39      1.0000 0.54770  0.75577  0.58212  Biso   1.000  C
  C40      1.0000 0.04770  0.74423  0.41788  Biso   1.000  C
