data_image0
_cell_length_a       6.9047
_cell_length_b       12.5332
_cell_length_c       21.8652
_cell_angle_alpha    90
_cell_angle_beta     90
_cell_angle_gamma    90

_symmetry_space_group_name_H-M    "P 1"
_symmetry_int_tables_number       1

loop_
  _symmetry_equiv_pos_as_xyz
  'x, y, z'

loop_
  _atom_site_label
  _atom_site_occupancy
  _atom_site_fract_x
  _atom_site_fract_y
  _atom_site_fract_z
  _atom_site_thermal_displace_type
  _atom_site_B_iso_or_equiv
  _atom_site_type_symbol
  Cu1      1.0000 0.40468  0.22025  0.83140  Biso   1.000  Cu
  Cu2      1.0000 0.09532  0.77975  0.33140  Biso   1.000  Cu
  Cu3      1.0000 0.90468  0.27975  0.16860  Biso   1.000  Cu
  Cu4      1.0000 0.59532  0.72025  0.66860  Biso   1.000  Cu
  S1       1.0000 0.79981  0.09578  0.68072  Biso   1.000  S
  S2       1.0000 0.70019  0.90422  0.18072  Biso   1.000  S
  S3       1.0000 0.29981  0.40422  0.31928  Biso   1.000  S
  S4       1.0000 0.20019  0.59578  0.81928  Biso   1.000  S
  S5       1.0000 0.86830  0.26397  0.96452  Biso   1.000  S
  S6       1.0000 0.63170  0.73603  0.46452  Biso   1.000  S
  S7       1.0000 0.36830  0.23603  0.03548  Biso   1.000  S
  S8       1.0000 0.13170  0.76397  0.53548  Biso   1.000  S
  O1       1.0000 0.62740  0.94852  0.03402  Biso   1.000  O
  O2       1.0000 0.87260  0.05148  0.53402  Biso   1.000  O
  O3       1.0000 0.12740  0.55148  0.96598  Biso   1.000  O
  O4       1.0000 0.37260  0.44852  0.46598  Biso   1.000  O
  H1       1.0000 0.58090  0.88580  0.03530  Biso   1.000  H
  H2       1.0000 0.91910  0.11420  0.53530  Biso   1.000  H
  H3       1.0000 0.08090  0.61420  0.96470  Biso   1.000  H
  H4       1.0000 0.41910  0.38580  0.46470  Biso   1.000  H
  H5       1.0000 0.64820  0.96430  0.99680  Biso   1.000  H
  H6       1.0000 0.85180  0.03570  0.49680  Biso   1.000  H
  H7       1.0000 0.14820  0.53570  0.00320  Biso   1.000  H
  H8       1.0000 0.35180  0.46430  0.50320  Biso   1.000  H
  O5       1.0000 0.76180  0.01984  0.91451  Biso   1.000  O
  O6       1.0000 0.73820  0.98016  0.41451  Biso   1.000  O
  O7       1.0000 0.26180  0.48016  0.08549  Biso   1.000  O
  O8       1.0000 0.23820  0.51984  0.58549  Biso   1.000  O
  H9       1.0000 0.75610  0.08410  0.92680  Biso   1.000  H
  H10      1.0000 0.74390  0.91590  0.42680  Biso   1.000  H
  H11      1.0000 0.25610  0.41590  0.07320  Biso   1.000  H
  H12      1.0000 0.24390  0.58410  0.57320  Biso   1.000  H
  H13      1.0000 0.68100  0.01210  0.88550  Biso   1.000  H
  H14      1.0000 0.81900  0.98790  0.38550  Biso   1.000  H
  H15      1.0000 0.18100  0.48790  0.11450  Biso   1.000  H
  H16      1.0000 0.31900  0.51210  0.61450  Biso   1.000  H
  N1       1.0000 0.31410  0.06553  0.82787  Biso   1.000  N
  N2       1.0000 0.18590  0.93447  0.32787  Biso   1.000  N
  N3       1.0000 0.81410  0.43447  0.17213  Biso   1.000  N
  N4       1.0000 0.68590  0.56553  0.67213  Biso   1.000  N
  N5       1.0000 0.43770  0.97737  0.83130  Biso   1.000  N
  N6       1.0000 0.06230  0.02263  0.33130  Biso   1.000  N
  N7       1.0000 0.93770  0.52263  0.16870  Biso   1.000  N
  N8       1.0000 0.56230  0.47737  0.66870  Biso   1.000  N
  N9       1.0000 0.14250  0.92424  0.81393  Biso   1.000  N
  N10      1.0000 0.35750  0.07576  0.31393  Biso   1.000  N
  N11      1.0000 0.64250  0.57576  0.18607  Biso   1.000  N
  N12      1.0000 0.85750  0.42424  0.68607  Biso   1.000  N
  N13      1.0000 0.72990  0.75907  0.81414  Biso   1.000  N
  N14      1.0000 0.77010  0.24093  0.31414  Biso   1.000  N
  N15      1.0000 0.22990  0.74093  0.18586  Biso   1.000  N
  N16      1.0000 0.27010  0.25907  0.68586  Biso   1.000  N
  N17      1.0000 0.76930  0.77051  0.75148  Biso   1.000  N
  N18      1.0000 0.73070  0.22949  0.25148  Biso   1.000  N
  N19      1.0000 0.26930  0.72949  0.24852  Biso   1.000  N
  N20      1.0000 0.23070  0.27051  0.74852  Biso   1.000  N
  N21      1.0000 0.98540  0.85889  0.80226  Biso   1.000  N
  N22      1.0000 0.51460  0.14111  0.30226  Biso   1.000  N
  N23      1.0000 0.48540  0.64111  0.19774  Biso   1.000  N
  N24      1.0000 0.01460  0.35889  0.69774  Biso   1.000  N
  N25      1.0000 0.52030  0.36161  0.85532  Biso   1.000  N
  N26      1.0000 0.97970  0.63839  0.35532  Biso   1.000  N
  N27      1.0000 0.02030  0.13839  0.14468  Biso   1.000  N
  N28      1.0000 0.47970  0.86161  0.64468  Biso   1.000  N
  N29      1.0000 0.67540  0.41012  0.82639  Biso   1.000  N
  N30      1.0000 0.82460  0.58988  0.32639  Biso   1.000  N
  N31      1.0000 0.17540  0.08988  0.17361  Biso   1.000  N
  N32      1.0000 0.32460  0.91012  0.67361  Biso   1.000  N
  N33      1.0000 0.60220  0.49857  0.90889  Biso   1.000  N
  N34      1.0000 0.89780  0.50143  0.40889  Biso   1.000  N
  N35      1.0000 0.10220  0.00143  0.09111  Biso   1.000  N
  N36      1.0000 0.39780  0.99857  0.59111  Biso   1.000  N
  N37      1.0000 0.68110  0.64115  0.04494  Biso   1.000  N
  N38      1.0000 0.81890  0.35885  0.54494  Biso   1.000  N
  N39      1.0000 0.18110  0.85885  0.95506  Biso   1.000  N
  N40      1.0000 0.31890  0.14115  0.45506  Biso   1.000  N
  N41      1.0000 0.57540  0.71456  0.01082  Biso   1.000  N
  N42      1.0000 0.92460  0.28544  0.51082  Biso   1.000  N
  N43      1.0000 0.07540  0.78544  0.98918  Biso   1.000  N
  N44      1.0000 0.42460  0.21456  0.48918  Biso   1.000  N
  N45      1.0000 0.61220  0.57128  0.95664  Biso   1.000  N
  N46      1.0000 0.88780  0.42872  0.45664  Biso   1.000  N
  N47      1.0000 0.11220  0.92872  0.04336  Biso   1.000  N
  N48      1.0000 0.38780  0.07128  0.54336  Biso   1.000  N
  N49      1.0000 0.64020  0.17816  0.78821  Biso   1.000  N
  N50      1.0000 0.85980  0.82184  0.28821  Biso   1.000  N
  N51      1.0000 0.14020  0.32184  0.21179  Biso   1.000  N
  N52      1.0000 0.35980  0.67816  0.71179  Biso   1.000  N
  N53      1.0000 0.18250  0.24998  0.88514  Biso   1.000  N
  N54      1.0000 0.31750  0.75002  0.38514  Biso   1.000  N
  N55      1.0000 0.68250  0.25002  0.11486  Biso   1.000  N
  N56      1.0000 0.81750  0.74998  0.61486  Biso   1.000  N
  C1       1.0000 0.13850  0.03238  0.81808  Biso   1.000  C
  C2       1.0000 0.36150  0.96762  0.31808  Biso   1.000  C
  C3       1.0000 0.63850  0.46762  0.18192  Biso   1.000  C
  C4       1.0000 0.86150  0.53238  0.68192  Biso   1.000  C
  H17      1.0000 0.02790  0.07570  0.81450  Biso   1.000  H
  H18      1.0000 0.47210  0.92430  0.31450  Biso   1.000  H
  H19      1.0000 0.52790  0.42430  0.18550  Biso   1.000  H
  H20      1.0000 0.97210  0.57570  0.68550  Biso   1.000  H
  C5       1.0000 0.32860  0.89382  0.82260  Biso   1.000  C
  C6       1.0000 0.17140  0.10618  0.32260  Biso   1.000  C
  C7       1.0000 0.82860  0.60618  0.17740  Biso   1.000  C
  C8       1.0000 0.67140  0.39382  0.67740  Biso   1.000  C
  H21      1.0000 0.37270  0.82290  0.82240  Biso   1.000  H
  H22      1.0000 0.12730  0.17710  0.32240  Biso   1.000  H
  H23      1.0000 0.87270  0.67710  0.17760  Biso   1.000  H
  H24      1.0000 0.62730  0.32290  0.67760  Biso   1.000  H
  C9       1.0000 0.86290  0.81269  0.84297  Biso   1.000  C
  C10      1.0000 0.63710  0.18731  0.34297  Biso   1.000  C
  C11      1.0000 0.36290  0.68731  0.15703  Biso   1.000  C
  C12      1.0000 0.13710  0.31269  0.65703  Biso   1.000  C
  H25      1.0000 0.87280  0.81860  0.88570  Biso   1.000  H
  H26      1.0000 0.62720  0.18140  0.38570  Biso   1.000  H
  H27      1.0000 0.37280  0.68140  0.11430  Biso   1.000  H
  H28      1.0000 0.12720  0.31860  0.61430  Biso   1.000  H
  C13      1.0000 0.92120  0.82999  0.74566  Biso   1.000  C
  C14      1.0000 0.57880  0.17001  0.24566  Biso   1.000  C
  C15      1.0000 0.42120  0.67001  0.25434  Biso   1.000  C
  C16      1.0000 0.07880  0.32999  0.75434  Biso   1.000  C
  H29      1.0000 0.97830  0.85010  0.70840  Biso   1.000  H
  H30      1.0000 0.52170  0.14990  0.20840  Biso   1.000  H
  H31      1.0000 0.47830  0.64990  0.29160  Biso   1.000  H
  H32      1.0000 0.02170  0.35010  0.79160  Biso   1.000  H
  C17      1.0000 0.47810  0.41586  0.90471  Biso   1.000  C
  C18      1.0000 0.02190  0.58414  0.40471  Biso   1.000  C
  C19      1.0000 0.97810  0.08414  0.09529  Biso   1.000  C
  C20      1.0000 0.52190  0.91586  0.59529  Biso   1.000  C
  H33      1.0000 0.37840  0.39990  0.93250  Biso   1.000  H
  H34      1.0000 0.12160  0.60010  0.43250  Biso   1.000  H
  H35      1.0000 0.87840  0.10010  0.06750  Biso   1.000  H
  H36      1.0000 0.62160  0.89990  0.56750  Biso   1.000  H
  C21      1.0000 0.72240  0.49264  0.85969  Biso   1.000  C
  C22      1.0000 0.77760  0.50736  0.35969  Biso   1.000  C
  C23      1.0000 0.22240  0.00736  0.14031  Biso   1.000  C
  C24      1.0000 0.27760  0.99264  0.64031  Biso   1.000  C
  H37      1.0000 0.82360  0.54050  0.85100  Biso   1.000  H
  H38      1.0000 0.67640  0.45950  0.35100  Biso   1.000  H
  H39      1.0000 0.32360  0.95950  0.14900  Biso   1.000  H
  H40      1.0000 0.17640  0.04050  0.64900  Biso   1.000  H
  C25      1.0000 0.70260  0.55633  0.01149  Biso   1.000  C
  C26      1.0000 0.79740  0.44367  0.51149  Biso   1.000  C
  C27      1.0000 0.20260  0.94367  0.98851  Biso   1.000  C
  C28      1.0000 0.29740  0.05633  0.48851  Biso   1.000  C
  H41      1.0000 0.76990  0.49440  0.02320  Biso   1.000  H
  H42      1.0000 0.73010  0.50560  0.52320  Biso   1.000  H
  H43      1.0000 0.26990  0.00560  0.97680  Biso   1.000  H
  H44      1.0000 0.23010  0.99440  0.47680  Biso   1.000  H
  C29      1.0000 0.53550  0.67114  0.95857  Biso   1.000  C
  C30      1.0000 0.96450  0.32886  0.45857  Biso   1.000  C
  C31      1.0000 0.03550  0.82886  0.04143  Biso   1.000  C
  C32      1.0000 0.46450  0.17114  0.54143  Biso   1.000  C
  H45      1.0000 0.46470  0.70360  0.92690  Biso   1.000  H
  H46      1.0000 0.03530  0.29640  0.42690  Biso   1.000  H
  H47      1.0000 0.96470  0.79640  0.07310  Biso   1.000  H
  H48      1.0000 0.53530  0.20360  0.57310  Biso   1.000  H
  C33      1.0000 0.70480  0.14259  0.74378  Biso   1.000  C
  C34      1.0000 0.79520  0.85741  0.24378  Biso   1.000  C
  C35      1.0000 0.20480  0.35741  0.25622  Biso   1.000  C
  C36      1.0000 0.29520  0.64259  0.75622  Biso   1.000  C
  C37      1.0000 0.05170  0.25614  0.91798  Biso   1.000  C
  C38      1.0000 0.44830  0.74386  0.41798  Biso   1.000  C
  C39      1.0000 0.55170  0.24386  0.08202  Biso   1.000  C
  C40      1.0000 0.94830  0.75614  0.58202  Biso   1.000  C
