data_image0
_cell_length_a       8.531
_cell_length_b       6.87
_cell_length_c       14.463
_cell_angle_alpha    90
_cell_angle_beta     93.84
_cell_angle_gamma    90

_symmetry_space_group_name_H-M    "P 1"
_symmetry_int_tables_number       1

loop_
  _symmetry_equiv_pos_as_xyz
  'x, y, z'

loop_
  _atom_site_label
  _atom_site_occupancy
  _atom_site_fract_x
  _atom_site_fract_y
  _atom_site_fract_z
  _atom_site_thermal_displace_type
  _atom_site_B_iso_or_equiv
  _atom_site_type_symbol
  Cu1      1.0000 0.45740  0.17020  0.41220  Biso   1.000  Cu
  Cu2      1.0000 0.54260  0.17020  0.08780  Biso   1.000  Cu
  Cu3      1.0000 0.54260  0.82980  0.58780  Biso   1.000  Cu
  Cu4      1.0000 0.45740  0.82980  0.91220  Biso   1.000  Cu
  C1       1.0000 0.67100  0.84100  0.35280  Biso   1.000  C
  C2       1.0000 0.32900  0.84100  0.14720  Biso   1.000  C
  C3       1.0000 0.32900  0.15900  0.64720  Biso   1.000  C
  C4       1.0000 0.67100  0.15900  0.85280  Biso   1.000  C
  C5       1.0000 0.41600  0.52400  0.49150  Biso   1.000  C
  C6       1.0000 0.58400  0.52400  0.00850  Biso   1.000  C
  C7       1.0000 0.58400  0.47600  0.50850  Biso   1.000  C
  C8       1.0000 0.41600  0.47600  0.99150  Biso   1.000  C
  C9       1.0000 0.16500  0.43200  0.42500  Biso   1.000  C
  C10      1.0000 0.83500  0.43200  0.07500  Biso   1.000  C
  C11      1.0000 0.83500  0.56800  0.57500  Biso   1.000  C
  C12      1.0000 0.16500  0.56800  0.92500  Biso   1.000  C
  C13      1.0000 0.11700  0.08500  0.36700  Biso   1.000  C
  C14      1.0000 0.88300  0.08500  0.13300  Biso   1.000  C
  C15      1.0000 0.88300  0.91500  0.63300  Biso   1.000  C
  C16      1.0000 0.11700  0.91500  0.86700  Biso   1.000  C
  C17      1.0000 0.07700  0.25000  0.40300  Biso   1.000  C
  C18      1.0000 0.92300  0.25000  0.09700  Biso   1.000  C
  C19      1.0000 0.92300  0.75000  0.59700  Biso   1.000  C
  C20      1.0000 0.07700  0.75000  0.90300  Biso   1.000  C
  N1       1.0000 0.59800  0.96000  0.38300  Biso   1.000  N
  N2       1.0000 0.40200  0.96000  0.11700  Biso   1.000  N
  N3       1.0000 0.40200  0.04000  0.61700  Biso   1.000  N
  N4       1.0000 0.59800  0.04000  0.88300  Biso   1.000  N
  N5       1.0000 0.27200  0.99900  0.37920  Biso   1.000  N
  N6       1.0000 0.72800  0.99900  0.12080  Biso   1.000  N
  N7       1.0000 0.72800  0.00100  0.62080  Biso   1.000  N
  N8       1.0000 0.27200  0.00100  0.87920  Biso   1.000  N
  N9       1.0000 0.33200  0.39600  0.44330  Biso   1.000  N
  N10      1.0000 0.66800  0.39600  0.05670  Biso   1.000  N
  N11      1.0000 0.66800  0.60400  0.55670  Biso   1.000  N
  N12      1.0000 0.33200  0.60400  0.94330  Biso   1.000  N
  O1       1.0000 0.50000  0.33000  0.25000  Biso   1.000  O
  O2       1.0000 0.50000  0.67000  0.75000  Biso   1.000  O
  O3       1.0000 0.36700  0.68700  0.52300  Biso   1.000  O
  O4       1.0000 0.63300  0.68700  0.97700  Biso   1.000  O
  O5       1.0000 0.63300  0.31300  0.47700  Biso   1.000  O
  O6       1.0000 0.36700  0.31300  0.02300  Biso   1.000  O
  S1       1.0000 0.78150  0.67420  0.30920  Biso   1.000  S
  S2       1.0000 0.21850  0.67420  0.19080  Biso   1.000  S
  S3       1.0000 0.21850  0.32580  0.69080  Biso   1.000  S
  S4       1.0000 0.78150  0.32580  0.80920  Biso   1.000  S
