data_image0
_cell_length_a       7.5915
_cell_length_b       8.405
_cell_length_c       24.204
_cell_angle_alpha    90
_cell_angle_beta     99.05
_cell_angle_gamma    90

_symmetry_space_group_name_H-M    "P 1"
_symmetry_int_tables_number       1

loop_
  _symmetry_equiv_pos_as_xyz
  'x, y, z'

loop_
  _atom_site_label
  _atom_site_occupancy
  _atom_site_fract_x
  _atom_site_fract_y
  _atom_site_fract_z
  _atom_site_thermal_displace_type
  _atom_site_B_iso_or_equiv
  _atom_site_type_symbol
  Cu1      1.0000 0.46863  0.87549  0.88612  Biso   1.000  Cu
  Cu2      1.0000 0.53137  0.37549  0.61388  Biso   1.000  Cu
  Cu3      1.0000 0.53137  0.12451  0.11388  Biso   1.000  Cu
  Cu4      1.0000 0.46863  0.62451  0.38612  Biso   1.000  Cu
  O1       1.0000 0.02590  0.71420  0.90045  Biso   1.000  O
  O2       1.0000 0.97410  0.21420  0.59955  Biso   1.000  O
  O3       1.0000 0.97410  0.28580  0.09955  Biso   1.000  O
  O4       1.0000 0.02590  0.78580  0.40045  Biso   1.000  O
  O5       1.0000 0.66010  0.75140  0.84282  Biso   1.000  O
  O6       1.0000 0.33990  0.25140  0.65718  Biso   1.000  O
  O7       1.0000 0.33990  0.24860  0.15718  Biso   1.000  O
  O8       1.0000 0.66010  0.74860  0.34282  Biso   1.000  O
  H1       1.0000 0.75870  0.74770  0.85570  Biso   1.000  H
  H2       1.0000 0.24130  0.24770  0.64430  Biso   1.000  H
  H3       1.0000 0.24130  0.25230  0.14430  Biso   1.000  H
  H4       1.0000 0.75870  0.75230  0.35570  Biso   1.000  H
  H5       1.0000 0.63120  0.71100  0.81030  Biso   1.000  H
  H6       1.0000 0.36880  0.21100  0.68970  Biso   1.000  H
  H7       1.0000 0.36880  0.28900  0.18970  Biso   1.000  H
  H8       1.0000 0.63120  0.78900  0.31030  Biso   1.000  H
  O9       1.0000 0.31700  0.69090  0.89650  Biso   1.000  O
  O10      1.0000 0.68300  0.19090  0.60350  Biso   1.000  O
  O11      1.0000 0.68300  0.30910  0.10350  Biso   1.000  O
  O12      1.0000 0.31700  0.80910  0.39650  Biso   1.000  O
  O13      1.0000 0.93330  0.58360  0.80065  Biso   1.000  O
  O14      1.0000 0.06670  0.08360  0.69935  Biso   1.000  O
  O15      1.0000 0.06670  0.41640  0.19935  Biso   1.000  O
  O16      1.0000 0.93330  0.91640  0.30065  Biso   1.000  O
  O17      1.0000 0.61000  0.52180  0.74510  Biso   1.000  O
  O18      1.0000 0.39000  0.02180  0.75490  Biso   1.000  O
  O19      1.0000 0.39000  0.47820  0.25490  Biso   1.000  O
  O20      1.0000 0.61000  0.97820  0.24510  Biso   1.000  O
  O21      1.0000 0.72520  0.45480  0.66791  Biso   1.000  O
  O22      1.0000 0.27480  0.95480  0.83209  Biso   1.000  O
  O23      1.0000 0.27480  0.54520  0.33209  Biso   1.000  O
  O24      1.0000 0.72520  0.04520  0.16791  Biso   1.000  O
  N1       1.0000 0.60730  0.08090  0.89755  Biso   1.000  N
  N2       1.0000 0.39270  0.58090  0.60245  Biso   1.000  N
  N3       1.0000 0.39270  0.91910  0.10245  Biso   1.000  N
  N4       1.0000 0.60730  0.41910  0.39755  Biso   1.000  N
  N5       1.0000 0.61380  0.83380  0.96187  Biso   1.000  N
  N6       1.0000 0.38620  0.33380  0.53813  Biso   1.000  N
  N7       1.0000 0.38620  0.16620  0.03813  Biso   1.000  N
  N8       1.0000 0.61380  0.66620  0.46187  Biso   1.000  N
  C1       1.0000 0.15130  0.67600  0.87650  Biso   1.000  C
  C2       1.0000 0.84870  0.17600  0.62350  Biso   1.000  C
  C3       1.0000 0.84870  0.32400  0.12350  Biso   1.000  C
  C4       1.0000 0.15130  0.82400  0.37650  Biso   1.000  C
  C5       1.0000 0.11110  0.60060  0.82050  Biso   1.000  C
  C6       1.0000 0.88890  0.10060  0.67950  Biso   1.000  C
  C7       1.0000 0.88890  0.39940  0.17950  Biso   1.000  C
  C8       1.0000 0.11110  0.89940  0.32050  Biso   1.000  C
  C9       1.0000 0.20740  0.55040  0.78130  Biso   1.000  C
  C10      1.0000 0.79260  0.05040  0.71870  Biso   1.000  C
  C11      1.0000 0.79260  0.44960  0.21870  Biso   1.000  C
  C12      1.0000 0.20740  0.94960  0.28130  Biso   1.000  C
  H9       1.0000 0.33110  0.54920  0.78450  Biso   1.000  H
  H10      1.0000 0.66890  0.04920  0.71550  Biso   1.000  H
  H11      1.0000 0.66890  0.45080  0.21550  Biso   1.000  H
  H12      1.0000 0.33110  0.95080  0.28450  Biso   1.000  H
  C13      1.0000 0.08400  0.50030  0.73470  Biso   1.000  C
  C14      1.0000 0.91600  0.00030  0.76530  Biso   1.000  C
  C15      1.0000 0.91600  0.49970  0.26530  Biso   1.000  C
  C16      1.0000 0.08400  0.99970  0.23470  Biso   1.000  C
  H13      1.0000 0.11070  0.45980  0.70120  Biso   1.000  H
  H14      1.0000 0.88930  0.95980  0.79880  Biso   1.000  H
  H15      1.0000 0.88930  0.54020  0.29880  Biso   1.000  H
  H16      1.0000 0.11070  0.04020  0.20120  Biso   1.000  H
  C17      1.0000 0.91990  0.52250  0.74810  Biso   1.000  C
  C18      1.0000 0.08010  0.02250  0.75190  Biso   1.000  C
  C19      1.0000 0.08010  0.47750  0.25190  Biso   1.000  C
  C20      1.0000 0.91990  0.97750  0.24810  Biso   1.000  C
  C21      1.0000 0.73470  0.49650  0.71905  Biso   1.000  C
  C22      1.0000 0.26530  0.99650  0.78095  Biso   1.000  C
  C23      1.0000 0.26530  0.50350  0.28095  Biso   1.000  C
  C24      1.0000 0.73470  0.00350  0.21905  Biso   1.000  C
  C25      1.0000 0.61340  0.69890  0.99080  Biso   1.000  C
  C26      1.0000 0.38660  0.19890  0.50920  Biso   1.000  C
  C27      1.0000 0.38660  0.30110  0.00920  Biso   1.000  C
  C28      1.0000 0.61340  0.80110  0.49080  Biso   1.000  C
  H17      1.0000 0.54900  0.61260  0.97420  Biso   1.000  H
  H18      1.0000 0.45100  0.11260  0.52580  Biso   1.000  H
  H19      1.0000 0.45100  0.38740  0.02580  Biso   1.000  H
  H20      1.0000 0.54900  0.88740  0.47420  Biso   1.000  H
  C29      1.0000 0.70440  0.68230  0.04430  Biso   1.000  C
  C30      1.0000 0.29560  0.18230  0.45570  Biso   1.000  C
  C31      1.0000 0.29560  0.31770  0.95570  Biso   1.000  C
  C32      1.0000 0.70440  0.81770  0.54430  Biso   1.000  C
  H21      1.0000 0.70240  0.58650  0.06330  Biso   1.000  H
  H22      1.0000 0.29760  0.08650  0.43670  Biso   1.000  H
  H23      1.0000 0.29760  0.41350  0.93670  Biso   1.000  H
  H24      1.0000 0.70240  0.91350  0.56330  Biso   1.000  H
  C33      1.0000 0.79880  0.81070  0.06910  Biso   1.000  C
  C34      1.0000 0.20120  0.31070  0.43090  Biso   1.000  C
  C35      1.0000 0.20120  0.18930  0.93090  Biso   1.000  C
  C36      1.0000 0.79880  0.68930  0.56910  Biso   1.000  C
  H25      1.0000 0.85980  0.80300  0.10540  Biso   1.000  H
  H26      1.0000 0.14020  0.30300  0.39460  Biso   1.000  H
  H27      1.0000 0.14020  0.19700  0.89460  Biso   1.000  H
  H28      1.0000 0.85980  0.69700  0.60540  Biso   1.000  H
  C37      1.0000 0.80200  0.95080  0.03941  Biso   1.000  C
  C38      1.0000 0.19800  0.45080  0.46059  Biso   1.000  C
  C39      1.0000 0.19800  0.04920  0.96059  Biso   1.000  C
  C40      1.0000 0.80200  0.54920  0.53941  Biso   1.000  C
  H29      1.0000 0.86560  0.03820  0.05550  Biso   1.000  H
  H30      1.0000 0.13440  0.53820  0.44450  Biso   1.000  H
  H31      1.0000 0.13440  0.96180  0.94450  Biso   1.000  H
  H32      1.0000 0.86560  0.46180  0.55550  Biso   1.000  H
  C41      1.0000 0.70910  0.95940  0.98543  Biso   1.000  C
  C42      1.0000 0.29090  0.45940  0.51457  Biso   1.000  C
  C43      1.0000 0.29090  0.04060  0.01457  Biso   1.000  C
  C44      1.0000 0.70910  0.54060  0.48543  Biso   1.000  C
  C45      1.0000 0.70410  0.09960  0.94896  Biso   1.000  C
  C46      1.0000 0.29590  0.59960  0.55104  Biso   1.000  C
  C47      1.0000 0.29590  0.90040  0.05104  Biso   1.000  C
  C48      1.0000 0.70410  0.40040  0.44896  Biso   1.000  C
  C49      1.0000 0.79340  0.24110  0.96470  Biso   1.000  C
  C50      1.0000 0.20660  0.74110  0.53530  Biso   1.000  C
  C51      1.0000 0.20660  0.75890  0.03530  Biso   1.000  C
  C52      1.0000 0.79340  0.25890  0.46470  Biso   1.000  C
  H33      1.0000 0.85690  0.25370  0.00050  Biso   1.000  H
  H34      1.0000 0.14310  0.75370  0.49950  Biso   1.000  H
  H35      1.0000 0.14310  0.74630  0.99950  Biso   1.000  H
  H36      1.0000 0.85690  0.24630  0.50050  Biso   1.000  H
  C53      1.0000 0.78520  0.36220  0.92580  Biso   1.000  C
  C54      1.0000 0.21480  0.86220  0.57420  Biso   1.000  C
  C55      1.0000 0.21480  0.63780  0.07420  Biso   1.000  C
  C56      1.0000 0.78520  0.13780  0.42580  Biso   1.000  C
  H37      1.0000 0.84450  0.45750  0.93530  Biso   1.000  H
  H38      1.0000 0.15550  0.95750  0.56470  Biso   1.000  H
  H39      1.0000 0.15550  0.54250  0.06470  Biso   1.000  H
  H40      1.0000 0.84450  0.04250  0.43530  Biso   1.000  H
  C57      1.0000 0.69000  0.34200  0.87340  Biso   1.000  C
  C58      1.0000 0.31000  0.84200  0.62660  Biso   1.000  C
  C59      1.0000 0.31000  0.65800  0.12660  Biso   1.000  C
  C60      1.0000 0.69000  0.15800  0.37340  Biso   1.000  C
  H41      1.0000 0.68460  0.42260  0.84690  Biso   1.000  H
  H42      1.0000 0.31540  0.92260  0.65310  Biso   1.000  H
  H43      1.0000 0.31540  0.57740  0.15310  Biso   1.000  H
  H44      1.0000 0.68460  0.07740  0.34690  Biso   1.000  H
  C61      1.0000 0.60190  0.19950  0.86060  Biso   1.000  C
  C62      1.0000 0.39810  0.69950  0.63940  Biso   1.000  C
  C63      1.0000 0.39810  0.80050  0.13940  Biso   1.000  C
  C64      1.0000 0.60190  0.30050  0.36060  Biso   1.000  C
  H45      1.0000 0.53670  0.18580  0.82510  Biso   1.000  H
  H46      1.0000 0.46330  0.68580  0.67490  Biso   1.000  H
  H47      1.0000 0.46330  0.81420  0.17490  Biso   1.000  H
  H48      1.0000 0.53670  0.31420  0.32510  Biso   1.000  H
