data_image0
_cell_length_a       10.2456
_cell_length_b       12.0032
_cell_length_c       13.0657
_cell_angle_alpha    100.418
_cell_angle_beta     106.09
_cell_angle_gamma    114.554

_symmetry_space_group_name_H-M    "P 1"
_symmetry_int_tables_number       1

loop_
  _symmetry_equiv_pos_as_xyz
  'x, y, z'

loop_
  _atom_site_label
  _atom_site_occupancy
  _atom_site_fract_x
  _atom_site_fract_y
  _atom_site_fract_z
  _atom_site_thermal_displace_type
  _atom_site_B_iso_or_equiv
  _atom_site_type_symbol
  H1       1.0000 0.01700  0.94900  0.79300  Biso   1.000  H
  H2       1.0000 0.98300  0.05100  0.20700  Biso   1.000  H
  H3       1.0000 0.80200  0.79100  0.61200  Biso   1.000  H
  H4       1.0000 0.19800  0.20900  0.38800  Biso   1.000  H
  H5       1.0000 0.28900  0.11700  0.89800  Biso   1.000  H
  H6       1.0000 0.71100  0.88300  0.10200  Biso   1.000  H
  H7       1.0000 0.51200  0.22200  0.87100  Biso   1.000  H
  H8       1.0000 0.48800  0.77800  0.12900  Biso   1.000  H
  H9       1.0000 0.70600  0.68100  0.41500  Biso   1.000  H
  H10      1.0000 0.29400  0.31900  0.58500  Biso   1.000  H
  H11      1.0000 0.53800  0.19500  0.71100  Biso   1.000  H
  H12      1.0000 0.46200  0.80500  0.28900  Biso   1.000  H
  H13      1.0000 0.75400  0.65500  0.24200  Biso   1.000  H
  H14      1.0000 0.24600  0.34500  0.75800  Biso   1.000  H
  H15      1.0000 0.01100  0.79100  0.27100  Biso   1.000  H
  H16      1.0000 0.98900  0.20900  0.72900  Biso   1.000  H
  O1       1.0000 0.23040  0.55900  0.13350  Biso   1.000  O
  O2       1.0000 0.76960  0.44100  0.86650  Biso   1.000  O
  C1       1.0000 0.30500  0.76900  0.83210  Biso   1.000  C
  C2       1.0000 0.69500  0.23100  0.16790  Biso   1.000  C
  H17      1.0000 0.25720  0.82190  0.84020  Biso   1.000  H
  H18      1.0000 0.74280  0.17810  0.15980  Biso   1.000  H
  H19      1.0000 0.35090  0.78410  0.77760  Biso   1.000  H
  H20      1.0000 0.64910  0.21590  0.22240  Biso   1.000  H
  H21      1.0000 0.38470  0.79040  0.90370  Biso   1.000  H
  H22      1.0000 0.61530  0.20960  0.09630  Biso   1.000  H
  C3       1.0000 0.34840  0.42750  0.13720  Biso   1.000  C
  C4       1.0000 0.65160  0.57250  0.86280  Biso   1.000  C
  H23      1.0000 0.32260  0.34160  0.09280  Biso   1.000  H
  H24      1.0000 0.67740  0.65840  0.90720  Biso   1.000  H
  H25      1.0000 0.43740  0.49020  0.12760  Biso   1.000  H
  H26      1.0000 0.56260  0.50980  0.87240  Biso   1.000  H
  C5       1.0000 0.43830  0.17090  0.81180  Biso   1.000  C
  C6       1.0000 0.56170  0.82910  0.18820  Biso   1.000  C
  Cu1      1.0000 0.32893  0.00306  0.45731  Biso   1.000  Cu
  Cu2      1.0000 0.67107  0.99694  0.54269  Biso   1.000  Cu
  Cu3      1.0000 0.08099  0.61669  0.07671  Biso   1.000  Cu
  Cu4      1.0000 0.91901  0.38331  0.92329  Biso   1.000  Cu
  N1       1.0000 0.10210  0.87770  0.42600  Biso   1.000  N
  N2       1.0000 0.89790  0.12230  0.57400  Biso   1.000  N
  N3       1.0000 0.33320  0.05500  0.61550  Biso   1.000  N
  N4       1.0000 0.66680  0.94500  0.38450  Biso   1.000  N
  O3       1.0000 0.29340  0.00480  0.30470  Biso   1.000  O
  O4       1.0000 0.70660  0.99520  0.69530  Biso   1.000  O
  O5       1.0000 0.21040  0.80020  0.20790  Biso   1.000  O
  O6       1.0000 0.78960  0.19980  0.79210  Biso   1.000  O
  C7       1.0000 0.06940  0.89020  0.51930  Biso   1.000  C
  C8       1.0000 0.93060  0.10980  0.48070  Biso   1.000  C
  C9       1.0000 0.19480  0.98540  0.62210  Biso   1.000  C
  C10      1.0000 0.80520  0.01460  0.37790  Biso   1.000  C
  C11      1.0000 0.92220  0.81590  0.51890  Biso   1.000  C
  C12      1.0000 0.07780  0.18410  0.48110  Biso   1.000  C
  O7       1.0000 0.17190  0.66250  0.96640  Biso   1.000  O
  O8       1.0000 0.82810  0.33750  0.03360  Biso   1.000  O
  O9       1.0000 0.03470  0.46610  0.83650  Biso   1.000  O
  O10      1.0000 0.96530  0.53390  0.16350  Biso   1.000  O
  O11      1.0000 0.09500  0.36180  0.00270  Biso   1.000  O
  O12      1.0000 0.90500  0.63820  0.99730  Biso   1.000  O
  C13      1.0000 0.25040  0.91530  0.21430  Biso   1.000  C
  C14      1.0000 0.74960  0.08470  0.78570  Biso   1.000  C
  C15      1.0000 0.80340  0.72350  0.41550  Biso   1.000  C
  C16      1.0000 0.19660  0.27650  0.58450  Biso   1.000  C
  C17      1.0000 0.16970  0.00500  0.72130  Biso   1.000  C
  C18      1.0000 0.83030  0.99500  0.27870  Biso   1.000  C
  C19      1.0000 0.45110  0.14620  0.70870  Biso   1.000  C
  C20      1.0000 0.54890  0.85380  0.29130  Biso   1.000  C
  C21      1.0000 0.98750  0.78900  0.32990  Biso   1.000  C
  C22      1.0000 0.01250  0.21100  0.67010  Biso   1.000  C
  C23      1.0000 0.89980  0.83810  0.62160  Biso   1.000  C
  C24      1.0000 0.10020  0.16190  0.37840  Biso   1.000  C
  C25      1.0000 0.83740  0.71010  0.32270  Biso   1.000  C
  C26      1.0000 0.16260  0.28990  0.67730  Biso   1.000  C
  C27      1.0000 0.13290  0.58360  0.87190  Biso   1.000  C
  C28      1.0000 0.86710  0.41640  0.12810  Biso   1.000  C
  C29      1.0000 0.29980  0.10190  0.81960  Biso   1.000  C
  C30      1.0000 0.70020  0.89810  0.18040  Biso   1.000  C
  C31      1.0000 0.01810  0.92810  0.71850  Biso   1.000  C
  C32      1.0000 0.98190  0.07190  0.28150  Biso   1.000  C
  C33      1.0000 0.22300  0.63000  0.79200  Biso   1.000  C
  C34      1.0000 0.77700  0.37000  0.20800  Biso   1.000  C
  H27      1.0000 0.33090  0.65200  0.82620  Biso   1.000  H
  H28      1.0000 0.66910  0.34800  0.17380  Biso   1.000  H
  H29      1.0000 0.17360  0.56250  0.71870  Biso   1.000  H
  H30      1.0000 0.82640  0.43750  0.28130  Biso   1.000  H
  C35      1.0000 0.21070  0.44870  0.08680  Biso   1.000  C
  C36      1.0000 0.78930  0.55130  0.91320  Biso   1.000  C
  C37      1.0000 0.24350  0.95330  0.11050  Biso   1.000  C
  C38      1.0000 0.75650  0.04670  0.88950  Biso   1.000  C
  H31      1.0000 0.28900  0.92000  0.06400  Biso   1.000  H
  H32      1.0000 0.71100  0.08000  0.93600  Biso   1.000  H
  O13      1.0000 0.55190  0.12411  0.50550  Biso   1.000  O
  O14      1.0000 0.44810  0.87589  0.49450  Biso   1.000  O
  C39      1.0000 0.21200  0.75000  0.77890  Biso   1.000  C
  C40      1.0000 0.78800  0.25000  0.22110  Biso   1.000  C
  H33      1.0000 0.19120  0.78630  0.84010  Biso   1.000  H
  H34      1.0000 0.80880  0.21370  0.15990  Biso   1.000  H
  H35      1.0000 0.12890  0.72530  0.70830  Biso   1.000  H
  H36      1.0000 0.87110  0.27470  0.29170  Biso   1.000  H
  H37      1.0000 0.30880  0.81300  0.78030  Biso   1.000  H
  H38      1.0000 0.69120  0.18700  0.21970  Biso   1.000  H
  C41      1.0000 0.38700  0.43600  0.23300  Biso   1.000  C
  C42      1.0000 0.61300  0.56400  0.76700  Biso   1.000  C
  H39      1.0000 0.41040  0.51920  0.27850  Biso   1.000  H
  H40      1.0000 0.58960  0.48080  0.72150  Biso   1.000  H
  H41      1.0000 0.47870  0.42650  0.25570  Biso   1.000  H
  H42      1.0000 0.52130  0.57350  0.74430  Biso   1.000  H
  H43      1.0000 0.30450  0.36820  0.24300  Biso   1.000  H
  H44      1.0000 0.69550  0.63180  0.75700  Biso   1.000  H
  C43      1.0000 0.58480  0.24210  0.51330  Biso   1.000  C
  C44      1.0000 0.41520  0.75790  0.48670  Biso   1.000  C
  C45      1.0000 0.12700  0.96300  0.05500  Biso   1.000  C
  C46      1.0000 0.87300  0.03700  0.94500  Biso   1.000  C
  H45      1.0000 0.15910  0.05300  0.06400  Biso   1.000  H
  H46      1.0000 0.84090  0.94700  0.93600  Biso   1.000  H
  H47      1.0000 0.04570  0.92900  0.08190  Biso   1.000  H
  H48      1.0000 0.95430  0.07100  0.91810  Biso   1.000  H
  H49      1.0000 0.08850  0.91460  0.97580  Biso   1.000  H
  H50      1.0000 0.91150  0.08540  0.02420  Biso   1.000  H
  O15      1.0000 0.48830  0.27860  0.50380  Biso   1.000  O
  O16      1.0000 0.51170  0.72140  0.49620  Biso   1.000  O
  C47      1.0000 0.75480  0.33420  0.53810  Biso   1.000  C
  C48      1.0000 0.24520  0.66580  0.46190  Biso   1.000  C
  H51      1.0000 0.81760  0.34900  0.61520  Biso   1.000  H
  H52      1.0000 0.18240  0.65100  0.38480  Biso   1.000  H
  H53      1.0000 0.78730  0.29140  0.48830  Biso   1.000  H
  H54      1.0000 0.21270  0.70860  0.51170  Biso   1.000  H
  C49      1.0000 0.78930  0.46200  0.52490  Biso   1.000  C
  C50      1.0000 0.21070  0.53800  0.47510  Biso   1.000  C
  H55      1.0000 0.77250  0.51120  0.58150  Biso   1.000  H
  H56      1.0000 0.22750  0.48880  0.41850  Biso   1.000  H
  H57      1.0000 0.72170  0.44920  0.45110  Biso   1.000  H
  H58      1.0000 0.27830  0.55080  0.54890  Biso   1.000  H
  H59      1.0000 0.89610  0.50870  0.53370  Biso   1.000  H
  H60      1.0000 0.10390  0.49130  0.46630  Biso   1.000  H
  O17      1.0000 0.46680  0.46710  0.41130  Biso   1.000  O
  O18      1.0000 0.53320  0.53290  0.58870  Biso   1.000  O
  C51      1.0000 0.41600  0.41600  0.05700  Biso   1.000  C
  C52      1.0000 0.58400  0.58400  0.94300  Biso   1.000  C
  H61      1.0000 0.46460  0.50870  0.07910  Biso   1.000  H
  H62      1.0000 0.53540  0.49130  0.92090  Biso   1.000  H
  H63      1.0000 0.35150  0.37720  0.97790  Biso   1.000  H
  H64      1.0000 0.64850  0.62280  0.02210  Biso   1.000  H
  H65      1.0000 0.49480  0.39040  0.07340  Biso   1.000  H
  H66      1.0000 0.50520  0.60960  0.92660  Biso   1.000  H
  C53      1.0000 0.28500  0.35400  0.14400  Biso   1.000  C
  C54      1.0000 0.71500  0.64600  0.85600  Biso   1.000  C
  H67      1.0000 0.21240  0.26160  0.11630  Biso   1.000  H
  H68      1.0000 0.78760  0.73840  0.88370  Biso   1.000  H
  H69      1.0000 0.34020  0.38830  0.22600  Biso   1.000  H
  H70      1.0000 0.65980  0.61170  0.77400  Biso   1.000  H
  C55      1.0000 0.19400  0.64000  0.79590  Biso   1.000  C
  C56      1.0000 0.80600  0.36000  0.20410  Biso   1.000  C
  H71      1.0000 0.23740  0.58970  0.76650  Biso   1.000  H
  H72      1.0000 0.76260  0.41030  0.23350  Biso   1.000  H
  H73      1.0000 0.10630  0.62630  0.73240  Biso   1.000  H
  H74      1.0000 0.89370  0.37370  0.26760  Biso   1.000  H
  C57      1.0000 0.27910  0.08370  0.12410  Biso   1.000  C
  C58      1.0000 0.72090  0.91630  0.87590  Biso   1.000  C
  H75      1.0000 0.37790  0.13060  0.11910  Biso   1.000  H
  H76      1.0000 0.62210  0.86940  0.88090  Biso   1.000  H
  H77      1.0000 0.28440  0.12390  0.19670  Biso   1.000  H
  H78      1.0000 0.71560  0.87610  0.80330  Biso   1.000  H
  H79      1.0000 0.19930  0.08490  0.06560  Biso   1.000  H
  H80      1.0000 0.80070  0.91510  0.93440  Biso   1.000  H
