data_image0
_cell_length_a       8.6271
_cell_length_b       15.3554
_cell_length_c       9.6695
_cell_angle_alpha    90
_cell_angle_beta     116.215
_cell_angle_gamma    90

_symmetry_space_group_name_H-M    "P 1"
_symmetry_int_tables_number       1

loop_
  _symmetry_equiv_pos_as_xyz
  'x, y, z'

loop_
  _atom_site_label
  _atom_site_occupancy
  _atom_site_fract_x
  _atom_site_fract_y
  _atom_site_fract_z
  _atom_site_thermal_displace_type
  _atom_site_B_iso_or_equiv
  _atom_site_type_symbol
  O1       1.0000 0.52380  0.07090  0.64840  Biso   1.000  O
  O2       1.0000 0.47620  0.57090  0.35160  Biso   1.000  O
  O3       1.0000 0.47620  0.92910  0.35160  Biso   1.000  O
  O4       1.0000 0.52380  0.42910  0.64840  Biso   1.000  O
  C1       1.0000 0.54620  0.04100  0.53490  Biso   1.000  C
  C2       1.0000 0.45380  0.54100  0.46510  Biso   1.000  C
  C3       1.0000 0.45380  0.95900  0.46510  Biso   1.000  C
  C4       1.0000 0.54620  0.45900  0.53490  Biso   1.000  C
  Cu1      1.0000 0.11970  0.25000  0.53160  Biso   1.000  Cu
  Cu2      1.0000 0.88030  0.75000  0.46840  Biso   1.000  Cu
  O5       1.0000 0.50390  0.92270  0.87070  Biso   1.000  O
  O6       1.0000 0.49610  0.42270  0.12930  Biso   1.000  O
  O7       1.0000 0.49610  0.07730  0.12930  Biso   1.000  O
  O8       1.0000 0.50390  0.57730  0.87070  Biso   1.000  O
  C5       1.0000 0.53780  0.95620  0.99680  Biso   1.000  C
  C6       1.0000 0.46220  0.45620  0.00320  Biso   1.000  C
  C7       1.0000 0.46220  0.04380  0.00320  Biso   1.000  C
  C8       1.0000 0.53780  0.54380  0.99680  Biso   1.000  C
  O9       1.0000 0.63160  0.92170  0.12730  Biso   1.000  O
  O10      1.0000 0.36840  0.42170  0.87270  Biso   1.000  O
  O11      1.0000 0.36840  0.07830  0.87270  Biso   1.000  O
  O12      1.0000 0.63160  0.57830  0.12730  Biso   1.000  O
  C9       1.0000 0.99070  0.95800  0.53620  Biso   1.000  C
  C10      1.0000 0.00930  0.45800  0.46380  Biso   1.000  C
  C11      1.0000 0.00930  0.04200  0.46380  Biso   1.000  C
  C12      1.0000 0.99070  0.54200  0.53620  Biso   1.000  C
  O13      1.0000 0.12490  0.92880  0.65070  Biso   1.000  O
  O14      1.0000 0.87510  0.42880  0.34930  Biso   1.000  O
  O15      1.0000 0.87510  0.07120  0.34930  Biso   1.000  O
  O16      1.0000 0.12490  0.57120  0.65070  Biso   1.000  O
  C13      1.0000 0.17500  0.27930  0.26900  Biso   1.000  C
  C14      1.0000 0.82500  0.77930  0.73100  Biso   1.000  C
  C15      1.0000 0.82500  0.72070  0.73100  Biso   1.000  C
  C16      1.0000 0.17500  0.22070  0.26900  Biso   1.000  C
  O17      1.0000 0.85120  0.91710  0.47170  Biso   1.000  O
  O18      1.0000 0.14880  0.41710  0.52830  Biso   1.000  O
  O19      1.0000 0.14880  0.08290  0.52830  Biso   1.000  O
  O20      1.0000 0.85120  0.58290  0.47170  Biso   1.000  O
  C17      1.0000 0.89900  0.27100  0.68500  Biso   1.000  C
  C18      1.0000 0.10100  0.77100  0.31500  Biso   1.000  C
  C19      1.0000 0.10100  0.72900  0.31500  Biso   1.000  C
  C20      1.0000 0.89900  0.22900  0.68500  Biso   1.000  C
  O21      1.0000 0.64350  0.07490  0.48450  Biso   1.000  O
  O22      1.0000 0.35650  0.57490  0.51550  Biso   1.000  O
  O23      1.0000 0.35650  0.92510  0.51550  Biso   1.000  O
  O24      1.0000 0.64350  0.42510  0.48450  Biso   1.000  O
  N1       1.0000 0.03180  0.25000  0.30620  Biso   1.000  N
  N2       1.0000 0.96820  0.75000  0.69380  Biso   1.000  N
  N3       1.0000 0.36100  0.25000  0.53450  Biso   1.000  N
  N4       1.0000 0.63900  0.75000  0.46550  Biso   1.000  N
  N5       1.0000 0.87900  0.25000  0.52580  Biso   1.000  N
  N6       1.0000 0.12100  0.75000  0.47420  Biso   1.000  N
  N7       1.0000 0.20700  0.25000  0.76430  Biso   1.000  N
  N8       1.0000 0.79300  0.75000  0.23570  Biso   1.000  N
  Co1      1.0000 0.34270  0.00085  0.68845  Biso   1.000  Co
  Co2      1.0000 0.65730  0.50085  0.31155  Biso   1.000  Co
  Co3      1.0000 0.65730  0.99915  0.31155  Biso   1.000  Co
  Co4      1.0000 0.34270  0.49915  0.68845  Biso   1.000  Co
  C21      1.0000 0.05500  0.27720  0.79800  Biso   1.000  C
  C22      1.0000 0.94500  0.77720  0.20200  Biso   1.000  C
  C23      1.0000 0.94500  0.72280  0.20200  Biso   1.000  C
  C24      1.0000 0.05500  0.22280  0.79800  Biso   1.000  C
  C25      1.0000 0.33100  0.22559  0.37200  Biso   1.000  C
  C26      1.0000 0.66900  0.72559  0.62800  Biso   1.000  C
  C27      1.0000 0.66900  0.77441  0.62800  Biso   1.000  C
  C28      1.0000 0.33100  0.27441  0.37200  Biso   1.000  C
  O25      1.0000 0.63000  0.25000  0.16310  Biso   1.000  O
  O26      1.0000 0.37000  0.75000  0.83690  Biso   1.000  O
  H1       1.0000 0.60744  0.30410  0.15692  Biso   1.000  H
  H2       1.0000 0.39256  0.80410  0.84308  Biso   1.000  H
  H3       1.0000 0.39256  0.69590  0.84308  Biso   1.000  H
  H4       1.0000 0.60744  0.19590  0.15692  Biso   1.000  H
  H5       1.0000 0.80629  0.22185  0.94897  Biso   1.000  H
  H6       1.0000 0.19371  0.72185  0.05103  Biso   1.000  H
  H7       1.0000 0.19371  0.77815  0.05103  Biso   1.000  H
  H8       1.0000 0.80629  0.27815  0.94897  Biso   1.000  H
  H9       1.0000 0.62977  0.23192  0.85937  Biso   1.000  H
  H10      1.0000 0.37023  0.73192  0.14063  Biso   1.000  H
  H11      1.0000 0.37023  0.76808  0.14063  Biso   1.000  H
  H12      1.0000 0.62977  0.26808  0.85937  Biso   1.000  H
  H13      1.0000 0.91559  0.33338  0.70319  Biso   1.000  H
  H14      1.0000 0.08441  0.83338  0.29681  Biso   1.000  H
  H15      1.0000 0.08441  0.66662  0.29681  Biso   1.000  H
  H16      1.0000 0.91559  0.16662  0.70319  Biso   1.000  H
  H17      1.0000 0.07890  0.26168  0.90303  Biso   1.000  H
  H18      1.0000 0.92110  0.76168  0.09697  Biso   1.000  H
  H19      1.0000 0.92110  0.73832  0.09697  Biso   1.000  H
  H20      1.0000 0.07890  0.23832  0.90303  Biso   1.000  H
  H21      1.0000 0.03657  0.33953  0.78565  Biso   1.000  H
  H22      1.0000 0.96343  0.83953  0.21435  Biso   1.000  H
  H23      1.0000 0.96343  0.66047  0.21435  Biso   1.000  H
  H24      1.0000 0.03657  0.16047  0.78565  Biso   1.000  H
  H25      1.0000 0.19773  0.34092  0.28988  Biso   1.000  H
  H26      1.0000 0.80227  0.84092  0.71012  Biso   1.000  H
  H27      1.0000 0.80227  0.65908  0.71012  Biso   1.000  H
  H28      1.0000 0.19773  0.15908  0.28988  Biso   1.000  H
  H29      1.0000 0.14503  0.26875  0.16095  Biso   1.000  H
  H30      1.0000 0.85497  0.76875  0.83905  Biso   1.000  H
  H31      1.0000 0.85497  0.73125  0.83905  Biso   1.000  H
  H32      1.0000 0.14503  0.23125  0.16095  Biso   1.000  H
  H33      1.0000 0.82175  0.25001  0.72546  Biso   1.000  H
  H34      1.0000 0.17825  0.75001  0.27454  Biso   1.000  H
  H35      1.0000 0.95185  0.28879  0.27066  Biso   1.000  H
  H36      1.0000 0.04815  0.78879  0.72934  Biso   1.000  H
  H37      1.0000 0.04815  0.71121  0.72934  Biso   1.000  H
  H38      1.0000 0.95185  0.21121  0.27066  Biso   1.000  H
  H39      1.0000 0.00923  0.19684  0.27598  Biso   1.000  H
  H40      1.0000 0.99077  0.69684  0.72402  Biso   1.000  H
  H41      1.0000 0.99077  0.80316  0.72402  Biso   1.000  H
  H42      1.0000 0.00923  0.30316  0.27598  Biso   1.000  H
  H43      1.0000 0.42009  0.20863  0.59462  Biso   1.000  H
  H44      1.0000 0.57991  0.70863  0.40538  Biso   1.000  H
  H45      1.0000 0.57991  0.79137  0.40538  Biso   1.000  H
  H46      1.0000 0.42009  0.29137  0.59462  Biso   1.000  H
  H47      1.0000 0.39953  0.30253  0.55154  Biso   1.000  H
  H48      1.0000 0.60047  0.80253  0.44846  Biso   1.000  H
  H49      1.0000 0.60047  0.69747  0.44846  Biso   1.000  H
  H50      1.0000 0.39953  0.19747  0.55154  Biso   1.000  H
  H51      1.0000 0.81123  0.28977  0.45740  Biso   1.000  H
  H52      1.0000 0.18877  0.78977  0.54260  Biso   1.000  H
  H53      1.0000 0.18877  0.71023  0.54260  Biso   1.000  H
  H54      1.0000 0.81123  0.21023  0.45740  Biso   1.000  H
  H55      1.0000 0.82943  0.19733  0.49615  Biso   1.000  H
  H56      1.0000 0.17057  0.69733  0.50385  Biso   1.000  H
  H57      1.0000 0.17057  0.80267  0.50385  Biso   1.000  H
  H58      1.0000 0.82943  0.30267  0.49615  Biso   1.000  H
  H59      1.0000 0.24420  0.19645  0.80205  Biso   1.000  H
  H60      1.0000 0.75580  0.69645  0.19795  Biso   1.000  H
  H61      1.0000 0.75580  0.80355  0.19795  Biso   1.000  H
  H62      1.0000 0.24420  0.30355  0.80205  Biso   1.000  H
  H63      1.0000 0.29538  0.28738  0.80871  Biso   1.000  H
  H64      1.0000 0.70462  0.78738  0.19129  Biso   1.000  H
  H65      1.0000 0.70462  0.71262  0.19129  Biso   1.000  H
  H66      1.0000 0.29538  0.21262  0.80871  Biso   1.000  H
  H67      1.0000 0.43055  0.24028  0.35487  Biso   1.000  H
  H68      1.0000 0.56945  0.74028  0.64513  Biso   1.000  H
  H69      1.0000 0.56945  0.75972  0.64513  Biso   1.000  H
  H70      1.0000 0.43055  0.25972  0.35487  Biso   1.000  H
  H71      1.0000 0.30742  0.16381  0.35331  Biso   1.000  H
  H72      1.0000 0.69258  0.66381  0.64669  Biso   1.000  H
  H73      1.0000 0.69258  0.83619  0.64669  Biso   1.000  H
  H74      1.0000 0.30742  0.33619  0.35331  Biso   1.000  H
  O27      1.0000 0.70800  0.19800  0.92100  Biso   1.000  O
  O28      1.0000 0.29200  0.69800  0.07900  Biso   1.000  O
  O29      1.0000 0.29200  0.80200  0.07900  Biso   1.000  O
  O30      1.0000 0.70800  0.30200  0.92100  Biso   1.000  O
