data_image0
_cell_length_a       10.061
_cell_length_b       7.0428
_cell_length_c       14.361
_cell_angle_alpha    90
_cell_angle_beta     104.99
_cell_angle_gamma    90

_symmetry_space_group_name_H-M    "P 1"
_symmetry_int_tables_number       1

loop_
  _symmetry_equiv_pos_as_xyz
  'x, y, z'

loop_
  _atom_site_label
  _atom_site_occupancy
  _atom_site_fract_x
  _atom_site_fract_y
  _atom_site_fract_z
  _atom_site_thermal_displace_type
  _atom_site_B_iso_or_equiv
  _atom_site_type_symbol
  Mn1      1.0000 0.55080  0.79272  0.14304  Biso   1.000  Mn
  Mn2      1.0000 0.94920  0.29272  0.35696  Biso   1.000  Mn
  Mn3      1.0000 0.44920  0.20728  0.85696  Biso   1.000  Mn
  Mn4      1.0000 0.05080  0.70728  0.64304  Biso   1.000  Mn
  Cu1      1.0000 0.50000  0.00000  0.50000  Biso   1.000  Cu
  Cu2      1.0000 0.00000  0.50000  0.00000  Biso   1.000  Cu
  O1       1.0000 0.73254  0.63750  0.22343  Biso   1.000  O
  O2       1.0000 0.76746  0.13750  0.27657  Biso   1.000  O
  O3       1.0000 0.26746  0.36250  0.77657  Biso   1.000  O
  O4       1.0000 0.23254  0.86250  0.72343  Biso   1.000  O
  O5       1.0000 0.52947  0.78490  0.28761  Biso   1.000  O
  O6       1.0000 0.97053  0.28490  0.21239  Biso   1.000  O
  O7       1.0000 0.47053  0.21510  0.71239  Biso   1.000  O
  O8       1.0000 0.02947  0.71510  0.78761  Biso   1.000  O
  O9       1.0000 0.64694  0.73320  0.43932  Biso   1.000  O
  O10      1.0000 0.85306  0.23320  0.06068  Biso   1.000  O
  O11      1.0000 0.35306  0.26680  0.56068  Biso   1.000  O
  O12      1.0000 0.14694  0.76680  0.93932  Biso   1.000  O
  O13      1.0000 0.83786  0.54200  0.37159  Biso   1.000  O
  O14      1.0000 0.66214  0.04200  0.12841  Biso   1.000  O
  O15      1.0000 0.16214  0.45800  0.62841  Biso   1.000  O
  O16      1.0000 0.33786  0.95800  0.87159  Biso   1.000  O
  O17      1.0000 0.36012  0.95148  0.07997  Biso   1.000  O
  O18      1.0000 0.13988  0.45148  0.42003  Biso   1.000  O
  O19      1.0000 0.63988  0.04852  0.92003  Biso   1.000  O
  O20      1.0000 0.86012  0.54852  0.57997  Biso   1.000  O
  H1       1.0000 0.36784  0.06442  0.05720  Biso   1.000  H
  H2       1.0000 0.13216  0.56442  0.44280  Biso   1.000  H
  H3       1.0000 0.63216  0.93558  0.94280  Biso   1.000  H
  H4       1.0000 0.86784  0.43558  0.55720  Biso   1.000  H
  H5       1.0000 0.31300  0.89437  0.02937  Biso   1.000  H
  H6       1.0000 0.18700  0.39437  0.47063  Biso   1.000  H
  H7       1.0000 0.68700  0.10563  0.97063  Biso   1.000  H
  H8       1.0000 0.81300  0.60563  0.52937  Biso   1.000  H
  O21      1.0000 0.56583  0.47067  0.89960  Biso   1.000  O
  O22      1.0000 0.93417  0.97067  0.60040  Biso   1.000  O
  O23      1.0000 0.43417  0.52933  0.10040  Biso   1.000  O
  O24      1.0000 0.06583  0.02933  0.39960  Biso   1.000  O
  O25      1.0000 0.60233  0.70279  0.00853  Biso   1.000  O
  O26      1.0000 0.89767  0.20279  0.49147  Biso   1.000  O
  O27      1.0000 0.39767  0.29721  0.99147  Biso   1.000  O
  O28      1.0000 0.10233  0.79721  0.50853  Biso   1.000  O
  N1       1.0000 0.57095  0.21530  0.43182  Biso   1.000  N
  N2       1.0000 0.92905  0.71530  0.06818  Biso   1.000  N
  N3       1.0000 0.42905  0.78470  0.56818  Biso   1.000  N
  N4       1.0000 0.07095  0.28470  0.93182  Biso   1.000  N
  H9       1.0000 0.56789  0.32360  0.46310  Biso   1.000  H
  H10      1.0000 0.93211  0.82360  0.03690  Biso   1.000  H
  H11      1.0000 0.43211  0.67640  0.53690  Biso   1.000  H
  H12      1.0000 0.06789  0.17640  0.96310  Biso   1.000  H
  H13      1.0000 0.65818  0.19300  0.43224  Biso   1.000  H
  H14      1.0000 0.84182  0.69300  0.06776  Biso   1.000  H
  H15      1.0000 0.34182  0.80700  0.56776  Biso   1.000  H
  H16      1.0000 0.15818  0.30700  0.93224  Biso   1.000  H
  N5       1.0000 0.34980  0.99050  0.37841  Biso   1.000  N
  N6       1.0000 0.15020  0.49050  0.12159  Biso   1.000  N
  N7       1.0000 0.65020  0.00950  0.62159  Biso   1.000  N
  N8       1.0000 0.84980  0.50950  0.87841  Biso   1.000  N
  H17      1.0000 0.36102  0.88869  0.34456  Biso   1.000  H
  H18      1.0000 0.13898  0.38869  0.15544  Biso   1.000  H
  H19      1.0000 0.63898  0.11131  0.65544  Biso   1.000  H
  H20      1.0000 0.86102  0.61131  0.84456  Biso   1.000  H
  H21      1.0000 0.26916  0.97969  0.39268  Biso   1.000  H
  H22      1.0000 0.23084  0.47969  0.10732  Biso   1.000  H
  H23      1.0000 0.73084  0.02031  0.60732  Biso   1.000  H
  H24      1.0000 0.76916  0.52031  0.89268  Biso   1.000  H
  C1       1.0000 0.48920  0.23290  0.33370  Biso   1.000  C
  C2       1.0000 0.01080  0.73290  0.16630  Biso   1.000  C
  C3       1.0000 0.51080  0.76710  0.66630  Biso   1.000  C
  C4       1.0000 0.98920  0.26710  0.83370  Biso   1.000  C
  H25      1.0000 0.53368  0.16353  0.29179  Biso   1.000  H
  H26      1.0000 0.96632  0.66353  0.20821  Biso   1.000  H
  H27      1.0000 0.46632  0.83647  0.70821  Biso   1.000  H
  H28      1.0000 0.03368  0.33647  0.79179  Biso   1.000  H
  H29      1.0000 0.48523  0.36551  0.31505  Biso   1.000  H
  H30      1.0000 0.01477  0.86551  0.18495  Biso   1.000  H
  H31      1.0000 0.51477  0.63449  0.68495  Biso   1.000  H
  H32      1.0000 0.98523  0.13449  0.81505  Biso   1.000  H
  C5       1.0000 0.34880  0.16100  0.31995  Biso   1.000  C
  C6       1.0000 0.15120  0.66100  0.18005  Biso   1.000  C
  C7       1.0000 0.65120  0.83900  0.68005  Biso   1.000  C
  C8       1.0000 0.84880  0.33900  0.81995  Biso   1.000  C
  H33      1.0000 0.29195  0.25779  0.33848  Biso   1.000  H
  H34      1.0000 0.20805  0.75779  0.16152  Biso   1.000  H
  H35      1.0000 0.70805  0.74221  0.66152  Biso   1.000  H
  H36      1.0000 0.79195  0.24221  0.83848  Biso   1.000  H
  H37      1.0000 0.30978  0.13114  0.25246  Biso   1.000  H
  H38      1.0000 0.19022  0.63114  0.24754  Biso   1.000  H
  H39      1.0000 0.69022  0.86886  0.74754  Biso   1.000  H
  H40      1.0000 0.80978  0.36886  0.75246  Biso   1.000  H
  C9       1.0000 0.74460  0.62670  0.31223  Biso   1.000  C
  C10      1.0000 0.75540  0.12670  0.18777  Biso   1.000  C
  C11      1.0000 0.25540  0.37330  0.68777  Biso   1.000  C
  C12      1.0000 0.24460  0.87330  0.81223  Biso   1.000  C
  C13      1.0000 0.63192  0.72360  0.35099  Biso   1.000  C
  C14      1.0000 0.86808  0.22360  0.14901  Biso   1.000  C
  C15      1.0000 0.36808  0.27640  0.64901  Biso   1.000  C
  C16      1.0000 0.13192  0.77640  0.85099  Biso   1.000  C
  C17      1.0000 0.54795  0.54980  0.97310  Biso   1.000  C
  C18      1.0000 0.95205  0.04980  0.52690  Biso   1.000  C
  C19      1.0000 0.45205  0.45020  0.02690  Biso   1.000  C
  C20      1.0000 0.04795  0.95020  0.47310  Biso   1.000  C
  H41      1.0000 0.61373  0.30115  0.47462  Biso   1.000  H
  H42      1.0000 0.88627  0.80115  0.02538  Biso   1.000  H
  H43      1.0000 0.38627  0.69885  0.52538  Biso   1.000  H
  H44      1.0000 0.11373  0.19885  0.97462  Biso   1.000  H
  H45      1.0000 0.63066  0.17060  0.40108  Biso   1.000  H
  H46      1.0000 0.86934  0.67060  0.09892  Biso   1.000  H
  H47      1.0000 0.36934  0.82940  0.59892  Biso   1.000  H
  H48      1.0000 0.13066  0.32940  0.90108  Biso   1.000  H
  C21      1.0000 0.45410  0.30250  0.36300  Biso   1.000  C
  C22      1.0000 0.04590  0.80250  0.13700  Biso   1.000  C
  C23      1.0000 0.54590  0.69750  0.63700  Biso   1.000  C
  C24      1.0000 0.95410  0.19750  0.86300  Biso   1.000  C
  H49      1.0000 0.48594  0.36436  0.31246  Biso   1.000  H
  H50      1.0000 0.01406  0.86436  0.18754  Biso   1.000  H
  H51      1.0000 0.51406  0.63564  0.68754  Biso   1.000  H
  H52      1.0000 0.98594  0.13564  0.81246  Biso   1.000  H
  H53      1.0000 0.41379  0.39870  0.39567  Biso   1.000  H
  H54      1.0000 0.08621  0.89870  0.10433  Biso   1.000  H
  H55      1.0000 0.58621  0.60130  0.60433  Biso   1.000  H
  H56      1.0000 0.91379  0.10130  0.89567  Biso   1.000  H
  H57      1.0000 0.25893  0.22022  0.30840  Biso   1.000  H
  H58      1.0000 0.24107  0.72022  0.19160  Biso   1.000  H
  H59      1.0000 0.74107  0.77978  0.69160  Biso   1.000  H
  H60      1.0000 0.75893  0.27978  0.80840  Biso   1.000  H
  H61      1.0000 0.36176  0.12322  0.25795  Biso   1.000  H
  H62      1.0000 0.13824  0.62322  0.24205  Biso   1.000  H
  H63      1.0000 0.63824  0.87678  0.74205  Biso   1.000  H
  H64      1.0000 0.86176  0.37678  0.75795  Biso   1.000  H
