data_image0
_cell_length_a       17.874
_cell_length_b       8.364
_cell_length_c       18.869
_cell_angle_alpha    90
_cell_angle_beta     117.16
_cell_angle_gamma    90

_symmetry_space_group_name_H-M    "P 1"
_symmetry_int_tables_number       1

loop_
  _symmetry_equiv_pos_as_xyz
  'x, y, z'

loop_
  _atom_site_label
  _atom_site_occupancy
  _atom_site_fract_x
  _atom_site_fract_y
  _atom_site_fract_z
  _atom_site_thermal_displace_type
  _atom_site_B_iso_or_equiv
  _atom_site_type_symbol
  Cu1      1.0000 0.00000  0.61740  0.25000  Biso   1.000  Cu
  Cu2      1.0000 0.50000  0.11740  0.25000  Biso   1.000  Cu
  Cu3      1.0000 0.00000  0.38260  0.75000  Biso   1.000  Cu
  Cu4      1.0000 0.50000  0.88260  0.75000  Biso   1.000  Cu
  N1       1.0000 0.89500  0.62110  0.26130  Biso   1.000  N
  N2       1.0000 0.10500  0.62110  0.23870  Biso   1.000  N
  N3       1.0000 0.39500  0.12110  0.26130  Biso   1.000  N
  N4       1.0000 0.60500  0.12110  0.23870  Biso   1.000  N
  N5       1.0000 0.10500  0.37890  0.73870  Biso   1.000  N
  N6       1.0000 0.89500  0.37890  0.76130  Biso   1.000  N
  N7       1.0000 0.60500  0.87890  0.73870  Biso   1.000  N
  N8       1.0000 0.39500  0.87890  0.76130  Biso   1.000  N
  H1       1.0000 0.85820  0.68790  0.22570  Biso   1.000  H
  H2       1.0000 0.14180  0.68790  0.27430  Biso   1.000  H
  H3       1.0000 0.35820  0.18790  0.22570  Biso   1.000  H
  H4       1.0000 0.64180  0.18790  0.27430  Biso   1.000  H
  H5       1.0000 0.14180  0.31210  0.77430  Biso   1.000  H
  H6       1.0000 0.85820  0.31210  0.72570  Biso   1.000  H
  H7       1.0000 0.64180  0.81210  0.77430  Biso   1.000  H
  H8       1.0000 0.35820  0.81210  0.72570  Biso   1.000  H
  H9       1.0000 0.87220  0.52400  0.25230  Biso   1.000  H
  H10      1.0000 0.12780  0.52400  0.24770  Biso   1.000  H
  H11      1.0000 0.37220  0.02400  0.25230  Biso   1.000  H
  H12      1.0000 0.62780  0.02400  0.24770  Biso   1.000  H
  H13      1.0000 0.12780  0.47600  0.74770  Biso   1.000  H
  H14      1.0000 0.87220  0.47600  0.75230  Biso   1.000  H
  H15      1.0000 0.62780  0.97600  0.74770  Biso   1.000  H
  H16      1.0000 0.37220  0.97600  0.75230  Biso   1.000  H
  N9       1.0000 0.05680  0.62330  0.36900  Biso   1.000  N
  N10      1.0000 0.94320  0.62330  0.13100  Biso   1.000  N
  N11      1.0000 0.55680  0.12330  0.36900  Biso   1.000  N
  N12      1.0000 0.44320  0.12330  0.13100  Biso   1.000  N
  N13      1.0000 0.94320  0.37670  0.63100  Biso   1.000  N
  N14      1.0000 0.05680  0.37670  0.86900  Biso   1.000  N
  N15      1.0000 0.44320  0.87670  0.63100  Biso   1.000  N
  N16      1.0000 0.55680  0.87670  0.86900  Biso   1.000  N
  H17      1.0000 0.09670  0.54890  0.38830  Biso   1.000  H
  H18      1.0000 0.90330  0.54890  0.11170  Biso   1.000  H
  H19      1.0000 0.59670  0.04890  0.38830  Biso   1.000  H
  H20      1.0000 0.40330  0.04890  0.11170  Biso   1.000  H
  H21      1.0000 0.90330  0.45110  0.61170  Biso   1.000  H
  H22      1.0000 0.09670  0.45110  0.88830  Biso   1.000  H
  H23      1.0000 0.40330  0.95110  0.61170  Biso   1.000  H
  H24      1.0000 0.59670  0.95110  0.88830  Biso   1.000  H
  H25      1.0000 0.08060  0.71840  0.38610  Biso   1.000  H
  H26      1.0000 0.91940  0.71840  0.11390  Biso   1.000  H
  H27      1.0000 0.58060  0.21840  0.38610  Biso   1.000  H
  H28      1.0000 0.41940  0.21840  0.11390  Biso   1.000  H
  H29      1.0000 0.91940  0.28160  0.61390  Biso   1.000  H
  H30      1.0000 0.08060  0.28160  0.88610  Biso   1.000  H
  H31      1.0000 0.41940  0.78160  0.61390  Biso   1.000  H
  H32      1.0000 0.58060  0.78160  0.88610  Biso   1.000  H
  C1       1.0000 0.91420  0.67330  0.34210  Biso   1.000  C
  C2       1.0000 0.08580  0.67330  0.15790  Biso   1.000  C
  C3       1.0000 0.41420  0.17330  0.34210  Biso   1.000  C
  C4       1.0000 0.58580  0.17330  0.15790  Biso   1.000  C
  C5       1.0000 0.08580  0.32670  0.65790  Biso   1.000  C
  C6       1.0000 0.91420  0.32670  0.84210  Biso   1.000  C
  C7       1.0000 0.58580  0.82670  0.65790  Biso   1.000  C
  C8       1.0000 0.41420  0.82670  0.84210  Biso   1.000  C
  H33      1.0000 0.86910  0.64310  0.35460  Biso   1.000  H
  H34      1.0000 0.13090  0.64310  0.14540  Biso   1.000  H
  H35      1.0000 0.36910  0.14310  0.35460  Biso   1.000  H
  H36      1.0000 0.63090  0.14310  0.14540  Biso   1.000  H
  H37      1.0000 0.13090  0.35690  0.64540  Biso   1.000  H
  H38      1.0000 0.86910  0.35690  0.85460  Biso   1.000  H
  H39      1.0000 0.63090  0.85690  0.64540  Biso   1.000  H
  H40      1.0000 0.36910  0.85690  0.85460  Biso   1.000  H
  H41      1.0000 0.92090  0.78850  0.34670  Biso   1.000  H
  H42      1.0000 0.07910  0.78850  0.15330  Biso   1.000  H
  H43      1.0000 0.42090  0.28850  0.34670  Biso   1.000  H
  H44      1.0000 0.57910  0.28850  0.15330  Biso   1.000  H
  H45      1.0000 0.07910  0.21150  0.65330  Biso   1.000  H
  H46      1.0000 0.92090  0.21150  0.84670  Biso   1.000  H
  H47      1.0000 0.57910  0.71150  0.65330  Biso   1.000  H
  H48      1.0000 0.42090  0.71150  0.84670  Biso   1.000  H
  C9       1.0000 0.99300  0.59330  0.39650  Biso   1.000  C
  C10      1.0000 0.00700  0.59330  0.10350  Biso   1.000  C
  C11      1.0000 0.49300  0.09330  0.39650  Biso   1.000  C
  C12      1.0000 0.50700  0.09330  0.10350  Biso   1.000  C
  C13      1.0000 0.00700  0.40670  0.60350  Biso   1.000  C
  C14      1.0000 0.99300  0.40670  0.89650  Biso   1.000  C
  C15      1.0000 0.50700  0.90670  0.60350  Biso   1.000  C
  C16      1.0000 0.49300  0.90670  0.89650  Biso   1.000  C
  H49      1.0000 0.98360  0.47920  0.39730  Biso   1.000  H
  H50      1.0000 0.01640  0.47920  0.10270  Biso   1.000  H
  H51      1.0000 0.48360  0.97920  0.39730  Biso   1.000  H
  H52      1.0000 0.51640  0.97920  0.10270  Biso   1.000  H
  H53      1.0000 0.01640  0.52080  0.60270  Biso   1.000  H
  H54      1.0000 0.98360  0.52080  0.89730  Biso   1.000  H
  H55      1.0000 0.51640  0.02080  0.60270  Biso   1.000  H
  H56      1.0000 0.48360  0.02080  0.89730  Biso   1.000  H
  H57      1.0000 0.01250  0.63430  0.45010  Biso   1.000  H
  H58      1.0000 0.98750  0.63430  0.04990  Biso   1.000  H
  H59      1.0000 0.51250  0.13430  0.45010  Biso   1.000  H
  H60      1.0000 0.48750  0.13430  0.04990  Biso   1.000  H
  H61      1.0000 0.98750  0.36570  0.54990  Biso   1.000  H
  H62      1.0000 0.01250  0.36570  0.95010  Biso   1.000  H
  H63      1.0000 0.48750  0.86570  0.54990  Biso   1.000  H
  H64      1.0000 0.51250  0.86570  0.95010  Biso   1.000  H
  Mn1      1.0000 0.08557  0.12825  0.41732  Biso   1.000  Mn
  Mn2      1.0000 0.91443  0.12825  0.08268  Biso   1.000  Mn
  Mn3      1.0000 0.58557  0.62825  0.41732  Biso   1.000  Mn
  Mn4      1.0000 0.41443  0.62825  0.08268  Biso   1.000  Mn
  Mn5      1.0000 0.91443  0.87175  0.58268  Biso   1.000  Mn
  Mn6      1.0000 0.08557  0.87175  0.91732  Biso   1.000  Mn
  Mn7      1.0000 0.41443  0.37175  0.58268  Biso   1.000  Mn
  Mn8      1.0000 0.58557  0.37175  0.91732  Biso   1.000  Mn
  O1       1.0000 0.03460  0.96420  0.31740  Biso   1.000  O
  O2       1.0000 0.96540  0.96420  0.18260  Biso   1.000  O
  O3       1.0000 0.53460  0.46420  0.31740  Biso   1.000  O
  O4       1.0000 0.46540  0.46420  0.18260  Biso   1.000  O
  O5       1.0000 0.96540  0.03580  0.68260  Biso   1.000  O
  O6       1.0000 0.03460  0.03580  0.81740  Biso   1.000  O
  O7       1.0000 0.46540  0.53580  0.68260  Biso   1.000  O
  O8       1.0000 0.53460  0.53580  0.81740  Biso   1.000  O
  O9       1.0000 0.03700  0.28680  0.31590  Biso   1.000  O
  O10      1.0000 0.96300  0.28680  0.18410  Biso   1.000  O
  O11      1.0000 0.53700  0.78680  0.31590  Biso   1.000  O
  O12      1.0000 0.46300  0.78680  0.18410  Biso   1.000  O
  O13      1.0000 0.96300  0.71320  0.68410  Biso   1.000  O
  O14      1.0000 0.03700  0.71320  0.81590  Biso   1.000  O
  O15      1.0000 0.46300  0.21320  0.68410  Biso   1.000  O
  O16      1.0000 0.53700  0.21320  0.81590  Biso   1.000  O
  O17      1.0000 0.28660  0.41930  0.56100  Biso   1.000  O
  O18      1.0000 0.71340  0.41930  0.93900  Biso   1.000  O
  O19      1.0000 0.78660  0.91930  0.56100  Biso   1.000  O
  O20      1.0000 0.21340  0.91930  0.93900  Biso   1.000  O
  O21      1.0000 0.71340  0.58070  0.43900  Biso   1.000  O
  O22      1.0000 0.28660  0.58070  0.06100  Biso   1.000  O
  O23      1.0000 0.21340  0.08070  0.43900  Biso   1.000  O
  O24      1.0000 0.78660  0.08070  0.06100  Biso   1.000  O
  O25      1.0000 0.15570  0.32340  0.49450  Biso   1.000  O
  O26      1.0000 0.84430  0.32340  0.00550  Biso   1.000  O
  O27      1.0000 0.65570  0.82340  0.49450  Biso   1.000  O
  O28      1.0000 0.34430  0.82340  0.00550  Biso   1.000  O
  O29      1.0000 0.84430  0.67660  0.50550  Biso   1.000  O
  O30      1.0000 0.15570  0.67660  0.99450  Biso   1.000  O
  O31      1.0000 0.34430  0.17660  0.50550  Biso   1.000  O
  O32      1.0000 0.65570  0.17660  0.99450  Biso   1.000  O
  O33      1.0000 0.97100  0.15410  0.43050  Biso   1.000  O
  O34      1.0000 0.02900  0.15410  0.06950  Biso   1.000  O
  O35      1.0000 0.47100  0.65410  0.43050  Biso   1.000  O
  O36      1.0000 0.52900  0.65410  0.06950  Biso   1.000  O
  O37      1.0000 0.02900  0.84590  0.56950  Biso   1.000  O
  O38      1.0000 0.97100  0.84590  0.93050  Biso   1.000  O
  O39      1.0000 0.52900  0.34590  0.56950  Biso   1.000  O
  O40      1.0000 0.47100  0.34590  0.93050  Biso   1.000  O
  O41      1.0000 0.90350  0.05460  0.49540  Biso   1.000  O
  O42      1.0000 0.09650  0.05460  0.00460  Biso   1.000  O
  O43      1.0000 0.40350  0.55460  0.49540  Biso   1.000  O
  O44      1.0000 0.59650  0.55460  0.00460  Biso   1.000  O
  O45      1.0000 0.09650  0.94540  0.50460  Biso   1.000  O
  O46      1.0000 0.90350  0.94540  0.99540  Biso   1.000  O
  O47      1.0000 0.59650  0.44540  0.50460  Biso   1.000  O
  O48      1.0000 0.40350  0.44540  0.99540  Biso   1.000  O
  C17      1.0000 0.00000  0.03110  0.25000  Biso   1.000  C
  C18      1.0000 0.50000  0.53110  0.25000  Biso   1.000  C
  C19      1.0000 0.00000  0.96890  0.75000  Biso   1.000  C
  C20      1.0000 0.50000  0.46890  0.75000  Biso   1.000  C
  C21      1.0000 0.00000  0.21830  0.25000  Biso   1.000  C
  C22      1.0000 0.50000  0.71830  0.25000  Biso   1.000  C
  C23      1.0000 0.00000  0.78170  0.75000  Biso   1.000  C
  C24      1.0000 0.50000  0.28170  0.75000  Biso   1.000  C
  C25      1.0000 0.23420  0.31900  0.51670  Biso   1.000  C
  C26      1.0000 0.76580  0.31900  0.98330  Biso   1.000  C
  C27      1.0000 0.73420  0.81900  0.51670  Biso   1.000  C
  C28      1.0000 0.26580  0.81900  0.98330  Biso   1.000  C
  C29      1.0000 0.76580  0.68100  0.48330  Biso   1.000  C
  C30      1.0000 0.23420  0.68100  0.01670  Biso   1.000  C
  C31      1.0000 0.26580  0.18100  0.48330  Biso   1.000  C
  C32      1.0000 0.73420  0.18100  0.01670  Biso   1.000  C
  C33      1.0000 0.96320  0.06040  0.47930  Biso   1.000  C
  C34      1.0000 0.03680  0.06040  0.02070  Biso   1.000  C
  C35      1.0000 0.46320  0.56040  0.47930  Biso   1.000  C
  C36      1.0000 0.53680  0.56040  0.02070  Biso   1.000  C
  C37      1.0000 0.03680  0.93960  0.52070  Biso   1.000  C
  C38      1.0000 0.96320  0.93960  0.97930  Biso   1.000  C
  C39      1.0000 0.53680  0.43960  0.52070  Biso   1.000  C
  C40      1.0000 0.46320  0.43960  0.97930  Biso   1.000  C
  O49      1.0000 0.16980  0.27070  0.21240  Biso   1.000  O
  O50      1.0000 0.83020  0.27070  0.28760  Biso   1.000  O
  O51      1.0000 0.66980  0.77070  0.21240  Biso   1.000  O
  O52      1.0000 0.33020  0.77070  0.28760  Biso   1.000  O
  O53      1.0000 0.83020  0.72930  0.78760  Biso   1.000  O
  O54      1.0000 0.16980  0.72930  0.71240  Biso   1.000  O
  O55      1.0000 0.33020  0.22930  0.78760  Biso   1.000  O
  O56      1.0000 0.66980  0.22930  0.71240  Biso   1.000  O
  H65      1.0000 0.13100  0.24390  0.16700  Biso   1.000  H
  H66      1.0000 0.86900  0.24390  0.33300  Biso   1.000  H
  H67      1.0000 0.63100  0.74390  0.16700  Biso   1.000  H
  H68      1.0000 0.36900  0.74390  0.33300  Biso   1.000  H
  H69      1.0000 0.86900  0.75610  0.83300  Biso   1.000  H
  H70      1.0000 0.13100  0.75610  0.66700  Biso   1.000  H
  H71      1.0000 0.36900  0.25610  0.83300  Biso   1.000  H
  H72      1.0000 0.63100  0.25610  0.66700  Biso   1.000  H
  H73      1.0000 0.20340  0.33370  0.20570  Biso   1.000  H
  H74      1.0000 0.79660  0.33370  0.29430  Biso   1.000  H
  H75      1.0000 0.70340  0.83370  0.20570  Biso   1.000  H
  H76      1.0000 0.29660  0.83370  0.29430  Biso   1.000  H
  H77      1.0000 0.79660  0.66630  0.79430  Biso   1.000  H
  H78      1.0000 0.20340  0.66630  0.70570  Biso   1.000  H
  H79      1.0000 0.29660  0.16630  0.79430  Biso   1.000  H
  H80      1.0000 0.70340  0.16630  0.70570  Biso   1.000  H
  O57      1.0000 0.29110  0.47500  0.21270  Biso   1.000  O
  O58      1.0000 0.70890  0.47500  0.28730  Biso   1.000  O
  O59      1.0000 0.79110  0.97500  0.21270  Biso   1.000  O
  O60      1.0000 0.20890  0.97500  0.28730  Biso   1.000  O
  O61      1.0000 0.70890  0.52500  0.78730  Biso   1.000  O
  O62      1.0000 0.29110  0.52500  0.71270  Biso   1.000  O
  O63      1.0000 0.20890  0.02500  0.78730  Biso   1.000  O
  O64      1.0000 0.79110  0.02500  0.71270  Biso   1.000  O
  H81      1.0000 0.28860  0.49610  0.16760  Biso   1.000  H
  H82      1.0000 0.71140  0.49610  0.33240  Biso   1.000  H
  H83      1.0000 0.78860  0.99610  0.16760  Biso   1.000  H
  H84      1.0000 0.21140  0.99610  0.33240  Biso   1.000  H
  H85      1.0000 0.71140  0.50390  0.83240  Biso   1.000  H
  H86      1.0000 0.28860  0.50390  0.66760  Biso   1.000  H
  H87      1.0000 0.21140  0.00390  0.83240  Biso   1.000  H
  H88      1.0000 0.78860  0.00390  0.66760  Biso   1.000  H
  H89      1.0000 0.30290  0.56080  0.23980  Biso   1.000  H
  H90      1.0000 0.69710  0.56080  0.26020  Biso   1.000  H
  H91      1.0000 0.80290  0.06080  0.23980  Biso   1.000  H
  H92      1.0000 0.19710  0.06080  0.26020  Biso   1.000  H
  H93      1.0000 0.69710  0.43920  0.76020  Biso   1.000  H
  H94      1.0000 0.30290  0.43920  0.73980  Biso   1.000  H
  H95      1.0000 0.19710  0.93920  0.76020  Biso   1.000  H
  H96      1.0000 0.80290  0.93920  0.73980  Biso   1.000  H
  O65      1.0000 0.24570  0.72830  0.41690  Biso   1.000  O
  O66      1.0000 0.75430  0.72830  0.08310  Biso   1.000  O
  O67      1.0000 0.74570  0.22830  0.41690  Biso   1.000  O
  O68      1.0000 0.25430  0.22830  0.08310  Biso   1.000  O
  O69      1.0000 0.75430  0.27170  0.58310  Biso   1.000  O
  O70      1.0000 0.24570  0.27170  0.91690  Biso   1.000  O
  O71      1.0000 0.25430  0.77170  0.58310  Biso   1.000  O
  O72      1.0000 0.74570  0.77170  0.91690  Biso   1.000  O
  O73      1.0000 0.22850  0.46100  0.36900  Biso   1.000  O
  O74      1.0000 0.77150  0.46100  0.13100  Biso   1.000  O
  O75      1.0000 0.72850  0.96100  0.36900  Biso   1.000  O
  O76      1.0000 0.27150  0.96100  0.13100  Biso   1.000  O
  O77      1.0000 0.77150  0.53900  0.63100  Biso   1.000  O
  O78      1.0000 0.22850  0.53900  0.86900  Biso   1.000  O
  O79      1.0000 0.27150  0.03900  0.63100  Biso   1.000  O
  O80      1.0000 0.72850  0.03900  0.86900  Biso   1.000  O
