data_image0
_cell_length_a       8.0412
_cell_length_b       8.715
_cell_length_c       10.091
_cell_angle_alpha    65.23
_cell_angle_beta     78.156
_cell_angle_gamma    78.795

_symmetry_space_group_name_H-M    "P 1"
_symmetry_int_tables_number       1

loop_
  _symmetry_equiv_pos_as_xyz
  'x, y, z'

loop_
  _atom_site_label
  _atom_site_occupancy
  _atom_site_fract_x
  _atom_site_fract_y
  _atom_site_fract_z
  _atom_site_thermal_displace_type
  _atom_site_B_iso_or_equiv
  _atom_site_type_symbol
  Cu1      1.0000 0.00000  0.00000  0.00000  Biso   1.000  Cu
  Mn1      1.0000 0.50214  0.15541  0.19340  Biso   1.000  Mn
  Mn2      1.0000 0.49786  0.84459  0.80660  Biso   1.000  Mn
  O1       1.0000 0.33080  0.91860  0.97700  Biso   1.000  O
  O2       1.0000 0.66920  0.08140  0.02300  Biso   1.000  O
  O3       1.0000 0.35350  0.00100  0.15353  Biso   1.000  O
  O4       1.0000 0.64650  0.99900  0.84647  Biso   1.000  O
  O5       1.0000 0.35050  0.15300  0.39678  Biso   1.000  O
  O6       1.0000 0.64950  0.84700  0.60322  Biso   1.000  O
  O7       1.0000 0.34680  0.02660  0.64050  Biso   1.000  O
  O8       1.0000 0.65320  0.97340  0.35950  Biso   1.000  O
  O9       1.0000 0.34290  0.36710  0.04900  Biso   1.000  O
  O10      1.0000 0.65710  0.63290  0.95100  Biso   1.000  O
  O11      1.0000 0.35020  0.63330  0.88550  Biso   1.000  O
  O12      1.0000 0.64980  0.36670  0.11450  Biso   1.000  O
  N1       1.0000 0.01500  0.22500  0.00790  Biso   1.000  N
  N2       1.0000 0.98500  0.77500  0.99210  Biso   1.000  N
  H1       1.0000 0.91231  0.26951  0.03750  Biso   1.000  H
  H2       1.0000 0.08769  0.73049  0.96250  Biso   1.000  H
  H3       1.0000 0.08604  0.21101  0.07017  Biso   1.000  H
  H4       1.0000 0.91396  0.78899  0.92983  Biso   1.000  H
  N3       1.0000 0.00610  0.13500  0.78270  Biso   1.000  N
  N4       1.0000 0.99390  0.86500  0.21730  Biso   1.000  N
  H5       1.0000 0.10756  0.11209  0.73511  Biso   1.000  H
  H6       1.0000 0.89244  0.88791  0.26489  Biso   1.000  H
  H7       1.0000 0.92556  0.10913  0.74949  Biso   1.000  H
  H8       1.0000 0.07444  0.89087  0.25051  Biso   1.000  H
  C1       1.0000 0.40870  0.97750  0.03850  Biso   1.000  C
  C2       1.0000 0.59130  0.02250  0.96150  Biso   1.000  C
  C3       1.0000 0.41350  0.05100  0.51020  Biso   1.000  C
  C4       1.0000 0.58650  0.94900  0.48980  Biso   1.000  C
  C5       1.0000 0.40970  0.49920  0.98150  Biso   1.000  C
  C6       1.0000 0.59030  0.50080  0.01850  Biso   1.000  C
  C7       1.0000 0.07840  0.33450  0.86010  Biso   1.000  C
  C8       1.0000 0.92160  0.66550  0.13990  Biso   1.000  C
  H9       1.0000 0.19917  0.30050  0.83631  Biso   1.000  H
  H10      1.0000 0.80083  0.69950  0.16369  Biso   1.000  H
  H11      1.0000 0.06335  0.45175  0.85027  Biso   1.000  H
  H12      1.0000 0.93665  0.54825  0.14973  Biso   1.000  H
  C9       1.0000 0.97560  0.31590  0.75890  Biso   1.000  C
  C10      1.0000 0.02440  0.68410  0.24110  Biso   1.000  C
  H13      1.0000 0.85475  0.34984  0.78266  Biso   1.000  H
  H14      1.0000 0.14525  0.65016  0.21734  Biso   1.000  H
  H15      1.0000 0.01291  0.38637  0.65696  Biso   1.000  H
  H16      1.0000 0.98709  0.61363  0.34304  Biso   1.000  H
  O13      1.0000 0.00640  0.14980  0.36750  Biso   1.000  O
  O14      1.0000 0.99360  0.85020  0.63250  Biso   1.000  O
  H17      1.0000 0.99721  0.04707  0.42666  Biso   1.000  H
  H18      1.0000 0.00279  0.95293  0.57334  Biso   1.000  H
  H19      1.0000 0.04798  0.15333  0.28190  Biso   1.000  H
  H20      1.0000 0.95202  0.84667  0.71810  Biso   1.000  H
  O15      1.0000 0.45700  0.53340  0.35940  Biso   1.000  O
  O16      1.0000 0.54300  0.46660  0.64060  Biso   1.000  O
  H21      1.0000 0.92790  0.24648  0.07066  Biso   1.000  H
  H22      1.0000 0.07210  0.75352  0.92934  Biso   1.000  H
  H23      1.0000 0.11181  0.21896  0.04052  Biso   1.000  H
  H24      1.0000 0.88819  0.78104  0.95948  Biso   1.000  H
  H25      1.0000 0.07103  0.07529  0.73367  Biso   1.000  H
  H26      1.0000 0.92897  0.92471  0.26633  Biso   1.000  H
  H27      1.0000 0.90089  0.15791  0.75878  Biso   1.000  H
  H28      1.0000 0.09911  0.84209  0.24122  Biso   1.000  H
  C11      1.0000 0.01020  0.36220  0.86310  Biso   1.000  C
  C12      1.0000 0.98980  0.63780  0.13690  Biso   1.000  C
  H29      1.0000 0.07913  0.44740  0.85282  Biso   1.000  H
  H30      1.0000 0.92087  0.55260  0.14718  Biso   1.000  H
  H31      1.0000 0.89339  0.41597  0.85285  Biso   1.000  H
  H32      1.0000 0.10661  0.58403  0.14715  Biso   1.000  H
  C13      1.0000 0.07750  0.29600  0.74260  Biso   1.000  C
  C14      1.0000 0.92250  0.70400  0.25740  Biso   1.000  C
  H33      1.0000 0.04379  0.37964  0.64950  Biso   1.000  H
  H34      1.0000 0.95621  0.62036  0.35050  Biso   1.000  H
  H35      1.0000 0.20156  0.27573  0.73165  Biso   1.000  H
  H36      1.0000 0.79844  0.72427  0.26835  Biso   1.000  H
  O17      1.0000 0.33290  0.62890  0.55600  Biso   1.000  O
  O18      1.0000 0.66710  0.37110  0.44400  Biso   1.000  O
  H37      1.0000 0.29161  0.71646  0.48768  Biso   1.000  H
  H38      1.0000 0.70839  0.28354  0.51232  Biso   1.000  H
  H39      1.0000 0.26427  0.60977  0.63578  Biso   1.000  H
  H40      1.0000 0.73573  0.39023  0.36422  Biso   1.000  H
  O19      1.0000 0.22590  0.70780  0.48350  Biso   1.000  O
  O20      1.0000 0.77410  0.29220  0.51650  Biso   1.000  O
  H41      1.0000 0.14519  0.73899  0.53941  Biso   1.000  H
  H42      1.0000 0.85481  0.26101  0.46059  Biso   1.000  H
  H43      1.0000 0.31615  0.70110  0.51812  Biso   1.000  H
  H44      1.0000 0.68385  0.29890  0.48188  Biso   1.000  H
  H45      1.0000 0.47825  0.44491  0.45448  Biso   1.000  H
  H46      1.0000 0.52175  0.55509  0.54552  Biso   1.000  H
  H47      1.0000 0.43489  0.44902  0.34729  Biso   1.000  H
  H48      1.0000 0.56511  0.55098  0.65271  Biso   1.000  H
  H49      1.0000 0.36460  0.59806  0.36661  Biso   1.000  H
  H50      1.0000 0.63540  0.40194  0.63339  Biso   1.000  H
  O21      1.0000 0.50000  0.50000  0.50000  Biso   1.000  O
  H51      1.0000 0.60800  0.48007  0.49834  Biso   1.000  H
  H52      1.0000 0.39200  0.51993  0.50166  Biso   1.000  H
