data_image0
_cell_length_a       9.4225
_cell_length_b       10.466
_cell_length_c       10.7979
_cell_angle_alpha    62.248
_cell_angle_beta     72.937
_cell_angle_gamma    69.856

_symmetry_space_group_name_H-M    "P 1"
_symmetry_int_tables_number       1

loop_
  _symmetry_equiv_pos_as_xyz
  'x, y, z'

loop_
  _atom_site_label
  _atom_site_occupancy
  _atom_site_fract_x
  _atom_site_fract_y
  _atom_site_fract_z
  _atom_site_thermal_displace_type
  _atom_site_B_iso_or_equiv
  _atom_site_type_symbol
  Cu1      1.0000 0.50000  0.50000  0.00000  Biso   1.000  Cu
  F1       1.0000 0.25136  0.30055  0.43965  Biso   1.000  F
  F2       1.0000 0.74864  0.69945  0.56035  Biso   1.000  F
  F3       1.0000 0.81084  0.13080  0.55721  Biso   1.000  F
  F4       1.0000 0.18916  0.86920  0.44279  Biso   1.000  F
  O1       1.0000 0.27889  0.12555  0.87818  Biso   1.000  O
  O2       1.0000 0.72111  0.87445  0.12182  Biso   1.000  O
  H1       1.0000 0.20180  0.17160  0.91330  Biso   1.000  H
  H2       1.0000 0.79820  0.82840  0.08670  Biso   1.000  H
  O3       1.0000 0.23617  0.51199  0.10494  Biso   1.000  O
  O4       1.0000 0.76383  0.48801  0.89506  Biso   1.000  O
  H3       1.0000 0.21210  0.42840  0.14480  Biso   1.000  H
  H4       1.0000 0.78790  0.57160  0.85520  Biso   1.000  H
  H5       1.0000 0.16770  0.57690  0.05890  Biso   1.000  H
  H6       1.0000 0.83230  0.42310  0.94110  Biso   1.000  H
  N1       1.0000 0.48755  0.42602  0.86194  Biso   1.000  N
  N2       1.0000 0.51245  0.57398  0.13806  Biso   1.000  N
  N3       1.0000 0.39375  0.38147  0.72947  Biso   1.000  N
  N4       1.0000 0.60625  0.61853  0.27053  Biso   1.000  N
  N5       1.0000 0.54509  0.36780  0.67473  Biso   1.000  N
  N6       1.0000 0.45491  0.63220  0.32527  Biso   1.000  N
  N7       1.0000 0.43888  0.94796  0.72563  Biso   1.000  N
  N8       1.0000 0.56112  0.05204  0.27437  Biso   1.000  N
  N9       1.0000 0.37698  0.90840  0.65301  Biso   1.000  N
  N10      1.0000 0.62302  0.09160  0.34699  Biso   1.000  N
  N11      1.0000 0.44684  0.71374  0.85287  Biso   1.000  N
  N12      1.0000 0.55316  0.28626  0.14713  Biso   1.000  N
  C1       1.0000 0.15412  0.18315  0.68275  Biso   1.000  C
  C2       1.0000 0.84588  0.81685  0.31725  Biso   1.000  C
  C3       1.0000 0.14210  0.23480  0.54152  Biso   1.000  C
  C4       1.0000 0.85790  0.76520  0.45848  Biso   1.000  C
  C5       1.0000 0.02890  0.22020  0.49640  Biso   1.000  C
  C6       1.0000 0.97110  0.77980  0.50360  Biso   1.000  C
  H7       1.0000 0.02500  0.25650  0.40050  Biso   1.000  H
  H8       1.0000 0.97500  0.74350  0.59950  Biso   1.000  H
  C7       1.0000 0.92150  0.14960  0.59940  Biso   1.000  C
  C8       1.0000 0.07850  0.85040  0.40060  Biso   1.000  C
  C9       1.0000 0.92460  0.09680  0.74040  Biso   1.000  C
  C10      1.0000 0.07540  0.90320  0.25960  Biso   1.000  C
  H9       1.0000 0.85040  0.05000  0.80790  Biso   1.000  H
  H10      1.0000 0.14960  0.95000  0.19210  Biso   1.000  H
  C11      1.0000 0.04060  0.11430  0.78112  Biso   1.000  C
  C12      1.0000 0.95940  0.88570  0.21888  Biso   1.000  C
  H11      1.0000 0.04280  0.07900  0.87730  Biso   1.000  H
  H12      1.0000 0.95720  0.92100  0.12270  Biso   1.000  H
  C13      1.0000 0.28838  0.19200  0.72909  Biso   1.000  C
  C14      1.0000 0.71162  0.80800  0.27091  Biso   1.000  C
  C15      1.0000 0.28912  0.35803  0.67003  Biso   1.000  C
  C16      1.0000 0.71088  0.64197  0.32997  Biso   1.000  C
  H13      1.0000 0.31830  0.39550  0.56780  Biso   1.000  H
  H14      1.0000 0.68170  0.60450  0.43220  Biso   1.000  H
  H15      1.0000 0.18630  0.41470  0.69070  Biso   1.000  H
  H16      1.0000 0.81370  0.58530  0.30930  Biso   1.000  H
  C17      1.0000 0.36097  0.41602  0.83923  Biso   1.000  C
  C18      1.0000 0.63903  0.58398  0.16077  Biso   1.000  C
  H17      1.0000 0.26430  0.43110  0.89260  Biso   1.000  H
  H18      1.0000 0.73570  0.56890  0.10740  Biso   1.000  H
  C19      1.0000 0.59614  0.39540  0.75892  Biso   1.000  C
  C20      1.0000 0.40386  0.60460  0.24108  Biso   1.000  C
  H19      1.0000 0.69820  0.39400  0.74830  Biso   1.000  H
  H20      1.0000 0.30180  0.60600  0.25170  Biso   1.000  H
  C21      1.0000 0.44174  0.10312  0.67614  Biso   1.000  C
  C22      1.0000 0.55826  0.89688  0.32386  Biso   1.000  C
  H21      1.0000 0.46160  0.14780  0.57330  Biso   1.000  H
  H22      1.0000 0.53840  0.85220  0.42670  Biso   1.000  H
  H23      1.0000 0.52390  0.10700  0.71040  Biso   1.000  H
  H24      1.0000 0.47610  0.89300  0.28960  Biso   1.000  H
  C23      1.0000 0.47844  0.83276  0.84238  Biso   1.000  C
  C24      1.0000 0.52156  0.16724  0.15762  Biso   1.000  C
  H25      1.0000 0.52230  0.83460  0.90810  Biso   1.000  H
  H26      1.0000 0.47770  0.16540  0.09190  Biso   1.000  H
  C25      1.0000 0.38390  0.76757  0.73343  Biso   1.000  C
  C26      1.0000 0.61610  0.23243  0.26657  Biso   1.000  C
  H27      1.0000 0.34890  0.70880  0.71140  Biso   1.000  H
  H28      1.0000 0.65110  0.29120  0.28860  Biso   1.000  H
  O5       1.0000 0.17608  0.23071  0.14238  Biso   1.000  O
  O6       1.0000 0.82392  0.76929  0.85762  Biso   1.000  O
  O7       1.0000 0.02000  0.26998  0.00925  Biso   1.000  O
  O8       1.0000 0.98000  0.73002  0.99075  Biso   1.000  O
  O9       1.0000 0.94832  0.36560  0.16307  Biso   1.000  O
  O10      1.0000 0.05168  0.63440  0.83693  Biso   1.000  O
  N13      1.0000 0.04787  0.28864  0.10644  Biso   1.000  N
  N14      1.0000 0.95213  0.71136  0.89356  Biso   1.000  N
