data_image0
_cell_length_a       8.0276
_cell_length_b       19.859
_cell_length_c       21.265
_cell_angle_alpha    90
_cell_angle_beta     90
_cell_angle_gamma    90

_symmetry_space_group_name_H-M    "P 1"
_symmetry_int_tables_number       1

loop_
  _symmetry_equiv_pos_as_xyz
  'x, y, z'

loop_
  _atom_site_label
  _atom_site_occupancy
  _atom_site_fract_x
  _atom_site_fract_y
  _atom_site_fract_z
  _atom_site_thermal_displace_type
  _atom_site_B_iso_or_equiv
  _atom_site_type_symbol
  C1       1.0000 0.56640  0.57030  0.07920  Biso   1.000  C
  C2       1.0000 0.93360  0.42970  0.57920  Biso   1.000  C
  C3       1.0000 0.43360  0.07030  0.42080  Biso   1.000  C
  C4       1.0000 0.06640  0.92970  0.92080  Biso   1.000  C
  C5       1.0000 0.59030  0.63480  0.11540  Biso   1.000  C
  C6       1.0000 0.90970  0.36520  0.61540  Biso   1.000  C
  C7       1.0000 0.40970  0.13480  0.38460  Biso   1.000  C
  C8       1.0000 0.09030  0.86520  0.88460  Biso   1.000  C
  H1       1.0000 0.48880  0.64520  0.13810  Biso   1.000  H
  H2       1.0000 0.01120  0.35480  0.63810  Biso   1.000  H
  H3       1.0000 0.51120  0.14520  0.36190  Biso   1.000  H
  H4       1.0000 0.98880  0.85480  0.86190  Biso   1.000  H
  H5       1.0000 0.67880  0.62870  0.14590  Biso   1.000  H
  H6       1.0000 0.82120  0.37130  0.64590  Biso   1.000  H
  H7       1.0000 0.32120  0.12870  0.35410  Biso   1.000  H
  H8       1.0000 0.17880  0.87130  0.85410  Biso   1.000  H
  C9       1.0000 0.74730  0.74210  0.09790  Biso   1.000  C
  C10      1.0000 0.75270  0.25790  0.59790  Biso   1.000  C
  C11      1.0000 0.25270  0.24210  0.40210  Biso   1.000  C
  C12      1.0000 0.24730  0.75790  0.90210  Biso   1.000  C
  H9       1.0000 0.80360  0.72370  0.13440  Biso   1.000  H
  H10      1.0000 0.69640  0.27630  0.63440  Biso   1.000  H
  H11      1.0000 0.19640  0.22370  0.36560  Biso   1.000  H
  H12      1.0000 0.30360  0.77630  0.86560  Biso   1.000  H
  H13      1.0000 0.68490  0.78140  0.11130  Biso   1.000  H
  H14      1.0000 0.81510  0.21860  0.61130  Biso   1.000  H
  H15      1.0000 0.31510  0.28140  0.38870  Biso   1.000  H
  H16      1.0000 0.18490  0.71860  0.88870  Biso   1.000  H
  C13      1.0000 0.87990  0.76390  0.04810  Biso   1.000  C
  C14      1.0000 0.62010  0.23610  0.54810  Biso   1.000  C
  C15      1.0000 0.12010  0.26390  0.45190  Biso   1.000  C
  C16      1.0000 0.37990  0.73610  0.95190  Biso   1.000  C
  C17      1.0000 0.93940  0.56260  0.92180  Biso   1.000  C
  C18      1.0000 0.56060  0.43740  0.42180  Biso   1.000  C
  C19      1.0000 0.06060  0.06260  0.57820  Biso   1.000  C
  C20      1.0000 0.43940  0.93740  0.07820  Biso   1.000  C
  H17      1.0000 0.94410  0.53210  0.95500  Biso   1.000  H
  H18      1.0000 0.55590  0.46790  0.45500  Biso   1.000  H
  H19      1.0000 0.05590  0.03210  0.54500  Biso   1.000  H
  H20      1.0000 0.44410  0.96790  0.04500  Biso   1.000  H
  C21      1.0000 0.87340  0.64870  0.86440  Biso   1.000  C
  C22      1.0000 0.62660  0.35130  0.36440  Biso   1.000  C
  C23      1.0000 0.12660  0.14870  0.63560  Biso   1.000  C
  C24      1.0000 0.37340  0.85130  0.13560  Biso   1.000  C
  C25      1.0000 0.81390  0.70700  0.83840  Biso   1.000  C
  C26      1.0000 0.68610  0.29300  0.33840  Biso   1.000  C
  C27      1.0000 0.18610  0.20700  0.66160  Biso   1.000  C
  C28      1.0000 0.31390  0.79300  0.16160  Biso   1.000  C
  H21      1.0000 0.73360  0.73220  0.85930  Biso   1.000  H
  H22      1.0000 0.76640  0.26780  0.35930  Biso   1.000  H
  H23      1.0000 0.26640  0.23220  0.64070  Biso   1.000  H
  H24      1.0000 0.23360  0.76780  0.14070  Biso   1.000  H
  C29      1.0000 0.87360  0.72800  0.78100  Biso   1.000  C
  C30      1.0000 0.62640  0.27200  0.28100  Biso   1.000  C
  C31      1.0000 0.12640  0.22800  0.71900  Biso   1.000  C
  C32      1.0000 0.37360  0.77200  0.21900  Biso   1.000  C
  H25      1.0000 0.83210  0.76760  0.76370  Biso   1.000  H
  H26      1.0000 0.66790  0.23240  0.26370  Biso   1.000  H
  H27      1.0000 0.16790  0.26760  0.73630  Biso   1.000  H
  H28      1.0000 0.33210  0.73240  0.23630  Biso   1.000  H
  C33      1.0000 0.99180  0.69270  0.74860  Biso   1.000  C
  C34      1.0000 0.50820  0.30730  0.24860  Biso   1.000  C
  C35      1.0000 0.00820  0.19270  0.75140  Biso   1.000  C
  C36      1.0000 0.49180  0.80730  0.25140  Biso   1.000  C
  H29      1.0000 0.02970  0.70880  0.71010  Biso   1.000  H
  H30      1.0000 0.47030  0.29120  0.21010  Biso   1.000  H
  H31      1.0000 0.97030  0.20880  0.78990  Biso   1.000  H
  H32      1.0000 0.52970  0.79120  0.28990  Biso   1.000  H
  C37      1.0000 0.05610  0.63300  0.77270  Biso   1.000  C
  C38      1.0000 0.44390  0.36700  0.27270  Biso   1.000  C
  C39      1.0000 0.94390  0.13300  0.72730  Biso   1.000  C
  C40      1.0000 0.55610  0.86700  0.22730  Biso   1.000  C
  H33      1.0000 0.13550  0.60800  0.75100  Biso   1.000  H
  H34      1.0000 0.36450  0.39200  0.25100  Biso   1.000  H
  H35      1.0000 0.86450  0.10800  0.74900  Biso   1.000  H
  H36      1.0000 0.63550  0.89200  0.24900  Biso   1.000  H
  C41      1.0000 0.99500  0.61250  0.83100  Biso   1.000  C
  C42      1.0000 0.50500  0.38750  0.33100  Biso   1.000  C
  C43      1.0000 0.00500  0.11250  0.66900  Biso   1.000  C
  C44      1.0000 0.49500  0.88750  0.16900  Biso   1.000  C
  C45      1.0000 0.18690  0.51130  0.86180  Biso   1.000  C
  C46      1.0000 0.31310  0.48870  0.36180  Biso   1.000  C
  C47      1.0000 0.81310  0.01130  0.63820  Biso   1.000  C
  C48      1.0000 0.68690  0.98870  0.13820  Biso   1.000  C
  H37      1.0000 0.18090  0.47420  0.89140  Biso   1.000  H
  H38      1.0000 0.31910  0.52580  0.39140  Biso   1.000  H
  H39      1.0000 0.81910  0.97420  0.60860  Biso   1.000  H
  H40      1.0000 0.68090  0.02580  0.10860  Biso   1.000  H
  H41      1.0000 0.19080  0.49280  0.81960  Biso   1.000  H
  H42      1.0000 0.30920  0.50720  0.31960  Biso   1.000  H
  H43      1.0000 0.80920  0.99280  0.68040  Biso   1.000  H
  H44      1.0000 0.69080  0.00720  0.18040  Biso   1.000  H
  C49      1.0000 0.34490  0.55360  0.87450  Biso   1.000  C
  C50      1.0000 0.15510  0.44640  0.37450  Biso   1.000  C
  C51      1.0000 0.65510  0.05360  0.62550  Biso   1.000  C
  C52      1.0000 0.84490  0.94640  0.12550  Biso   1.000  C
  H45      1.0000 0.36910  0.55250  0.91920  Biso   1.000  H
  H46      1.0000 0.13090  0.44750  0.41920  Biso   1.000  H
  H47      1.0000 0.63090  0.05250  0.58080  Biso   1.000  H
  H48      1.0000 0.86910  0.94750  0.08080  Biso   1.000  H
  H49      1.0000 0.32270  0.60000  0.86300  Biso   1.000  H
  H50      1.0000 0.17730  0.40000  0.36300  Biso   1.000  H
  H51      1.0000 0.67730  0.10000  0.63700  Biso   1.000  H
  H52      1.0000 0.82270  0.90000  0.13700  Biso   1.000  H
  C53      1.0000 0.50190  0.52870  0.83750  Biso   1.000  C
  C54      1.0000 0.99810  0.47130  0.33750  Biso   1.000  C
  C55      1.0000 0.49810  0.02870  0.66250  Biso   1.000  C
  C56      1.0000 0.00190  0.97130  0.16250  Biso   1.000  C
  H53      1.0000 0.47890  0.52760  0.79280  Biso   1.000  H
  H54      1.0000 0.02110  0.47240  0.29280  Biso   1.000  H
  H55      1.0000 0.52110  0.02760  0.70720  Biso   1.000  H
  H56      1.0000 0.97890  0.97240  0.20720  Biso   1.000  H
  H57      1.0000 0.59510  0.55880  0.84480  Biso   1.000  H
  H58      1.0000 0.90490  0.44120  0.34480  Biso   1.000  H
  H59      1.0000 0.40490  0.05880  0.65520  Biso   1.000  H
  H60      1.0000 0.09510  0.94120  0.15520  Biso   1.000  H
  C57      1.0000 0.61500  0.44780  0.91640  Biso   1.000  C
  C58      1.0000 0.88500  0.55220  0.41640  Biso   1.000  C
  C59      1.0000 0.38500  0.94780  0.58360  Biso   1.000  C
  C60      1.0000 0.11500  0.05220  0.08360  Biso   1.000  C
  H61      1.0000 0.62620  0.47900  0.94880  Biso   1.000  H
  H62      1.0000 0.87380  0.52100  0.44880  Biso   1.000  H
  H63      1.0000 0.37380  0.97900  0.55120  Biso   1.000  H
  H64      1.0000 0.12620  0.02100  0.05120  Biso   1.000  H
  C61      1.0000 0.54200  0.40240  0.82520  Biso   1.000  C
  C62      1.0000 0.95800  0.59760  0.32520  Biso   1.000  C
  C63      1.0000 0.45800  0.90240  0.67480  Biso   1.000  C
  C64      1.0000 0.04200  0.09760  0.17480  Biso   1.000  C
  C65      1.0000 0.48120  0.38790  0.76520  Biso   1.000  C
  C66      1.0000 0.01880  0.61210  0.26520  Biso   1.000  C
  C67      1.0000 0.51880  0.88790  0.73480  Biso   1.000  C
  C68      1.0000 0.98120  0.11210  0.23480  Biso   1.000  C
  H65      1.0000 0.42480  0.41970  0.74110  Biso   1.000  H
  H66      1.0000 0.07520  0.58030  0.24110  Biso   1.000  H
  H67      1.0000 0.57520  0.91970  0.75890  Biso   1.000  H
  H68      1.0000 0.92480  0.08030  0.25890  Biso   1.000  H
  C69      1.0000 0.51020  0.32380  0.74410  Biso   1.000  C
  C70      1.0000 0.98980  0.67620  0.24410  Biso   1.000  C
  C71      1.0000 0.48980  0.82380  0.75590  Biso   1.000  C
  C72      1.0000 0.01020  0.17620  0.25590  Biso   1.000  C
  H69      1.0000 0.47460  0.31250  0.70380  Biso   1.000  H
  H70      1.0000 0.02540  0.68750  0.20380  Biso   1.000  H
  H71      1.0000 0.52540  0.81250  0.79620  Biso   1.000  H
  H72      1.0000 0.97460  0.18750  0.29620  Biso   1.000  H
  C73      1.0000 0.58970  0.27480  0.77960  Biso   1.000  C
  C74      1.0000 0.91030  0.72520  0.27960  Biso   1.000  C
  C75      1.0000 0.41030  0.77480  0.72040  Biso   1.000  C
  C76      1.0000 0.08970  0.22520  0.22040  Biso   1.000  C
  H73      1.0000 0.60380  0.23170  0.76340  Biso   1.000  H
  H74      1.0000 0.89620  0.76830  0.26340  Biso   1.000  H
  H75      1.0000 0.39620  0.73170  0.73660  Biso   1.000  H
  H76      1.0000 0.10380  0.26830  0.23660  Biso   1.000  H
  C77      1.0000 0.64770  0.28990  0.83860  Biso   1.000  C
  C78      1.0000 0.85230  0.71010  0.33860  Biso   1.000  C
  C79      1.0000 0.35230  0.78990  0.66140  Biso   1.000  C
  C80      1.0000 0.14770  0.21010  0.16140  Biso   1.000  C
  H77      1.0000 0.70150  0.25750  0.86280  Biso   1.000  H
  H78      1.0000 0.79850  0.74250  0.36280  Biso   1.000  H
  H79      1.0000 0.29850  0.75750  0.63720  Biso   1.000  H
  H80      1.0000 0.20150  0.24250  0.13720  Biso   1.000  H
  C81      1.0000 0.62360  0.35610  0.86200  Biso   1.000  C
  C82      1.0000 0.87640  0.64390  0.36200  Biso   1.000  C
  C83      1.0000 0.37640  0.85610  0.63800  Biso   1.000  C
  C84      1.0000 0.12360  0.14390  0.13800  Biso   1.000  C
  C85      1.0000 0.61000  0.23640  0.04930  Biso   1.000  C
  C86      1.0000 0.89000  0.76360  0.54930  Biso   1.000  C
  C87      1.0000 0.39000  0.73640  0.45070  Biso   1.000  C
  C88      1.0000 0.11000  0.26360  0.95070  Biso   1.000  C
  C89      1.0000 0.74130  0.25820  0.09910  Biso   1.000  C
  C90      1.0000 0.75870  0.74180  0.59910  Biso   1.000  C
  C91      1.0000 0.25870  0.75820  0.40090  Biso   1.000  C
  C92      1.0000 0.24130  0.24180  0.90090  Biso   1.000  C
  H81      1.0000 0.68430  0.27730  0.13520  Biso   1.000  H
  H82      1.0000 0.81570  0.72270  0.63520  Biso   1.000  H
  H83      1.0000 0.31570  0.77730  0.36480  Biso   1.000  H
  H84      1.0000 0.18430  0.22270  0.86480  Biso   1.000  H
  H85      1.0000 0.80180  0.21870  0.11330  Biso   1.000  H
  H86      1.0000 0.69820  0.78130  0.61330  Biso   1.000  H
  H87      1.0000 0.19820  0.71870  0.38670  Biso   1.000  H
  H88      1.0000 0.30180  0.28130  0.88670  Biso   1.000  H
  C93      1.0000 0.89940  0.36440  0.11620  Biso   1.000  C
  C94      1.0000 0.60060  0.63560  0.61620  Biso   1.000  C
  C95      1.0000 0.10060  0.86440  0.38380  Biso   1.000  C
  C96      1.0000 0.39940  0.13560  0.88380  Biso   1.000  C
  H89      1.0000 0.00030  0.35450  0.13950  Biso   1.000  H
  H90      1.0000 0.49970  0.64550  0.63950  Biso   1.000  H
  H91      1.0000 0.99970  0.85450  0.36050  Biso   1.000  H
  H92      1.0000 0.50030  0.14550  0.86050  Biso   1.000  H
  H93      1.0000 0.80990  0.37100  0.14620  Biso   1.000  H
  H94      1.0000 0.69010  0.62900  0.64620  Biso   1.000  H
  H95      1.0000 0.19010  0.87100  0.35380  Biso   1.000  H
  H96      1.0000 0.30990  0.12900  0.85380  Biso   1.000  H
  C97      1.0000 0.92430  0.42890  0.07790  Biso   1.000  C
  C98      1.0000 0.57570  0.57110  0.57790  Biso   1.000  C
  C99      1.0000 0.07570  0.92890  0.42210  Biso   1.000  C
  C100     1.0000 0.42430  0.07110  0.92210  Biso   1.000  C
  C101     1.0000 0.64280  0.87830  0.93910  Biso   1.000  C
  C102     1.0000 0.85720  0.12170  0.43910  Biso   1.000  C
  C103     1.0000 0.35720  0.37830  0.56090  Biso   1.000  C
  C104     1.0000 0.14280  0.62170  0.06090  Biso   1.000  C
  C105     1.0000 0.85310  0.11730  0.95260  Biso   1.000  C
  C106     1.0000 0.64690  0.88270  0.45260  Biso   1.000  C
  C107     1.0000 0.14690  0.61730  0.54740  Biso   1.000  C
  C108     1.0000 0.35310  0.38270  0.04740  Biso   1.000  C
  C109     1.0000 0.96200  0.39950  0.78210  Biso   1.000  C
  C110     1.0000 0.53800  0.60050  0.28210  Biso   1.000  C
  C111     1.0000 0.03800  0.89950  0.71790  Biso   1.000  C
  C112     1.0000 0.46200  0.10050  0.21790  Biso   1.000  C
  Cu1      1.0000 0.72678  0.65391  0.99454  Biso   1.000  Cu
  Cu2      1.0000 0.77322  0.34609  0.49454  Biso   1.000  Cu
  Cu3      1.0000 0.27322  0.15391  0.50546  Biso   1.000  Cu
  Cu4      1.0000 0.22678  0.84609  0.00546  Biso   1.000  Cu
  Cu5      1.0000 0.76954  0.34449  0.99439  Biso   1.000  Cu
  Cu6      1.0000 0.73046  0.65551  0.49439  Biso   1.000  Cu
  Cu7      1.0000 0.23046  0.84449  0.50561  Biso   1.000  Cu
  Cu8      1.0000 0.26954  0.15551  0.00561  Biso   1.000  Cu
  N1       1.0000 0.63290  0.69230  0.07310  Biso   1.000  N
  N2       1.0000 0.86710  0.30770  0.57310  Biso   1.000  N
  N3       1.0000 0.36710  0.19230  0.42690  Biso   1.000  N
  N4       1.0000 0.13290  0.80770  0.92690  Biso   1.000  N
  N5       1.0000 0.84110  0.61590  0.92100  Biso   1.000  N
  N6       1.0000 0.65890  0.38410  0.42100  Biso   1.000  N
  N7       1.0000 0.15890  0.11590  0.57900  Biso   1.000  N
  N8       1.0000 0.34110  0.88410  0.07900  Biso   1.000  N
  N9       1.0000 0.03230  0.55710  0.86910  Biso   1.000  N
  N10      1.0000 0.46770  0.44290  0.36910  Biso   1.000  N
  N11      1.0000 0.96770  0.05710  0.63090  Biso   1.000  N
  N12      1.0000 0.53230  0.94290  0.13090  Biso   1.000  N
  N13      1.0000 0.54150  0.46120  0.86030  Biso   1.000  N
  N14      1.0000 0.95850  0.53880  0.36030  Biso   1.000  N
  N15      1.0000 0.45850  0.96120  0.63970  Biso   1.000  N
  N16      1.0000 0.04150  0.03880  0.13970  Biso   1.000  N
  N17      1.0000 0.66880  0.38500  0.91930  Biso   1.000  N
  N18      1.0000 0.83120  0.61500  0.41930  Biso   1.000  N
  N19      1.0000 0.33120  0.88500  0.58070  Biso   1.000  N
  N20      1.0000 0.16880  0.11500  0.08070  Biso   1.000  N
  N21      1.0000 0.85870  0.30710  0.07480  Biso   1.000  N
  N22      1.0000 0.64130  0.69290  0.57480  Biso   1.000  N
  N23      1.0000 0.14130  0.80710  0.42520  Biso   1.000  N
  N24      1.0000 0.35870  0.19290  0.92520  Biso   1.000  N
  O1       1.0000 0.61210  0.57070  0.02100  Biso   1.000  O
  O2       1.0000 0.88790  0.42930  0.52100  Biso   1.000  O
  O3       1.0000 0.38790  0.07070  0.47900  Biso   1.000  O
  O4       1.0000 0.11210  0.92930  0.97900  Biso   1.000  O
  O5       1.0000 0.51350  0.52100  0.10730  Biso   1.000  O
  O6       1.0000 0.98650  0.47900  0.60730  Biso   1.000  O
  O7       1.0000 0.48650  0.02100  0.39270  Biso   1.000  O
  O8       1.0000 0.01350  0.97900  0.89270  Biso   1.000  O
  O9       1.0000 0.86690  0.73650  0.99390  Biso   1.000  O
  O10      1.0000 0.63310  0.26350  0.49390  Biso   1.000  O
  O11      1.0000 0.13310  0.23650  0.50610  Biso   1.000  O
  O12      1.0000 0.36690  0.76350  0.00610  Biso   1.000  O
  O13      1.0000 0.98670  0.80490  0.06420  Biso   1.000  O
  O14      1.0000 0.51330  0.19510  0.56420  Biso   1.000  O
  O15      1.0000 0.01330  0.30490  0.43580  Biso   1.000  O
  O16      1.0000 0.48670  0.69510  0.93580  Biso   1.000  O
  O17      1.0000 0.62510  0.26240  0.99470  Biso   1.000  O
  O18      1.0000 0.87490  0.73760  0.49470  Biso   1.000  O
  O19      1.0000 0.37490  0.76240  0.50530  Biso   1.000  O
  O20      1.0000 0.12510  0.23760  0.00530  Biso   1.000  O
  O21      1.0000 0.50250  0.19550  0.06440  Biso   1.000  O
  O22      1.0000 0.99750  0.80450  0.56440  Biso   1.000  O
  O23      1.0000 0.49750  0.69550  0.43560  Biso   1.000  O
  O24      1.0000 0.00250  0.30450  0.93560  Biso   1.000  O
  O25      1.0000 0.88380  0.42800  0.02020  Biso   1.000  O
  O26      1.0000 0.61620  0.57200  0.52020  Biso   1.000  O
  O27      1.0000 0.11620  0.92800  0.47980  Biso   1.000  O
  O28      1.0000 0.38380  0.07200  0.97980  Biso   1.000  O
  O29      1.0000 0.97830  0.47840  0.10730  Biso   1.000  O
  O30      1.0000 0.52170  0.52160  0.60730  Biso   1.000  O
  O31      1.0000 0.02170  0.97840  0.39270  Biso   1.000  O
  O32      1.0000 0.47830  0.02160  0.89270  Biso   1.000  O
  O33      1.0000 0.46970  0.89230  0.93070  Biso   1.000  O
  O34      1.0000 0.03030  0.10770  0.43070  Biso   1.000  O
  O35      1.0000 0.53030  0.39230  0.56930  Biso   1.000  O
  O36      1.0000 0.96970  0.60770  0.06930  Biso   1.000  O
  O37      1.0000 0.02160  0.10640  0.93660  Biso   1.000  O
  O38      1.0000 0.47840  0.89360  0.43660  Biso   1.000  O
  O39      1.0000 0.97840  0.60640  0.56340  Biso   1.000  O
  O40      1.0000 0.52160  0.39360  0.06340  Biso   1.000  O
  O41      1.0000 0.07400  0.36820  0.82380  Biso   1.000  O
  O42      1.0000 0.42600  0.63180  0.32380  Biso   1.000  O
  O43      1.0000 0.92600  0.86820  0.67620  Biso   1.000  O
  O44      1.0000 0.57400  0.13180  0.17620  Biso   1.000  O
  O45      1.0000 0.25750  0.51170  0.69090  Biso   1.000  O
  O46      1.0000 0.24250  0.48830  0.19090  Biso   1.000  O
  O47      1.0000 0.74250  0.01170  0.80910  Biso   1.000  O
  O48      1.0000 0.75750  0.98830  0.30910  Biso   1.000  O
  H97      1.0000 0.32000  0.53900  0.70200  Biso   1.000  H
  H98      1.0000 0.18000  0.46100  0.20200  Biso   1.000  H
  H99      1.0000 0.68000  0.03900  0.79800  Biso   1.000  H
  H100     1.0000 0.82000  0.96100  0.29800  Biso   1.000  H
  H101     1.0000 0.21800  0.47200  0.70300  Biso   1.000  H
  H102     1.0000 0.28200  0.52800  0.20300  Biso   1.000  H
  H103     1.0000 0.78200  0.97200  0.79700  Biso   1.000  H
  H104     1.0000 0.71800  0.02800  0.29700  Biso   1.000  H
