data_image0
_cell_length_a       18.6983
_cell_length_b       13.7126
_cell_length_c       16.305
_cell_angle_alpha    90
_cell_angle_beta     90
_cell_angle_gamma    90

_symmetry_space_group_name_H-M    "P 1"
_symmetry_int_tables_number       1

loop_
  _symmetry_equiv_pos_as_xyz
  'x, y, z'

loop_
  _atom_site_label
  _atom_site_occupancy
  _atom_site_fract_x
  _atom_site_fract_y
  _atom_site_fract_z
  _atom_site_thermal_displace_type
  _atom_site_B_iso_or_equiv
  _atom_site_type_symbol
  Cu1      1.0000 0.03279  0.66718  0.21533  Biso   1.000  Cu
  Cu2      1.0000 0.96721  0.33282  0.71533  Biso   1.000  Cu
  Cu3      1.0000 0.53279  0.83282  0.21533  Biso   1.000  Cu
  Cu4      1.0000 0.46721  0.16718  0.71533  Biso   1.000  Cu
  Cu5      1.0000 0.02549  0.32599  0.20872  Biso   1.000  Cu
  Cu6      1.0000 0.97451  0.67401  0.70872  Biso   1.000  Cu
  Cu7      1.0000 0.52549  0.17401  0.20872  Biso   1.000  Cu
  Cu8      1.0000 0.47451  0.82599  0.70872  Biso   1.000  Cu
  S1       1.0000 0.91616  0.50017  0.19596  Biso   1.000  S
  S2       1.0000 0.08384  0.49983  0.69596  Biso   1.000  S
  S3       1.0000 0.41616  0.99983  0.19596  Biso   1.000  S
  S4       1.0000 0.58384  0.00017  0.69596  Biso   1.000  S
  S5       1.0000 0.14125  0.49468  0.19371  Biso   1.000  S
  S6       1.0000 0.85875  0.50532  0.69371  Biso   1.000  S
  S7       1.0000 0.64125  0.00532  0.19371  Biso   1.000  S
  S8       1.0000 0.35875  0.99468  0.69371  Biso   1.000  S
  O1       1.0000 0.90010  0.09850  0.39610  Biso   1.000  O
  O2       1.0000 0.09990  0.90150  0.89610  Biso   1.000  O
  O3       1.0000 0.40010  0.40150  0.39610  Biso   1.000  O
  O4       1.0000 0.59990  0.59850  0.89610  Biso   1.000  O
  O5       1.0000 0.60580  0.39030  0.52940  Biso   1.000  O
  O6       1.0000 0.39420  0.60970  0.02940  Biso   1.000  O
  O7       1.0000 0.10580  0.10970  0.52940  Biso   1.000  O
  O8       1.0000 0.89420  0.89030  0.02940  Biso   1.000  O
  O9       1.0000 0.15720  0.11260  0.04050  Biso   1.000  O
  O10      1.0000 0.84280  0.88740  0.54050  Biso   1.000  O
  O11      1.0000 0.65720  0.38740  0.04050  Biso   1.000  O
  O12      1.0000 0.34280  0.61260  0.54050  Biso   1.000  O
  O13      1.0000 0.34560  0.39050  0.88360  Biso   1.000  O
  O14      1.0000 0.65440  0.60950  0.38360  Biso   1.000  O
  O15      1.0000 0.84560  0.10950  0.88360  Biso   1.000  O
  O16      1.0000 0.15440  0.89050  0.38360  Biso   1.000  O
  O17      1.0000 0.96085  0.56800  0.24410  Biso   1.000  O
  O18      1.0000 0.03915  0.43200  0.74410  Biso   1.000  O
  O19      1.0000 0.46085  0.93200  0.24410  Biso   1.000  O
  O20      1.0000 0.53915  0.06800  0.74410  Biso   1.000  O
  O21      1.0000 0.96170  0.42410  0.15790  Biso   1.000  O
  O22      1.0000 0.03830  0.57590  0.65790  Biso   1.000  O
  O23      1.0000 0.46170  0.07590  0.15790  Biso   1.000  O
  O24      1.0000 0.53830  0.92410  0.65790  Biso   1.000  O
  O25      1.0000 0.87860  0.55190  0.13110  Biso   1.000  O
  O26      1.0000 0.12140  0.44810  0.63110  Biso   1.000  O
  O27      1.0000 0.37860  0.94810  0.13110  Biso   1.000  O
  O28      1.0000 0.62140  0.05190  0.63110  Biso   1.000  O
  O29      1.0000 0.86590  0.45340  0.25150  Biso   1.000  O
  O30      1.0000 0.13410  0.54660  0.75150  Biso   1.000  O
  O31      1.0000 0.36590  0.04660  0.25150  Biso   1.000  O
  O32      1.0000 0.63410  0.95340  0.75150  Biso   1.000  O
  O33      1.0000 0.09500  0.57260  0.15860  Biso   1.000  O
  O34      1.0000 0.90500  0.42740  0.65860  Biso   1.000  O
  O35      1.0000 0.59500  0.92740  0.15860  Biso   1.000  O
  O36      1.0000 0.40500  0.07260  0.65860  Biso   1.000  O
  O37      1.0000 0.09749  0.42470  0.24070  Biso   1.000  O
  O38      1.0000 0.90251  0.57530  0.74070  Biso   1.000  O
  O39      1.0000 0.59749  0.07530  0.24070  Biso   1.000  O
  O40      1.0000 0.40251  0.92470  0.74070  Biso   1.000  O
  O41      1.0000 0.17750  0.44490  0.12570  Biso   1.000  O
  O42      1.0000 0.82250  0.55510  0.62570  Biso   1.000  O
  O43      1.0000 0.67750  0.05510  0.12570  Biso   1.000  O
  O44      1.0000 0.32250  0.94490  0.62570  Biso   1.000  O
  O45      1.0000 0.19330  0.53870  0.25000  Biso   1.000  O
  O46      1.0000 0.80670  0.46130  0.75000  Biso   1.000  O
  O47      1.0000 0.69330  0.96130  0.25000  Biso   1.000  O
  O48      1.0000 0.30670  0.03870  0.75000  Biso   1.000  O
  O49      1.0000 0.09040  0.30950  0.05610  Biso   1.000  O
  O50      1.0000 0.90960  0.69050  0.55610  Biso   1.000  O
  O51      1.0000 0.59040  0.19050  0.05610  Biso   1.000  O
  O52      1.0000 0.40960  0.80950  0.55610  Biso   1.000  O
  O53      1.0000 0.09010  0.65310  0.33790  Biso   1.000  O
  O54      1.0000 0.90990  0.34690  0.83790  Biso   1.000  O
  O55      1.0000 0.59010  0.84690  0.33790  Biso   1.000  O
  O56      1.0000 0.40990  0.15310  0.83790  Biso   1.000  O
  O57      1.0000 0.97130  0.33370  0.33760  Biso   1.000  O
  O58      1.0000 0.02870  0.66630  0.83760  Biso   1.000  O
  O59      1.0000 0.47130  0.16630  0.33760  Biso   1.000  O
  O60      1.0000 0.52870  0.83370  0.83760  Biso   1.000  O
  O61      1.0000 0.97420  0.39420  0.98290  Biso   1.000  O
  O62      1.0000 0.02580  0.60580  0.48290  Biso   1.000  O
  O63      1.0000 0.47420  0.10580  0.98290  Biso   1.000  O
  O64      1.0000 0.52580  0.89420  0.48290  Biso   1.000  O
  O65      1.0000 0.61080  0.05200  0.42080  Biso   1.000  O
  O66      1.0000 0.38920  0.94800  0.92080  Biso   1.000  O
  O67      1.0000 0.11080  0.44800  0.42080  Biso   1.000  O
  O68      1.0000 0.88920  0.55200  0.92080  Biso   1.000  O
  O69      1.0000 0.90470  0.44790  0.47240  Biso   1.000  O
  O70      1.0000 0.09530  0.55210  0.97240  Biso   1.000  O
  O71      1.0000 0.40470  0.05210  0.47240  Biso   1.000  O
  O72      1.0000 0.59530  0.94790  0.97240  Biso   1.000  O
  N1       1.0000 0.96570  0.76870  0.25680  Biso   1.000  N
  N2       1.0000 0.03430  0.23130  0.75680  Biso   1.000  N
  N3       1.0000 0.46570  0.73130  0.25680  Biso   1.000  N
  N4       1.0000 0.53430  0.26870  0.75680  Biso   1.000  N
  N5       1.0000 0.82700  0.99240  0.32800  Biso   1.000  N
  N6       1.0000 0.17300  0.00760  0.82800  Biso   1.000  N
  N7       1.0000 0.32700  0.50760  0.32800  Biso   1.000  N
  N8       1.0000 0.67300  0.49240  0.82800  Biso   1.000  N
  H1       1.0000 0.78360  0.98430  0.31180  Biso   1.000  H
  H2       1.0000 0.21640  0.01570  0.81180  Biso   1.000  H
  H3       1.0000 0.28360  0.51570  0.31180  Biso   1.000  H
  H4       1.0000 0.71640  0.48430  0.81180  Biso   1.000  H
  N9       1.0000 0.67920  0.50460  0.58390  Biso   1.000  N
  N10      1.0000 0.32080  0.49540  0.08390  Biso   1.000  N
  N11      1.0000 0.17920  0.99540  0.58390  Biso   1.000  N
  N12      1.0000 0.82080  0.00460  0.08390  Biso   1.000  N
  H5       1.0000 0.72350  0.51610  0.59470  Biso   1.000  H
  H6       1.0000 0.27650  0.48390  0.09470  Biso   1.000  H
  H7       1.0000 0.22350  0.98390  0.59470  Biso   1.000  H
  H8       1.0000 0.77650  0.01610  0.09470  Biso   1.000  H
  N13      1.0000 0.53980  0.72080  0.66570  Biso   1.000  N
  N14      1.0000 0.46020  0.27920  0.16570  Biso   1.000  N
  N15      1.0000 0.03980  0.77920  0.66570  Biso   1.000  N
  N16      1.0000 0.96020  0.22080  0.16570  Biso   1.000  N
  N17      1.0000 0.09590  0.77500  0.17250  Biso   1.000  N
  N18      1.0000 0.90410  0.22500  0.67250  Biso   1.000  N
  N19      1.0000 0.59590  0.72500  0.17250  Biso   1.000  N
  N20      1.0000 0.40410  0.27500  0.67250  Biso   1.000  N
  N21      1.0000 0.23310  0.99560  0.08920  Biso   1.000  N
  N22      1.0000 0.76690  0.00440  0.58920  Biso   1.000  N
  N23      1.0000 0.73310  0.50440  0.08920  Biso   1.000  N
  N24      1.0000 0.26690  0.49560  0.58920  Biso   1.000  N
  H9       1.0000 0.27770  0.98300  0.09640  Biso   1.000  H
  H10      1.0000 0.72230  0.01700  0.59640  Biso   1.000  H
  H11      1.0000 0.77770  0.51700  0.09640  Biso   1.000  H
  H12      1.0000 0.22230  0.48300  0.59640  Biso   1.000  H
  N25      1.0000 0.27020  0.49850  0.82360  Biso   1.000  N
  N26      1.0000 0.72980  0.50150  0.32360  Biso   1.000  N
  N27      1.0000 0.77020  0.00150  0.82360  Biso   1.000  N
  N28      1.0000 0.22980  0.99850  0.32360  Biso   1.000  N
  H13      1.0000 0.22620  0.50810  0.81070  Biso   1.000  H
  H14      1.0000 0.77380  0.49190  0.31070  Biso   1.000  H
  H15      1.0000 0.72620  0.99190  0.81070  Biso   1.000  H
  H16      1.0000 0.27380  0.00810  0.31070  Biso   1.000  H
  N29      1.0000 0.40780  0.72160  0.74830  Biso   1.000  N
  N30      1.0000 0.59220  0.27840  0.24830  Biso   1.000  N
  N31      1.0000 0.90780  0.77840  0.74830  Biso   1.000  N
  N32      1.0000 0.09220  0.22160  0.24830  Biso   1.000  N
  C1       1.0000 0.98570  0.83490  0.31100  Biso   1.000  C
  C2       1.0000 0.01430  0.16510  0.81100  Biso   1.000  C
  C3       1.0000 0.48570  0.66510  0.31100  Biso   1.000  C
  C4       1.0000 0.51430  0.33490  0.81100  Biso   1.000  C
  H17      1.0000 0.03180  0.82970  0.33200  Biso   1.000  H
  H18      1.0000 0.96820  0.17030  0.83200  Biso   1.000  H
  H19      1.0000 0.53180  0.67030  0.33200  Biso   1.000  H
  H20      1.0000 0.46820  0.32970  0.83200  Biso   1.000  H
  C5       1.0000 0.94470  0.91000  0.33870  Biso   1.000  C
  C6       1.0000 0.05530  0.09000  0.83870  Biso   1.000  C
  C7       1.0000 0.44470  0.59000  0.33870  Biso   1.000  C
  C8       1.0000 0.55530  0.41000  0.83870  Biso   1.000  C
  H21      1.0000 0.96170  0.95280  0.37840  Biso   1.000  H
  H22      1.0000 0.03830  0.04720  0.87840  Biso   1.000  H
  H23      1.0000 0.46170  0.54720  0.37840  Biso   1.000  H
  H24      1.0000 0.53830  0.45280  0.87840  Biso   1.000  H
  C9       1.0000 0.87570  0.92110  0.30540  Biso   1.000  C
  C10      1.0000 0.12430  0.07890  0.80540  Biso   1.000  C
  C11      1.0000 0.37570  0.57890  0.30540  Biso   1.000  C
  C12      1.0000 0.62430  0.42110  0.80540  Biso   1.000  C
  C13      1.0000 0.85410  0.85280  0.24700  Biso   1.000  C
  C14      1.0000 0.14590  0.14720  0.74700  Biso   1.000  C
  C15      1.0000 0.35410  0.64720  0.24700  Biso   1.000  C
  C16      1.0000 0.64590  0.35280  0.74700  Biso   1.000  C
  H25      1.0000 0.80910  0.85720  0.22300  Biso   1.000  H
  H26      1.0000 0.19090  0.14280  0.72300  Biso   1.000  H
  H27      1.0000 0.30910  0.64280  0.22300  Biso   1.000  H
  H28      1.0000 0.69090  0.35720  0.72300  Biso   1.000  H
  C17      1.0000 0.90030  0.77850  0.22500  Biso   1.000  C
  C18      1.0000 0.09970  0.22150  0.72500  Biso   1.000  C
  C19      1.0000 0.40030  0.72150  0.22500  Biso   1.000  C
  C20      1.0000 0.59970  0.27850  0.72500  Biso   1.000  C
  H29      1.0000 0.88510  0.73330  0.18630  Biso   1.000  H
  H30      1.0000 0.11490  0.26670  0.68630  Biso   1.000  H
  H31      1.0000 0.38510  0.76670  0.18630  Biso   1.000  H
  H32      1.0000 0.61490  0.23330  0.68630  Biso   1.000  H
  C21      1.0000 0.84060  0.07420  0.37310  Biso   1.000  C
  C22      1.0000 0.15940  0.92580  0.87310  Biso   1.000  C
  C23      1.0000 0.34060  0.42580  0.37310  Biso   1.000  C
  C24      1.0000 0.65940  0.57420  0.87310  Biso   1.000  C
  C25      1.0000 0.77390  0.13220  0.39350  Biso   1.000  C
  C26      1.0000 0.22610  0.86780  0.89350  Biso   1.000  C
  C27      1.0000 0.27390  0.36780  0.39350  Biso   1.000  C
  C28      1.0000 0.72610  0.63220  0.89350  Biso   1.000  C
  H33      1.0000 0.74340  0.09250  0.42800  Biso   1.000  H
  H34      1.0000 0.25660  0.90750  0.92800  Biso   1.000  H
  H35      1.0000 0.24340  0.40750  0.42800  Biso   1.000  H
  H36      1.0000 0.75660  0.59250  0.92800  Biso   1.000  H
  H37      1.0000 0.74820  0.14490  0.34300  Biso   1.000  H
  H38      1.0000 0.25180  0.85510  0.84300  Biso   1.000  H
  H39      1.0000 0.24820  0.35510  0.34300  Biso   1.000  H
  H40      1.0000 0.75180  0.64490  0.84300  Biso   1.000  H
  C29      1.0000 0.78710  0.22870  0.43650  Biso   1.000  C
  C30      1.0000 0.21290  0.77130  0.93650  Biso   1.000  C
  C31      1.0000 0.28710  0.27130  0.43650  Biso   1.000  C
  C32      1.0000 0.71290  0.72870  0.93650  Biso   1.000  C
  H41      1.0000 0.82180  0.21920  0.47990  Biso   1.000  H
  H42      1.0000 0.17820  0.78080  0.97990  Biso   1.000  H
  H43      1.0000 0.32180  0.28080  0.47990  Biso   1.000  H
  H44      1.0000 0.67820  0.71920  0.97990  Biso   1.000  H
  H45      1.0000 0.80710  0.27480  0.39760  Biso   1.000  H
  H46      1.0000 0.19290  0.72520  0.89760  Biso   1.000  H
  H47      1.0000 0.30710  0.22520  0.39760  Biso   1.000  H
  H48      1.0000 0.69290  0.77480  0.89760  Biso   1.000  H
  C33      1.0000 0.71970  0.27090  0.47250  Biso   1.000  C
  C34      1.0000 0.28030  0.72910  0.97250  Biso   1.000  C
  C35      1.0000 0.21970  0.22910  0.47250  Biso   1.000  C
  C36      1.0000 0.78030  0.77090  0.97250  Biso   1.000  C
  H49      1.0000 0.69930  0.22460  0.51100  Biso   1.000  H
  H50      1.0000 0.30070  0.77540  0.01100  Biso   1.000  H
  H51      1.0000 0.19930  0.27540  0.51100  Biso   1.000  H
  H52      1.0000 0.80070  0.72460  0.01100  Biso   1.000  H
  H53      1.0000 0.68510  0.28150  0.42910  Biso   1.000  H
  H54      1.0000 0.31490  0.71850  0.92910  Biso   1.000  H
  H55      1.0000 0.18510  0.21850  0.42910  Biso   1.000  H
  H56      1.0000 0.81490  0.78150  0.92910  Biso   1.000  H
  C37      1.0000 0.73380  0.36660  0.51640  Biso   1.000  C
  C38      1.0000 0.26620  0.63340  0.01640  Biso   1.000  C
  C39      1.0000 0.23380  0.13340  0.51640  Biso   1.000  C
  C40      1.0000 0.76620  0.86660  0.01640  Biso   1.000  C
  H57      1.0000 0.76130  0.40880  0.48060  Biso   1.000  H
  H58      1.0000 0.23870  0.59120  0.98060  Biso   1.000  H
  H59      1.0000 0.26130  0.09120  0.48060  Biso   1.000  H
  H60      1.0000 0.73870  0.90880  0.98060  Biso   1.000  H
  H61      1.0000 0.76250  0.35400  0.56480  Biso   1.000  H
  H62      1.0000 0.23750  0.64600  0.06480  Biso   1.000  H
  H63      1.0000 0.26250  0.14600  0.56480  Biso   1.000  H
  H64      1.0000 0.73750  0.85400  0.06480  Biso   1.000  H
  C41      1.0000 0.66540  0.41950  0.54190  Biso   1.000  C
  C42      1.0000 0.33460  0.58050  0.04190  Biso   1.000  C
  C43      1.0000 0.16540  0.08050  0.54190  Biso   1.000  C
  C44      1.0000 0.83460  0.91950  0.04190  Biso   1.000  C
  C45      1.0000 0.63110  0.57350  0.61070  Biso   1.000  C
  C46      1.0000 0.36890  0.42650  0.11070  Biso   1.000  C
  C47      1.0000 0.13110  0.92650  0.61070  Biso   1.000  C
  C48      1.0000 0.86890  0.07350  0.11070  Biso   1.000  C
  C49      1.0000 0.65460  0.64530  0.66300  Biso   1.000  C
  C50      1.0000 0.34540  0.35470  0.16300  Biso   1.000  C
  C51      1.0000 0.15460  0.85470  0.66300  Biso   1.000  C
  C52      1.0000 0.84540  0.14530  0.16300  Biso   1.000  C
  H65      1.0000 0.70200  0.64530  0.68020  Biso   1.000  H
  H66      1.0000 0.29800  0.35470  0.18020  Biso   1.000  H
  H67      1.0000 0.20200  0.85470  0.68020  Biso   1.000  H
  H68      1.0000 0.79800  0.14530  0.18020  Biso   1.000  H
  C53      1.0000 0.60920  0.71730  0.69030  Biso   1.000  C
  C54      1.0000 0.39080  0.28270  0.19030  Biso   1.000  C
  C55      1.0000 0.10920  0.78270  0.69030  Biso   1.000  C
  C56      1.0000 0.89080  0.21730  0.19030  Biso   1.000  C
  H69      1.0000 0.62630  0.76450  0.72620  Biso   1.000  H
  H70      1.0000 0.37370  0.23550  0.22620  Biso   1.000  H
  H71      1.0000 0.12630  0.73550  0.72620  Biso   1.000  H
  H72      1.0000 0.87370  0.26450  0.22620  Biso   1.000  H
  C57      1.0000 0.51710  0.64980  0.61440  Biso   1.000  C
  C58      1.0000 0.48290  0.35020  0.11440  Biso   1.000  C
  C59      1.0000 0.01710  0.85020  0.61440  Biso   1.000  C
  C60      1.0000 0.98290  0.14980  0.11440  Biso   1.000  C
  H73      1.0000 0.46960  0.65100  0.59740  Biso   1.000  H
  H74      1.0000 0.53040  0.34900  0.09740  Biso   1.000  H
  H75      1.0000 0.96960  0.84900  0.59740  Biso   1.000  H
  H76      1.0000 0.03040  0.15100  0.09740  Biso   1.000  H
  C61      1.0000 0.55960  0.57720  0.58630  Biso   1.000  C
  C62      1.0000 0.44040  0.42280  0.08630  Biso   1.000  C
  C63      1.0000 0.05960  0.92280  0.58630  Biso   1.000  C
  C64      1.0000 0.94040  0.07720  0.08630  Biso   1.000  C
  H77      1.0000 0.54130  0.53000  0.55110  Biso   1.000  H
  H78      1.0000 0.45870  0.47000  0.05110  Biso   1.000  H
  H79      1.0000 0.04130  0.97000  0.55110  Biso   1.000  H
  H80      1.0000 0.95870  0.03000  0.05110  Biso   1.000  H
  C65      1.0000 0.16660  0.77460  0.18670  Biso   1.000  C
  C66      1.0000 0.83340  0.22540  0.68670  Biso   1.000  C
  C67      1.0000 0.66660  0.72540  0.18670  Biso   1.000  C
  C68      1.0000 0.33340  0.27460  0.68670  Biso   1.000  C
  H81      1.0000 0.18580  0.72240  0.21570  Biso   1.000  H
  H82      1.0000 0.81420  0.27760  0.71570  Biso   1.000  H
  H83      1.0000 0.68580  0.77760  0.21570  Biso   1.000  H
  H84      1.0000 0.31420  0.22240  0.71570  Biso   1.000  H
  C69      1.0000 0.21220  0.84680  0.16100  Biso   1.000  C
  C70      1.0000 0.78780  0.15320  0.66100  Biso   1.000  C
  C71      1.0000 0.71220  0.65320  0.16100  Biso   1.000  C
  C72      1.0000 0.28780  0.34680  0.66100  Biso   1.000  C
  H85      1.0000 0.26070  0.84270  0.17310  Biso   1.000  H
  H86      1.0000 0.73930  0.15730  0.67310  Biso   1.000  H
  H87      1.0000 0.76070  0.65730  0.17310  Biso   1.000  H
  H88      1.0000 0.23930  0.34270  0.67310  Biso   1.000  H
  C73      1.0000 0.18610  0.92610  0.11670  Biso   1.000  C
  C74      1.0000 0.81390  0.07390  0.61670  Biso   1.000  C
  C75      1.0000 0.68610  0.57390  0.11670  Biso   1.000  C
  C76      1.0000 0.31390  0.42610  0.61670  Biso   1.000  C
  C77      1.0000 0.11090  0.92690  0.10080  Biso   1.000  C
  C78      1.0000 0.88910  0.07310  0.60080  Biso   1.000  C
  C79      1.0000 0.61090  0.57310  0.10080  Biso   1.000  C
  C80      1.0000 0.38910  0.42690  0.60080  Biso   1.000  C
  H89      1.0000 0.08990  0.97760  0.07150  Biso   1.000  H
  H90      1.0000 0.91010  0.02240  0.57150  Biso   1.000  H
  H91      1.0000 0.58990  0.52240  0.07150  Biso   1.000  H
  H92      1.0000 0.41010  0.47760  0.57150  Biso   1.000  H
  C81      1.0000 0.07060  0.85080  0.12980  Biso   1.000  C
  C82      1.0000 0.92940  0.14920  0.62980  Biso   1.000  C
  C83      1.0000 0.57060  0.64920  0.12980  Biso   1.000  C
  C84      1.0000 0.42940  0.35080  0.62980  Biso   1.000  C
  H93      1.0000 0.02180  0.85210  0.11900  Biso   1.000  H
  H94      1.0000 0.97820  0.14790  0.61900  Biso   1.000  H
  H95      1.0000 0.52180  0.64790  0.11900  Biso   1.000  H
  H96      1.0000 0.47820  0.35210  0.61900  Biso   1.000  H
  C85      1.0000 0.21760  0.08330  0.05120  Biso   1.000  C
  C86      1.0000 0.78240  0.91670  0.55120  Biso   1.000  C
  C87      1.0000 0.71760  0.41670  0.05120  Biso   1.000  C
  C88      1.0000 0.28240  0.58330  0.55120  Biso   1.000  C
  C89      1.0000 0.28350  0.13950  0.02640  Biso   1.000  C
  C90      1.0000 0.71650  0.86050  0.52640  Biso   1.000  C
  C91      1.0000 0.78350  0.36050  0.02640  Biso   1.000  C
  C92      1.0000 0.21650  0.63950  0.52640  Biso   1.000  C
  H97      1.0000 0.30690  0.10480  0.98200  Biso   1.000  H
  H98      1.0000 0.69310  0.89520  0.48200  Biso   1.000  H
  H99      1.0000 0.80690  0.39520  0.98200  Biso   1.000  H
  H100     1.0000 0.19310  0.60480  0.48200  Biso   1.000  H
  H101     1.0000 0.31640  0.14080  0.07240  Biso   1.000  H
  H102     1.0000 0.68360  0.85920  0.57240  Biso   1.000  H
  H103     1.0000 0.81640  0.35920  0.07240  Biso   1.000  H
  H104     1.0000 0.18360  0.64080  0.57240  Biso   1.000  H
  C93      1.0000 0.26940  0.24430  0.99880  Biso   1.000  C
  C94      1.0000 0.73060  0.75570  0.49880  Biso   1.000  C
  C95      1.0000 0.76940  0.25570  0.99880  Biso   1.000  C
  C96      1.0000 0.23060  0.74430  0.49880  Biso   1.000  C
  H105     1.0000 0.23840  0.27570  0.03860  Biso   1.000  H
  H106     1.0000 0.76160  0.72430  0.53860  Biso   1.000  H
  H107     1.0000 0.73840  0.22430  0.03860  Biso   1.000  H
  H108     1.0000 0.26160  0.77570  0.53860  Biso   1.000  H
  H109     1.0000 0.31430  0.27960  0.99800  Biso   1.000  H
  H110     1.0000 0.68570  0.72040  0.49800  Biso   1.000  H
  H111     1.0000 0.81430  0.22040  0.99800  Biso   1.000  H
  H112     1.0000 0.18570  0.77960  0.49800  Biso   1.000  H
  C97      1.0000 0.23510  0.25110  0.91500  Biso   1.000  C
  C98      1.0000 0.76490  0.74890  0.41500  Biso   1.000  C
  C99      1.0000 0.73510  0.24890  0.91500  Biso   1.000  C
  C100     1.0000 0.26490  0.75110  0.41500  Biso   1.000  C
  H113     1.0000 0.19060  0.21450  0.91560  Biso   1.000  H
  H114     1.0000 0.80940  0.78550  0.41560  Biso   1.000  H
  H115     1.0000 0.69060  0.28550  0.91560  Biso   1.000  H
  H116     1.0000 0.30940  0.71450  0.41560  Biso   1.000  H
  H117     1.0000 0.26650  0.22070  0.87510  Biso   1.000  H
  H118     1.0000 0.73350  0.77930  0.37510  Biso   1.000  H
  H119     1.0000 0.76650  0.27930  0.87510  Biso   1.000  H
  H120     1.0000 0.23350  0.72070  0.37510  Biso   1.000  H
  C101     1.0000 0.21930  0.35540  0.88740  Biso   1.000  C
  C102     1.0000 0.78070  0.64460  0.38740  Biso   1.000  C
  C103     1.0000 0.71930  0.14460  0.88740  Biso   1.000  C
  C104     1.0000 0.28070  0.85540  0.38740  Biso   1.000  C
  H121     1.0000 0.18820  0.35320  0.83990  Biso   1.000  H
  H122     1.0000 0.81180  0.64680  0.33990  Biso   1.000  H
  H123     1.0000 0.68820  0.14680  0.83990  Biso   1.000  H
  H124     1.0000 0.31180  0.85320  0.33990  Biso   1.000  H
  H125     1.0000 0.19370  0.38870  0.93090  Biso   1.000  H
  H126     1.0000 0.80630  0.61130  0.43090  Biso   1.000  H
  H127     1.0000 0.69370  0.11130  0.93090  Biso   1.000  H
  H128     1.0000 0.30630  0.88870  0.43090  Biso   1.000  H
  C105     1.0000 0.28500  0.41410  0.86600  Biso   1.000  C
  C106     1.0000 0.71500  0.58590  0.36600  Biso   1.000  C
  C107     1.0000 0.78500  0.08590  0.86600  Biso   1.000  C
  C108     1.0000 0.21500  0.91410  0.36600  Biso   1.000  C
  C109     1.0000 0.31860  0.57010  0.79930  Biso   1.000  C
  C110     1.0000 0.68140  0.42990  0.29930  Biso   1.000  C
  C111     1.0000 0.81860  0.92990  0.79930  Biso   1.000  C
  C112     1.0000 0.18140  0.07010  0.29930  Biso   1.000  C
  C113     1.0000 0.38950  0.57160  0.82120  Biso   1.000  C
  C114     1.0000 0.61050  0.42840  0.32120  Biso   1.000  C
  C115     1.0000 0.88950  0.92840  0.82120  Biso   1.000  C
  C116     1.0000 0.11050  0.07160  0.32120  Biso   1.000  C
  H129     1.0000 0.40860  0.52190  0.85330  Biso   1.000  H
  H130     1.0000 0.59140  0.47810  0.35330  Biso   1.000  H
  H131     1.0000 0.90860  0.97810  0.85330  Biso   1.000  H
  H132     1.0000 0.09140  0.02190  0.35330  Biso   1.000  H
  C117     1.0000 0.43220  0.64760  0.79520  Biso   1.000  C
  C118     1.0000 0.56780  0.35240  0.29520  Biso   1.000  C
  C119     1.0000 0.93220  0.85240  0.79520  Biso   1.000  C
  C120     1.0000 0.06780  0.14760  0.29520  Biso   1.000  C
  H133     1.0000 0.48000  0.64790  0.81070  Biso   1.000  H
  H134     1.0000 0.52000  0.35210  0.31070  Biso   1.000  H
  H135     1.0000 0.98000  0.85210  0.81070  Biso   1.000  H
  H136     1.0000 0.02000  0.14790  0.31070  Biso   1.000  H
  C121     1.0000 0.33740  0.71990  0.72830  Biso   1.000  C
  C122     1.0000 0.66260  0.28010  0.22830  Biso   1.000  C
  C123     1.0000 0.83740  0.78010  0.72830  Biso   1.000  C
  C124     1.0000 0.16260  0.21990  0.22830  Biso   1.000  C
  H137     1.0000 0.31900  0.77080  0.69710  Biso   1.000  H
  H138     1.0000 0.68100  0.22920  0.19710  Biso   1.000  H
  H139     1.0000 0.81900  0.72920  0.69710  Biso   1.000  H
  H140     1.0000 0.18100  0.27080  0.19710  Biso   1.000  H
  C125     1.0000 0.29250  0.64730  0.75190  Biso   1.000  C
  C126     1.0000 0.70750  0.35270  0.25190  Biso   1.000  C
  C127     1.0000 0.79250  0.85270  0.75190  Biso   1.000  C
  C128     1.0000 0.20750  0.14730  0.25190  Biso   1.000  C
  H141     1.0000 0.24460  0.64880  0.73650  Biso   1.000  H
  H142     1.0000 0.75540  0.35120  0.23650  Biso   1.000  H
  H143     1.0000 0.74460  0.85120  0.73650  Biso   1.000  H
  H144     1.0000 0.25540  0.14880  0.23650  Biso   1.000  H
