data_image0
_cell_length_a       4.806
_cell_length_b       11.806
_cell_length_c       9.478
_cell_angle_alpha    90
_cell_angle_beta     103.682
_cell_angle_gamma    90

_symmetry_space_group_name_H-M    "P 1"
_symmetry_int_tables_number       1

loop_
  _symmetry_equiv_pos_as_xyz
  'x, y, z'

loop_
  _atom_site_label
  _atom_site_occupancy
  _atom_site_fract_x
  _atom_site_fract_y
  _atom_site_fract_z
  _atom_site_thermal_displace_type
  _atom_site_B_iso_or_equiv
  _atom_site_type_symbol
  Cu1      1.0000 0.00000  0.50000  0.50000  Biso   1.000  Cu
  Cu2      1.0000 0.00000  0.00000  0.00000  Biso   1.000  Cu
  C1       1.0000 0.32820  0.38723  0.76794  Biso   1.000  C
  C2       1.0000 0.67180  0.88723  0.73206  Biso   1.000  C
  C3       1.0000 0.67180  0.61277  0.23206  Biso   1.000  C
  C4       1.0000 0.32820  0.11277  0.26794  Biso   1.000  C
  H1       1.0000 0.18830  0.33230  0.76490  Biso   1.000  H
  H2       1.0000 0.81170  0.83230  0.73510  Biso   1.000  H
  H3       1.0000 0.81170  0.66770  0.23510  Biso   1.000  H
  H4       1.0000 0.18830  0.16770  0.26490  Biso   1.000  H
  C5       1.0000 0.67380  0.32497  0.99598  Biso   1.000  C
  C6       1.0000 0.32620  0.82497  0.50402  Biso   1.000  C
  C7       1.0000 0.32620  0.67503  0.00402  Biso   1.000  C
  C8       1.0000 0.67380  0.17503  0.49598  Biso   1.000  C
  H5       1.0000 0.51500  0.30290  0.03690  Biso   1.000  H
  H6       1.0000 0.48500  0.80290  0.46310  Biso   1.000  H
  H7       1.0000 0.48500  0.69710  0.96310  Biso   1.000  H
  H8       1.0000 0.51500  0.19710  0.53690  Biso   1.000  H
  H9       1.0000 0.80920  0.36710  0.06940  Biso   1.000  H
  H10      1.0000 0.19080  0.86710  0.43060  Biso   1.000  H
  H11      1.0000 0.19080  0.63290  0.93060  Biso   1.000  H
  H12      1.0000 0.80920  0.13290  0.56940  Biso   1.000  H
  C9       1.0000 0.81970  0.21857  0.95553  Biso   1.000  C
  C10      1.0000 0.18030  0.71857  0.54447  Biso   1.000  C
  C11      1.0000 0.18030  0.78143  0.04447  Biso   1.000  C
  C12      1.0000 0.81970  0.28143  0.45553  Biso   1.000  C
  N1       1.0000 0.32170  0.46798  0.67189  Biso   1.000  N
  N2       1.0000 0.67830  0.96798  0.82811  Biso   1.000  N
  N3       1.0000 0.67830  0.53202  0.32811  Biso   1.000  N
  N4       1.0000 0.32170  0.03202  0.17189  Biso   1.000  N
  N5       1.0000 0.56800  0.52865  0.71688  Biso   1.000  N
  N6       1.0000 0.43200  0.02865  0.78312  Biso   1.000  N
  N7       1.0000 0.43200  0.47135  0.28312  Biso   1.000  N
  N8       1.0000 0.56800  0.97135  0.21688  Biso   1.000  N
  N9       1.0000 0.71750  0.48677  0.83570  Biso   1.000  N
  N10      1.0000 0.28250  0.98677  0.66430  Biso   1.000  N
  N11      1.0000 0.28250  0.51323  0.16430  Biso   1.000  N
  N12      1.0000 0.71750  0.01323  0.33570  Biso   1.000  N
  N13      1.0000 0.56810  0.39762  0.86979  Biso   1.000  N
  N14      1.0000 0.43190  0.89762  0.63021  Biso   1.000  N
  N15      1.0000 0.43190  0.60238  0.13021  Biso   1.000  N
  N16      1.0000 0.56810  0.10238  0.36979  Biso   1.000  N
  O1       1.0000 0.82160  0.13765  0.04428  Biso   1.000  O
  O2       1.0000 0.17840  0.63765  0.45572  Biso   1.000  O
  O3       1.0000 0.17840  0.86235  0.95572  Biso   1.000  O
  O4       1.0000 0.82160  0.36235  0.54428  Biso   1.000  O
  O5       1.0000 0.92150  0.21763  0.85001  Biso   1.000  O
  O6       1.0000 0.07850  0.71763  0.64999  Biso   1.000  O
  O7       1.0000 0.07850  0.78237  0.14999  Biso   1.000  O
  O8       1.0000 0.92150  0.28237  0.35001  Biso   1.000  O
