data_image0
_cell_length_a       15.913
_cell_length_b       6.016
_cell_length_c       18.043
_cell_angle_alpha    90
_cell_angle_beta     90.518
_cell_angle_gamma    90

_symmetry_space_group_name_H-M    "P 1"
_symmetry_int_tables_number       1

loop_
  _symmetry_equiv_pos_as_xyz
  'x, y, z'

loop_
  _atom_site_label
  _atom_site_occupancy
  _atom_site_fract_x
  _atom_site_fract_y
  _atom_site_fract_z
  _atom_site_thermal_displace_type
  _atom_site_B_iso_or_equiv
  _atom_site_type_symbol
  Cu1      1.0000 0.21933  0.88705  0.43557  Biso   1.000  Cu
  Cu2      1.0000 0.71933  0.38705  0.43557  Biso   1.000  Cu
  Cu3      1.0000 0.78067  0.88705  0.06443  Biso   1.000  Cu
  Cu4      1.0000 0.28067  0.38705  0.06443  Biso   1.000  Cu
  Cu5      1.0000 0.78067  0.11295  0.56443  Biso   1.000  Cu
  Cu6      1.0000 0.28067  0.61295  0.56443  Biso   1.000  Cu
  Cu7      1.0000 0.21933  0.11295  0.93557  Biso   1.000  Cu
  Cu8      1.0000 0.71933  0.61295  0.93557  Biso   1.000  Cu
  Cu9      1.0000 0.00000  0.50000  0.50000  Biso   1.000  Cu
  Cu10     1.0000 0.50000  0.00000  0.50000  Biso   1.000  Cu
  Cu11     1.0000 0.00000  0.50000  0.00000  Biso   1.000  Cu
  Cu12     1.0000 0.50000  0.00000  0.00000  Biso   1.000  Cu
  P1       1.0000 0.17407  0.39623  0.42391  Biso   1.000  P
  P2       1.0000 0.67407  0.89623  0.42391  Biso   1.000  P
  P3       1.0000 0.82593  0.39623  0.07609  Biso   1.000  P
  P4       1.0000 0.32593  0.89623  0.07609  Biso   1.000  P
  P5       1.0000 0.82593  0.60377  0.57609  Biso   1.000  P
  P6       1.0000 0.32593  0.10377  0.57609  Biso   1.000  P
  P7       1.0000 0.17407  0.60377  0.92391  Biso   1.000  P
  P8       1.0000 0.67407  0.10377  0.92391  Biso   1.000  P
  N1       1.0000 0.17940  0.76600  0.33977  Biso   1.000  N
  N2       1.0000 0.67940  0.26600  0.33977  Biso   1.000  N
  N3       1.0000 0.82060  0.76600  0.16023  Biso   1.000  N
  N4       1.0000 0.32060  0.26600  0.16023  Biso   1.000  N
  N5       1.0000 0.82060  0.23400  0.66023  Biso   1.000  N
  N6       1.0000 0.32060  0.73400  0.66023  Biso   1.000  N
  N7       1.0000 0.17940  0.23400  0.83977  Biso   1.000  N
  N8       1.0000 0.67940  0.73400  0.83977  Biso   1.000  N
  C1       1.0000 0.15430  0.55250  0.33870  Biso   1.000  C
  C2       1.0000 0.65430  0.05250  0.33870  Biso   1.000  C
  C3       1.0000 0.84570  0.55250  0.16130  Biso   1.000  C
  C4       1.0000 0.34570  0.05250  0.16130  Biso   1.000  C
  C5       1.0000 0.84570  0.44750  0.66130  Biso   1.000  C
  C6       1.0000 0.34570  0.94750  0.66130  Biso   1.000  C
  C7       1.0000 0.15430  0.44750  0.83870  Biso   1.000  C
  C8       1.0000 0.65430  0.94750  0.83870  Biso   1.000  C
  C9       1.0000 0.12040  0.46010  0.27540  Biso   1.000  C
  C10      1.0000 0.62040  0.96010  0.27540  Biso   1.000  C
  C11      1.0000 0.87960  0.46010  0.22460  Biso   1.000  C
  C12      1.0000 0.37960  0.96010  0.22460  Biso   1.000  C
  C13      1.0000 0.87960  0.53990  0.72460  Biso   1.000  C
  C14      1.0000 0.37960  0.03990  0.72460  Biso   1.000  C
  C15      1.0000 0.12040  0.53990  0.77540  Biso   1.000  C
  C16      1.0000 0.62040  0.03990  0.77540  Biso   1.000  C
  H1       1.0000 0.10290  0.31270  0.27560  Biso   1.000  H
  H2       1.0000 0.60290  0.81270  0.27560  Biso   1.000  H
  H3       1.0000 0.89710  0.31270  0.22440  Biso   1.000  H
  H4       1.0000 0.39710  0.81270  0.22440  Biso   1.000  H
  H5       1.0000 0.89710  0.68730  0.72440  Biso   1.000  H
  H6       1.0000 0.39710  0.18730  0.72440  Biso   1.000  H
  H7       1.0000 0.10290  0.68730  0.77560  Biso   1.000  H
  H8       1.0000 0.60290  0.18730  0.77560  Biso   1.000  H
  C17      1.0000 0.11230  0.58550  0.21140  Biso   1.000  C
  C18      1.0000 0.61230  0.08550  0.21140  Biso   1.000  C
  C19      1.0000 0.88770  0.58550  0.28860  Biso   1.000  C
  C20      1.0000 0.38770  0.08550  0.28860  Biso   1.000  C
  C21      1.0000 0.88770  0.41450  0.78860  Biso   1.000  C
  C22      1.0000 0.38770  0.91450  0.78860  Biso   1.000  C
  C23      1.0000 0.11230  0.41450  0.71140  Biso   1.000  C
  C24      1.0000 0.61230  0.91450  0.71140  Biso   1.000  C
  C25      1.0000 0.13650  0.80530  0.21400  Biso   1.000  C
  C26      1.0000 0.63650  0.30530  0.21400  Biso   1.000  C
  C27      1.0000 0.86350  0.80530  0.28600  Biso   1.000  C
  C28      1.0000 0.36350  0.30530  0.28600  Biso   1.000  C
  C29      1.0000 0.86350  0.19470  0.78600  Biso   1.000  C
  C30      1.0000 0.36350  0.69470  0.78600  Biso   1.000  C
  C31      1.0000 0.13650  0.19470  0.71400  Biso   1.000  C
  C32      1.0000 0.63650  0.69470  0.71400  Biso   1.000  C
  H9       1.0000 0.12950  0.89630  0.17270  Biso   1.000  H
  H10      1.0000 0.62950  0.39630  0.17270  Biso   1.000  H
  H11      1.0000 0.87050  0.89630  0.32730  Biso   1.000  H
  H12      1.0000 0.37050  0.39630  0.32730  Biso   1.000  H
  H13      1.0000 0.87050  0.10370  0.82730  Biso   1.000  H
  H14      1.0000 0.37050  0.60370  0.82730  Biso   1.000  H
  H15      1.0000 0.12950  0.10370  0.67270  Biso   1.000  H
  H16      1.0000 0.62950  0.60370  0.67270  Biso   1.000  H
  C33      1.0000 0.17110  0.88800  0.27830  Biso   1.000  C
  C34      1.0000 0.67110  0.38800  0.27830  Biso   1.000  C
  C35      1.0000 0.82890  0.88800  0.22170  Biso   1.000  C
  C36      1.0000 0.32890  0.38800  0.22170  Biso   1.000  C
  C37      1.0000 0.82890  0.11200  0.72170  Biso   1.000  C
  C38      1.0000 0.32890  0.61200  0.72170  Biso   1.000  C
  C39      1.0000 0.17110  0.11200  0.77830  Biso   1.000  C
  C40      1.0000 0.67110  0.61200  0.77830  Biso   1.000  C
  H17      1.0000 0.18950  0.03470  0.27910  Biso   1.000  H
  H18      1.0000 0.68950  0.53470  0.27910  Biso   1.000  H
  H19      1.0000 0.81050  0.03470  0.22090  Biso   1.000  H
  H20      1.0000 0.31050  0.53470  0.22090  Biso   1.000  H
  H21      1.0000 0.81050  0.96530  0.72090  Biso   1.000  H
  H22      1.0000 0.31050  0.46530  0.72090  Biso   1.000  H
  H23      1.0000 0.18950  0.96530  0.77910  Biso   1.000  H
  H24      1.0000 0.68950  0.46530  0.77910  Biso   1.000  H
  C41      1.0000 0.08520  0.47890  0.13880  Biso   1.000  C
  C42      1.0000 0.58520  0.97890  0.13880  Biso   1.000  C
  C43      1.0000 0.91480  0.47890  0.36120  Biso   1.000  C
  C44      1.0000 0.41480  0.97890  0.36120  Biso   1.000  C
  C45      1.0000 0.91480  0.52110  0.86120  Biso   1.000  C
  C46      1.0000 0.41480  0.02110  0.86120  Biso   1.000  C
  C47      1.0000 0.08520  0.52110  0.63880  Biso   1.000  C
  C48      1.0000 0.58520  0.02110  0.63880  Biso   1.000  C
  O1       1.0000 0.22555  0.56980  0.46793  Biso   1.000  O
  O2       1.0000 0.72555  0.06980  0.46793  Biso   1.000  O
  O3       1.0000 0.77445  0.56980  0.03207  Biso   1.000  O
  O4       1.0000 0.27445  0.06980  0.03207  Biso   1.000  O
  O5       1.0000 0.77445  0.43020  0.53207  Biso   1.000  O
  O6       1.0000 0.27445  0.93020  0.53207  Biso   1.000  O
  O7       1.0000 0.22555  0.43020  0.96793  Biso   1.000  O
  O8       1.0000 0.72555  0.93020  0.96793  Biso   1.000  O
  O9       1.0000 0.09196  0.33570  0.45825  Biso   1.000  O
  O10      1.0000 0.59196  0.83570  0.45825  Biso   1.000  O
  O11      1.0000 0.90804  0.33570  0.04175  Biso   1.000  O
  O12      1.0000 0.40804  0.83570  0.04175  Biso   1.000  O
  O13      1.0000 0.90804  0.66430  0.54175  Biso   1.000  O
  O14      1.0000 0.40804  0.16430  0.54175  Biso   1.000  O
  O15      1.0000 0.09196  0.66430  0.95825  Biso   1.000  O
  O16      1.0000 0.59196  0.16430  0.95825  Biso   1.000  O
  O17      1.0000 0.22481  0.19390  0.40405  Biso   1.000  O
  O18      1.0000 0.72481  0.69390  0.40405  Biso   1.000  O
  O19      1.0000 0.77519  0.19390  0.09595  Biso   1.000  O
  O20      1.0000 0.27519  0.69390  0.09595  Biso   1.000  O
  O21      1.0000 0.77519  0.80610  0.59595  Biso   1.000  O
  O22      1.0000 0.27519  0.30610  0.59595  Biso   1.000  O
  O23      1.0000 0.22481  0.80610  0.90405  Biso   1.000  O
  O24      1.0000 0.72481  0.30610  0.90405  Biso   1.000  O
  O25      1.0000 0.03840  0.59210  0.09838  Biso   1.000  O
  O26      1.0000 0.53840  0.09210  0.09838  Biso   1.000  O
  O27      1.0000 0.96160  0.59210  0.40162  Biso   1.000  O
  O28      1.0000 0.46160  0.09210  0.40162  Biso   1.000  O
  O29      1.0000 0.96160  0.40790  0.90162  Biso   1.000  O
  O30      1.0000 0.46160  0.90790  0.90162  Biso   1.000  O
  O31      1.0000 0.03840  0.40790  0.59838  Biso   1.000  O
  O32      1.0000 0.53840  0.90790  0.59838  Biso   1.000  O
  O33      1.0000 0.11590  0.29670  0.12590  Biso   1.000  O
  O34      1.0000 0.61590  0.79670  0.12590  Biso   1.000  O
  O35      1.0000 0.88410  0.29670  0.37410  Biso   1.000  O
  O36      1.0000 0.38410  0.79670  0.37410  Biso   1.000  O
  O37      1.0000 0.88410  0.70330  0.87410  Biso   1.000  O
  O38      1.0000 0.38410  0.20330  0.87410  Biso   1.000  O
  O39      1.0000 0.11590  0.70330  0.62590  Biso   1.000  O
  O40      1.0000 0.61590  0.20330  0.62590  Biso   1.000  O
  O41      1.0000 0.91180  0.11980  0.50806  Biso   1.000  O
  O42      1.0000 0.41180  0.61980  0.50806  Biso   1.000  O
  O43      1.0000 0.08820  0.11980  0.99194  Biso   1.000  O
  O44      1.0000 0.58820  0.61980  0.99194  Biso   1.000  O
  O45      1.0000 0.08820  0.88020  0.49194  Biso   1.000  O
  O46      1.0000 0.58820  0.38020  0.49194  Biso   1.000  O
  O47      1.0000 0.91180  0.88020  0.00806  Biso   1.000  O
  O48      1.0000 0.41180  0.38020  0.00806  Biso   1.000  O
  H25      1.0000 0.90450  0.17270  0.46180  Biso   1.000  H
  H26      1.0000 0.40450  0.67270  0.46180  Biso   1.000  H
  H27      1.0000 0.09550  0.17270  0.03820  Biso   1.000  H
  H28      1.0000 0.59550  0.67270  0.03820  Biso   1.000  H
  H29      1.0000 0.09550  0.82730  0.53820  Biso   1.000  H
  H30      1.0000 0.59550  0.32730  0.53820  Biso   1.000  H
  H31      1.0000 0.90450  0.82730  0.96180  Biso   1.000  H
  H32      1.0000 0.40450  0.32730  0.96180  Biso   1.000  H
  H33      1.0000 0.92060  0.97280  0.51310  Biso   1.000  H
  H34      1.0000 0.42060  0.47280  0.51310  Biso   1.000  H
  H35      1.0000 0.07940  0.97280  0.98690  Biso   1.000  H
  H36      1.0000 0.57940  0.47280  0.98690  Biso   1.000  H
  H37      1.0000 0.07940  0.02720  0.48690  Biso   1.000  H
  H38      1.0000 0.57940  0.52720  0.48690  Biso   1.000  H
  H39      1.0000 0.92060  0.02720  0.01310  Biso   1.000  H
  H40      1.0000 0.42060  0.52720  0.01310  Biso   1.000  H
