data_image0
_cell_length_a       4.7999
_cell_length_b       11.7936
_cell_length_c       9.4857
_cell_angle_alpha    90
_cell_angle_beta     103.665
_cell_angle_gamma    90

_symmetry_space_group_name_H-M    "P 1"
_symmetry_int_tables_number       1

loop_
  _symmetry_equiv_pos_as_xyz
  'x, y, z'

loop_
  _atom_site_label
  _atom_site_occupancy
  _atom_site_fract_x
  _atom_site_fract_y
  _atom_site_fract_z
  _atom_site_thermal_displace_type
  _atom_site_B_iso_or_equiv
  _atom_site_type_symbol
  Cu1      1.0000 0.50000  0.50000  0.50000  Biso   1.000  Cu
  Cu2      1.0000 0.50000  0.00000  0.00000  Biso   1.000  Cu
  C1       1.0000 0.17230  0.61250  0.23170  Biso   1.000  C
  C2       1.0000 0.82770  0.11250  0.26830  Biso   1.000  C
  C3       1.0000 0.82770  0.38750  0.76830  Biso   1.000  C
  C4       1.0000 0.17230  0.88750  0.73170  Biso   1.000  C
  H1       1.0000 0.31280  0.66740  0.23460  Biso   1.000  H
  H2       1.0000 0.68720  0.16740  0.26540  Biso   1.000  H
  H3       1.0000 0.68720  0.33260  0.76540  Biso   1.000  H
  H4       1.0000 0.31280  0.83260  0.73460  Biso   1.000  H
  C5       1.0000 0.82580  0.67491  0.00380  Biso   1.000  C
  C6       1.0000 0.17420  0.17491  0.49620  Biso   1.000  C
  C7       1.0000 0.17420  0.32509  0.99620  Biso   1.000  C
  C8       1.0000 0.82580  0.82509  0.50380  Biso   1.000  C
  H5       1.0000 0.68990  0.63270  0.93060  Biso   1.000  H
  H6       1.0000 0.31010  0.13270  0.56940  Biso   1.000  H
  H7       1.0000 0.31010  0.36730  0.06940  Biso   1.000  H
  H8       1.0000 0.68990  0.86730  0.43060  Biso   1.000  H
  H9       1.0000 0.98460  0.69680  0.96270  Biso   1.000  H
  H10      1.0000 0.01540  0.19680  0.53730  Biso   1.000  H
  H11      1.0000 0.01540  0.30320  0.03730  Biso   1.000  H
  H12      1.0000 0.98460  0.80320  0.46270  Biso   1.000  H
  C9       1.0000 0.68050  0.78135  0.04400  Biso   1.000  C
  C10      1.0000 0.31950  0.28135  0.45600  Biso   1.000  C
  C11      1.0000 0.31950  0.21865  0.95600  Biso   1.000  C
  C12      1.0000 0.68050  0.71865  0.54400  Biso   1.000  C
  N1       1.0000 0.17800  0.53181  0.32785  Biso   1.000  N
  N2       1.0000 0.82200  0.03181  0.17215  Biso   1.000  N
  N3       1.0000 0.82200  0.46819  0.67215  Biso   1.000  N
  N4       1.0000 0.17800  0.96819  0.82785  Biso   1.000  N
  N5       1.0000 0.93180  0.47106  0.28280  Biso   1.000  N
  N6       1.0000 0.06820  0.97106  0.21720  Biso   1.000  N
  N7       1.0000 0.06820  0.52894  0.71720  Biso   1.000  N
  N8       1.0000 0.93180  0.02894  0.78280  Biso   1.000  N
  N9       1.0000 0.78170  0.51337  0.16420  Biso   1.000  N
  N10      1.0000 0.21830  0.01337  0.33580  Biso   1.000  N
  N11      1.0000 0.21830  0.48663  0.83580  Biso   1.000  N
  N12      1.0000 0.78170  0.98663  0.66420  Biso   1.000  N
  N13      1.0000 0.93190  0.60214  0.13005  Biso   1.000  N
  N14      1.0000 0.06810  0.10214  0.36995  Biso   1.000  N
  N15      1.0000 0.06810  0.39786  0.86995  Biso   1.000  N
  N16      1.0000 0.93190  0.89786  0.63005  Biso   1.000  N
  O1       1.0000 0.67900  0.86236  0.95594  Biso   1.000  O
  O2       1.0000 0.32100  0.36236  0.54406  Biso   1.000  O
  O3       1.0000 0.32100  0.13764  0.04406  Biso   1.000  O
  O4       1.0000 0.67900  0.63764  0.45594  Biso   1.000  O
  O5       1.0000 0.57750  0.78232  0.14980  Biso   1.000  O
  O6       1.0000 0.42250  0.28232  0.35020  Biso   1.000  O
  O7       1.0000 0.42250  0.21768  0.85020  Biso   1.000  O
  O8       1.0000 0.57750  0.71768  0.64980  Biso   1.000  O
