data_image0
_cell_length_a       16.105
_cell_length_b       4.8728
_cell_length_c       29.455
_cell_angle_alpha    90
_cell_angle_beta     101.13
_cell_angle_gamma    90

_symmetry_space_group_name_H-M    "P 1"
_symmetry_int_tables_number       1

loop_
  _symmetry_equiv_pos_as_xyz
  'x, y, z'

loop_
  _atom_site_label
  _atom_site_occupancy
  _atom_site_fract_x
  _atom_site_fract_y
  _atom_site_fract_z
  _atom_site_thermal_displace_type
  _atom_site_B_iso_or_equiv
  _atom_site_type_symbol
  Cu1      1.0000 0.00000  0.00000  0.50000  Biso   1.000  Cu
  Cu2      1.0000 0.50000  0.50000  0.50000  Biso   1.000  Cu
  Cu3      1.0000 0.00000  0.00000  0.00000  Biso   1.000  Cu
  Cu4      1.0000 0.50000  0.50000  0.00000  Biso   1.000  Cu
  O1       1.0000 0.90781  0.18450  0.52197  Biso   1.000  O
  O2       1.0000 0.40781  0.68450  0.52197  Biso   1.000  O
  O3       1.0000 0.09219  0.18450  0.97803  Biso   1.000  O
  O4       1.0000 0.59219  0.68450  0.97803  Biso   1.000  O
  O5       1.0000 0.09219  0.81550  0.47803  Biso   1.000  O
  O6       1.0000 0.59219  0.31550  0.47803  Biso   1.000  O
  O7       1.0000 0.90781  0.81550  0.02197  Biso   1.000  O
  O8       1.0000 0.40781  0.31550  0.02197  Biso   1.000  O
  O9       1.0000 0.90912  0.59950  0.48884  Biso   1.000  O
  O10      1.0000 0.40912  0.09950  0.48884  Biso   1.000  O
  O11      1.0000 0.09088  0.59950  0.01116  Biso   1.000  O
  O12      1.0000 0.59088  0.09950  0.01116  Biso   1.000  O
  O13      1.0000 0.09088  0.40050  0.51116  Biso   1.000  O
  O14      1.0000 0.59088  0.90050  0.51116  Biso   1.000  O
  O15      1.0000 0.90912  0.40050  0.98884  Biso   1.000  O
  O16      1.0000 0.40912  0.90050  0.98884  Biso   1.000  O
  O17      1.0000 0.83440  0.58970  0.26057  Biso   1.000  O
  O18      1.0000 0.33440  0.08970  0.26057  Biso   1.000  O
  O19      1.0000 0.16560  0.58970  0.23943  Biso   1.000  O
  O20      1.0000 0.66560  0.08970  0.23943  Biso   1.000  O
  O21      1.0000 0.16560  0.41030  0.73943  Biso   1.000  O
  O22      1.0000 0.66560  0.91030  0.73943  Biso   1.000  O
  O23      1.0000 0.83440  0.41030  0.76057  Biso   1.000  O
  O24      1.0000 0.33440  0.91030  0.76057  Biso   1.000  O
  H1       1.0000 0.86310  0.48600  0.24800  Biso   1.000  H
  H2       1.0000 0.36310  0.98600  0.24800  Biso   1.000  H
  H3       1.0000 0.13690  0.48600  0.25200  Biso   1.000  H
  H4       1.0000 0.63690  0.98600  0.25200  Biso   1.000  H
  H5       1.0000 0.13690  0.51400  0.75200  Biso   1.000  H
  H6       1.0000 0.63690  0.01400  0.75200  Biso   1.000  H
  H7       1.0000 0.86310  0.51400  0.74800  Biso   1.000  H
  H8       1.0000 0.36310  0.01400  0.74800  Biso   1.000  H
  O25      1.0000 0.95973  0.72890  0.30060  Biso   1.000  O
  O26      1.0000 0.45973  0.22890  0.30060  Biso   1.000  O
  O27      1.0000 0.04027  0.72890  0.19940  Biso   1.000  O
  O28      1.0000 0.54027  0.22890  0.19940  Biso   1.000  O
  O29      1.0000 0.04027  0.27110  0.69940  Biso   1.000  O
  O30      1.0000 0.54027  0.77110  0.69940  Biso   1.000  O
  O31      1.0000 0.95973  0.27110  0.80060  Biso   1.000  O
  O32      1.0000 0.45973  0.77110  0.80060  Biso   1.000  O
  N1       1.0000 0.81996  0.35880  0.58414  Biso   1.000  N
  N2       1.0000 0.31996  0.85880  0.58414  Biso   1.000  N
  N3       1.0000 0.18004  0.35880  0.91586  Biso   1.000  N
  N4       1.0000 0.68004  0.85880  0.91586  Biso   1.000  N
  N5       1.0000 0.18004  0.64120  0.41586  Biso   1.000  N
  N6       1.0000 0.68004  0.14120  0.41586  Biso   1.000  N
  N7       1.0000 0.81996  0.64120  0.08414  Biso   1.000  N
  N8       1.0000 0.31996  0.14120  0.08414  Biso   1.000  N
  N9       1.0000 0.75330  0.19250  0.58233  Biso   1.000  N
  N10      1.0000 0.25330  0.69250  0.58233  Biso   1.000  N
  N11      1.0000 0.24670  0.19250  0.91767  Biso   1.000  N
  N12      1.0000 0.74670  0.69250  0.91767  Biso   1.000  N
  N13      1.0000 0.24670  0.80750  0.41767  Biso   1.000  N
  N14      1.0000 0.74670  0.30750  0.41767  Biso   1.000  N
  N15      1.0000 0.75330  0.80750  0.08233  Biso   1.000  N
  N16      1.0000 0.25330  0.30750  0.08233  Biso   1.000  N
  N17      1.0000 0.76938  0.04160  0.61919  Biso   1.000  N
  N18      1.0000 0.26938  0.54160  0.61919  Biso   1.000  N
  N19      1.0000 0.23062  0.04160  0.88081  Biso   1.000  N
  N20      1.0000 0.73062  0.54160  0.88081  Biso   1.000  N
  N21      1.0000 0.23062  0.95840  0.38081  Biso   1.000  N
  N22      1.0000 0.73062  0.45840  0.38081  Biso   1.000  N
  N23      1.0000 0.76938  0.95840  0.11919  Biso   1.000  N
  N24      1.0000 0.26938  0.45840  0.11919  Biso   1.000  N
  N25      1.0000 0.84591  0.10170  0.64472  Biso   1.000  N
  N26      1.0000 0.34591  0.60170  0.64472  Biso   1.000  N
  N27      1.0000 0.15409  0.10170  0.85528  Biso   1.000  N
  N28      1.0000 0.65409  0.60170  0.85528  Biso   1.000  N
  N29      1.0000 0.15409  0.89830  0.35528  Biso   1.000  N
  N30      1.0000 0.65409  0.39830  0.35528  Biso   1.000  N
  N31      1.0000 0.84591  0.89830  0.14472  Biso   1.000  N
  N32      1.0000 0.34591  0.39830  0.14472  Biso   1.000  N
  N33      1.0000 0.88315  0.00640  0.36224  Biso   1.000  N
  N34      1.0000 0.38315  0.50640  0.36224  Biso   1.000  N
  N35      1.0000 0.11685  0.00640  0.13776  Biso   1.000  N
  N36      1.0000 0.61685  0.50640  0.13776  Biso   1.000  N
  N37      1.0000 0.11685  0.99360  0.63776  Biso   1.000  N
  N38      1.0000 0.61685  0.49360  0.63776  Biso   1.000  N
  N39      1.0000 0.88315  0.99360  0.86224  Biso   1.000  N
  N40      1.0000 0.38315  0.49360  0.86224  Biso   1.000  N
  N41      1.0000 0.93064  0.23430  0.36276  Biso   1.000  N
  N42      1.0000 0.43064  0.73430  0.36276  Biso   1.000  N
  N43      1.0000 0.06936  0.23430  0.13724  Biso   1.000  N
  N44      1.0000 0.56936  0.73430  0.13724  Biso   1.000  N
  N45      1.0000 0.06936  0.76570  0.63724  Biso   1.000  N
  N46      1.0000 0.56936  0.26570  0.63724  Biso   1.000  N
  N47      1.0000 0.93064  0.76570  0.86276  Biso   1.000  N
  N48      1.0000 0.43064  0.26570  0.86276  Biso   1.000  N
  N49      1.0000 0.97063  0.26610  0.40483  Biso   1.000  N
  N50      1.0000 0.47063  0.76610  0.40483  Biso   1.000  N
  N51      1.0000 0.02937  0.26610  0.09517  Biso   1.000  N
  N52      1.0000 0.52937  0.76610  0.09517  Biso   1.000  N
  N53      1.0000 0.02937  0.73390  0.59517  Biso   1.000  N
  N54      1.0000 0.52937  0.23390  0.59517  Biso   1.000  N
  N55      1.0000 0.97063  0.73390  0.90483  Biso   1.000  N
  N56      1.0000 0.47063  0.23390  0.90483  Biso   1.000  N
  N57      1.0000 0.94991  0.06200  0.43176  Biso   1.000  N
  N58      1.0000 0.44991  0.56200  0.43176  Biso   1.000  N
  N59      1.0000 0.05009  0.06200  0.06824  Biso   1.000  N
  N60      1.0000 0.55009  0.56200  0.06824  Biso   1.000  N
  N61      1.0000 0.05009  0.93800  0.56824  Biso   1.000  N
  N62      1.0000 0.55009  0.43800  0.56824  Biso   1.000  N
  N63      1.0000 0.94991  0.93800  0.93176  Biso   1.000  N
  N64      1.0000 0.44991  0.43800  0.93176  Biso   1.000  N
  C1       1.0000 0.88738  0.43460  0.51590  Biso   1.000  C
  C2       1.0000 0.38738  0.93460  0.51590  Biso   1.000  C
  C3       1.0000 0.11262  0.43460  0.98410  Biso   1.000  C
  C4       1.0000 0.61262  0.93460  0.98410  Biso   1.000  C
  C5       1.0000 0.11262  0.56540  0.48410  Biso   1.000  C
  C6       1.0000 0.61262  0.06540  0.48410  Biso   1.000  C
  C7       1.0000 0.88738  0.56540  0.01590  Biso   1.000  C
  C8       1.0000 0.38738  0.06540  0.01590  Biso   1.000  C
  C9       1.0000 0.82662  0.54060  0.54594  Biso   1.000  C
  C10      1.0000 0.32662  0.04060  0.54594  Biso   1.000  C
  C11      1.0000 0.17338  0.54060  0.95406  Biso   1.000  C
  C12      1.0000 0.67338  0.04060  0.95406  Biso   1.000  C
  C13      1.0000 0.17338  0.45940  0.45406  Biso   1.000  C
  C14      1.0000 0.67338  0.95940  0.45406  Biso   1.000  C
  C15      1.0000 0.82662  0.45940  0.04594  Biso   1.000  C
  C16      1.0000 0.32662  0.95940  0.04594  Biso   1.000  C
  H9       1.0000 0.84580  0.71930  0.55820  Biso   1.000  H
  H10      1.0000 0.34580  0.21930  0.55820  Biso   1.000  H
  H11      1.0000 0.15420  0.71930  0.94180  Biso   1.000  H
  H12      1.0000 0.65420  0.21930  0.94180  Biso   1.000  H
  H13      1.0000 0.15420  0.28070  0.44180  Biso   1.000  H
  H14      1.0000 0.65420  0.78070  0.44180  Biso   1.000  H
  H15      1.0000 0.84580  0.28070  0.05820  Biso   1.000  H
  H16      1.0000 0.34580  0.78070  0.05820  Biso   1.000  H
  H17      1.0000 0.77090  0.56390  0.52670  Biso   1.000  H
  H18      1.0000 0.27090  0.06390  0.52670  Biso   1.000  H
  H19      1.0000 0.22910  0.56390  0.97330  Biso   1.000  H
  H20      1.0000 0.72910  0.06390  0.97330  Biso   1.000  H
  H21      1.0000 0.22910  0.43610  0.47330  Biso   1.000  H
  H22      1.0000 0.72910  0.93610  0.47330  Biso   1.000  H
  H23      1.0000 0.77090  0.43610  0.02670  Biso   1.000  H
  H24      1.0000 0.27090  0.93610  0.02670  Biso   1.000  H
  C17      1.0000 0.87570  0.29770  0.62194  Biso   1.000  C
  C18      1.0000 0.37570  0.79770  0.62194  Biso   1.000  C
  C19      1.0000 0.12430  0.29770  0.87806  Biso   1.000  C
  C20      1.0000 0.62430  0.79770  0.87806  Biso   1.000  C
  C21      1.0000 0.12430  0.70230  0.37806  Biso   1.000  C
  C22      1.0000 0.62430  0.20230  0.37806  Biso   1.000  C
  C23      1.0000 0.87570  0.70230  0.12194  Biso   1.000  C
  C24      1.0000 0.37570  0.20230  0.12194  Biso   1.000  C
  H25      1.0000 0.92810  0.38130  0.63100  Biso   1.000  H
  H26      1.0000 0.42810  0.88130  0.63100  Biso   1.000  H
  H27      1.0000 0.07190  0.38130  0.86900  Biso   1.000  H
  H28      1.0000 0.57190  0.88130  0.86900  Biso   1.000  H
  H29      1.0000 0.07190  0.61870  0.36900  Biso   1.000  H
  H30      1.0000 0.57190  0.11870  0.36900  Biso   1.000  H
  H31      1.0000 0.92810  0.61870  0.13100  Biso   1.000  H
  H32      1.0000 0.42810  0.11870  0.13100  Biso   1.000  H
  C25      1.0000 0.88405  0.73270  0.29269  Biso   1.000  C
  C26      1.0000 0.38405  0.23270  0.29269  Biso   1.000  C
  C27      1.0000 0.11595  0.73270  0.20731  Biso   1.000  C
  C28      1.0000 0.61595  0.23270  0.20731  Biso   1.000  C
  C29      1.0000 0.11595  0.26730  0.70731  Biso   1.000  C
  C30      1.0000 0.61595  0.76730  0.70731  Biso   1.000  C
  C31      1.0000 0.88405  0.26730  0.79269  Biso   1.000  C
  C32      1.0000 0.38405  0.76730  0.79269  Biso   1.000  C
  C33      1.0000 0.83156  0.90320  0.31961  Biso   1.000  C
  C34      1.0000 0.33156  0.40320  0.31961  Biso   1.000  C
  C35      1.0000 0.16844  0.90320  0.18039  Biso   1.000  C
  C36      1.0000 0.66844  0.40320  0.18039  Biso   1.000  C
  C37      1.0000 0.16844  0.09680  0.68039  Biso   1.000  C
  C38      1.0000 0.66844  0.59680  0.68039  Biso   1.000  C
  C39      1.0000 0.83156  0.09680  0.81961  Biso   1.000  C
  C40      1.0000 0.33156  0.59680  0.81961  Biso   1.000  C
  H33      1.0000 0.80660  0.05630  0.30070  Biso   1.000  H
  H34      1.0000 0.30660  0.55630  0.30070  Biso   1.000  H
  H35      1.0000 0.19340  0.05630  0.19930  Biso   1.000  H
  H36      1.0000 0.69340  0.55630  0.19930  Biso   1.000  H
  H37      1.0000 0.19340  0.94370  0.69930  Biso   1.000  H
  H38      1.0000 0.69340  0.44370  0.69930  Biso   1.000  H
  H39      1.0000 0.80660  0.94370  0.80070  Biso   1.000  H
  H40      1.0000 0.30660  0.44370  0.80070  Biso   1.000  H
  H41      1.0000 0.78590  0.79190  0.32690  Biso   1.000  H
  H42      1.0000 0.28590  0.29190  0.32690  Biso   1.000  H
  H43      1.0000 0.21410  0.79190  0.17310  Biso   1.000  H
  H44      1.0000 0.71410  0.29190  0.17310  Biso   1.000  H
  H45      1.0000 0.21410  0.20810  0.67310  Biso   1.000  H
  H46      1.0000 0.71410  0.70810  0.67310  Biso   1.000  H
  H47      1.0000 0.78590  0.20810  0.82690  Biso   1.000  H
  H48      1.0000 0.28590  0.70810  0.82690  Biso   1.000  H
  C41      1.0000 0.89575  0.90410  0.40474  Biso   1.000  C
  C42      1.0000 0.39575  0.40410  0.40474  Biso   1.000  C
  C43      1.0000 0.10425  0.90410  0.09526  Biso   1.000  C
  C44      1.0000 0.60425  0.40410  0.09526  Biso   1.000  C
  C45      1.0000 0.10425  0.09590  0.59526  Biso   1.000  C
  C46      1.0000 0.60425  0.59590  0.59526  Biso   1.000  C
  C47      1.0000 0.89575  0.09590  0.90474  Biso   1.000  C
  C48      1.0000 0.39575  0.59590  0.90474  Biso   1.000  C
  H49      1.0000 0.87050  0.74710  0.41380  Biso   1.000  H
  H50      1.0000 0.37050  0.24710  0.41380  Biso   1.000  H
  H51      1.0000 0.12950  0.74710  0.08620  Biso   1.000  H
  H52      1.0000 0.62950  0.24710  0.08620  Biso   1.000  H
  H53      1.0000 0.12950  0.25290  0.58620  Biso   1.000  H
  H54      1.0000 0.62950  0.75290  0.58620  Biso   1.000  H
  H55      1.0000 0.87050  0.25290  0.91380  Biso   1.000  H
  H56      1.0000 0.37050  0.75290  0.91380  Biso   1.000  H
  O33      1.0000 0.91949  0.26550  0.21735  Biso   1.000  O
  O34      1.0000 0.41949  0.76550  0.21735  Biso   1.000  O
  O35      1.0000 0.08051  0.26550  0.28265  Biso   1.000  O
  O36      1.0000 0.58051  0.76550  0.28265  Biso   1.000  O
  O37      1.0000 0.08051  0.73450  0.78265  Biso   1.000  O
  O38      1.0000 0.58051  0.23450  0.78265  Biso   1.000  O
  O39      1.0000 0.91949  0.73450  0.71735  Biso   1.000  O
  O40      1.0000 0.41949  0.23450  0.71735  Biso   1.000  O
  H57      1.0000 0.89870  0.14690  0.23320  Biso   1.000  H
  H58      1.0000 0.39870  0.64690  0.23320  Biso   1.000  H
  H59      1.0000 0.10130  0.14690  0.26680  Biso   1.000  H
  H60      1.0000 0.60130  0.64690  0.26680  Biso   1.000  H
  H61      1.0000 0.10130  0.85310  0.76680  Biso   1.000  H
  H62      1.0000 0.60130  0.35310  0.76680  Biso   1.000  H
  H63      1.0000 0.89870  0.85310  0.73320  Biso   1.000  H
  H64      1.0000 0.39870  0.35310  0.73320  Biso   1.000  H
  H65      1.0000 0.90540  0.24550  0.18770  Biso   1.000  H
  H66      1.0000 0.40540  0.74550  0.18770  Biso   1.000  H
  H67      1.0000 0.09460  0.24550  0.31230  Biso   1.000  H
  H68      1.0000 0.59460  0.74550  0.31230  Biso   1.000  H
  H69      1.0000 0.09460  0.75450  0.81230  Biso   1.000  H
  H70      1.0000 0.59460  0.25450  0.81230  Biso   1.000  H
  H71      1.0000 0.90540  0.75450  0.68770  Biso   1.000  H
  H72      1.0000 0.40540  0.25450  0.68770  Biso   1.000  H
