data_image0
_cell_length_a       19.039
_cell_length_b       7.1853
_cell_length_c       12.355
_cell_angle_alpha    90
_cell_angle_beta     116.666
_cell_angle_gamma    90

_symmetry_space_group_name_H-M    "P 1"
_symmetry_int_tables_number       1

loop_
  _symmetry_equiv_pos_as_xyz
  'x, y, z'

loop_
  _atom_site_label
  _atom_site_occupancy
  _atom_site_fract_x
  _atom_site_fract_y
  _atom_site_fract_z
  _atom_site_thermal_displace_type
  _atom_site_B_iso_or_equiv
  _atom_site_type_symbol
  Cu1      1.0000 0.25000  0.75000  0.00000  Biso   1.000  Cu
  Cu2      1.0000 0.75000  0.25000  0.00000  Biso   1.000  Cu
  Cu3      1.0000 0.75000  0.75000  0.50000  Biso   1.000  Cu
  Cu4      1.0000 0.25000  0.25000  0.50000  Biso   1.000  Cu
  P1       1.0000 0.40114  0.61071  0.01561  Biso   1.000  P
  P2       1.0000 0.90114  0.11071  0.01561  Biso   1.000  P
  P3       1.0000 0.59886  0.61071  0.48439  Biso   1.000  P
  P4       1.0000 0.09886  0.11071  0.48439  Biso   1.000  P
  P5       1.0000 0.59886  0.38929  0.98439  Biso   1.000  P
  P6       1.0000 0.09886  0.88929  0.98439  Biso   1.000  P
  P7       1.0000 0.40114  0.38929  0.51561  Biso   1.000  P
  P8       1.0000 0.90114  0.88929  0.51561  Biso   1.000  P
  C1       1.0000 0.36168  0.45400  0.09030  Biso   1.000  C
  C2       1.0000 0.86168  0.95400  0.09030  Biso   1.000  C
  C3       1.0000 0.63832  0.45400  0.40970  Biso   1.000  C
  C4       1.0000 0.13832  0.95400  0.40970  Biso   1.000  C
  C5       1.0000 0.63832  0.54600  0.90970  Biso   1.000  C
  C6       1.0000 0.13832  0.04600  0.90970  Biso   1.000  C
  C7       1.0000 0.36168  0.54600  0.59030  Biso   1.000  C
  C8       1.0000 0.86168  0.04600  0.59030  Biso   1.000  C
  C9       1.0000 0.39580  0.28990  0.14740  Biso   1.000  C
  C10      1.0000 0.89580  0.78990  0.14740  Biso   1.000  C
  C11      1.0000 0.60420  0.28990  0.35260  Biso   1.000  C
  C12      1.0000 0.10420  0.78990  0.35260  Biso   1.000  C
  C13      1.0000 0.60420  0.71010  0.85260  Biso   1.000  C
  C14      1.0000 0.10420  0.21010  0.85260  Biso   1.000  C
  C15      1.0000 0.39580  0.71010  0.64740  Biso   1.000  C
  C16      1.0000 0.89580  0.21010  0.64740  Biso   1.000  C
  H1       1.0000 0.44540  0.25610  0.15690  Biso   1.000  H
  H2       1.0000 0.94540  0.75610  0.15690  Biso   1.000  H
  H3       1.0000 0.55460  0.25610  0.34310  Biso   1.000  H
  H4       1.0000 0.05460  0.75610  0.34310  Biso   1.000  H
  H5       1.0000 0.55460  0.74390  0.84310  Biso   1.000  H
  H6       1.0000 0.05460  0.24390  0.84310  Biso   1.000  H
  H7       1.0000 0.44540  0.74390  0.65690  Biso   1.000  H
  H8       1.0000 0.94540  0.24390  0.65690  Biso   1.000  H
  C17      1.0000 0.35520  0.17590  0.19050  Biso   1.000  C
  C18      1.0000 0.85520  0.67590  0.19050  Biso   1.000  C
  C19      1.0000 0.64480  0.17590  0.30950  Biso   1.000  C
  C20      1.0000 0.14480  0.67590  0.30950  Biso   1.000  C
  C21      1.0000 0.64480  0.82410  0.80950  Biso   1.000  C
  C22      1.0000 0.14480  0.32410  0.80950  Biso   1.000  C
  C23      1.0000 0.35520  0.82410  0.69050  Biso   1.000  C
  C24      1.0000 0.85520  0.32410  0.69050  Biso   1.000  C
  C25      1.0000 0.28180  0.22940  0.17390  Biso   1.000  C
  C26      1.0000 0.78180  0.72940  0.17390  Biso   1.000  C
  C27      1.0000 0.71820  0.22940  0.32610  Biso   1.000  C
  C28      1.0000 0.21820  0.72940  0.32610  Biso   1.000  C
  C29      1.0000 0.71820  0.77060  0.82610  Biso   1.000  C
  C30      1.0000 0.21820  0.27060  0.82610  Biso   1.000  C
  C31      1.0000 0.28180  0.77060  0.67390  Biso   1.000  C
  C32      1.0000 0.78180  0.27060  0.67390  Biso   1.000  C
  H9       1.0000 0.25280  0.15320  0.19990  Biso   1.000  H
  H10      1.0000 0.75280  0.65320  0.19990  Biso   1.000  H
  H11      1.0000 0.74720  0.15320  0.30010  Biso   1.000  H
  H12      1.0000 0.24720  0.65320  0.30010  Biso   1.000  H
  H13      1.0000 0.74720  0.84680  0.80010  Biso   1.000  H
  H14      1.0000 0.24720  0.34680  0.80010  Biso   1.000  H
  H15      1.0000 0.25280  0.84680  0.69990  Biso   1.000  H
  H16      1.0000 0.75280  0.34680  0.69990  Biso   1.000  H
  C33      1.0000 0.25180  0.39520  0.11910  Biso   1.000  C
  C34      1.0000 0.75180  0.89520  0.11910  Biso   1.000  C
  C35      1.0000 0.74820  0.39520  0.38090  Biso   1.000  C
  C36      1.0000 0.24820  0.89520  0.38090  Biso   1.000  C
  C37      1.0000 0.74820  0.60480  0.88090  Biso   1.000  C
  C38      1.0000 0.24820  0.10480  0.88090  Biso   1.000  C
  C39      1.0000 0.25180  0.60480  0.61910  Biso   1.000  C
  C40      1.0000 0.75180  0.10480  0.61910  Biso   1.000  C
  H17      1.0000 0.20280  0.43250  0.11070  Biso   1.000  H
  H18      1.0000 0.70280  0.93250  0.11070  Biso   1.000  H
  H19      1.0000 0.79720  0.43250  0.38930  Biso   1.000  H
  H20      1.0000 0.29720  0.93250  0.38930  Biso   1.000  H
  H21      1.0000 0.79720  0.56750  0.88930  Biso   1.000  H
  H22      1.0000 0.29720  0.06750  0.88930  Biso   1.000  H
  H23      1.0000 0.20280  0.56750  0.61070  Biso   1.000  H
  H24      1.0000 0.70280  0.06750  0.61070  Biso   1.000  H
  C41      1.0000 0.38580  0.99120  0.24780  Biso   1.000  C
  C42      1.0000 0.88580  0.49120  0.24780  Biso   1.000  C
  C43      1.0000 0.61420  0.99120  0.25220  Biso   1.000  C
  C44      1.0000 0.11420  0.49120  0.25220  Biso   1.000  C
  C45      1.0000 0.61420  0.00880  0.75220  Biso   1.000  C
  C46      1.0000 0.11420  0.50880  0.75220  Biso   1.000  C
  C47      1.0000 0.38580  0.00880  0.74780  Biso   1.000  C
  C48      1.0000 0.88580  0.50880  0.74780  Biso   1.000  C
  N1       1.0000 0.29022  0.50630  0.07690  Biso   1.000  N
  N2       1.0000 0.79022  0.00630  0.07690  Biso   1.000  N
  N3       1.0000 0.70978  0.50630  0.42310  Biso   1.000  N
  N4       1.0000 0.20978  0.00630  0.42310  Biso   1.000  N
  N5       1.0000 0.70978  0.49370  0.92310  Biso   1.000  N
  N6       1.0000 0.20978  0.99370  0.92310  Biso   1.000  N
  N7       1.0000 0.29022  0.49370  0.57690  Biso   1.000  N
  N8       1.0000 0.79022  0.99370  0.57690  Biso   1.000  N
  O1       1.0000 0.34379  0.76990  0.97650  Biso   1.000  O
  O2       1.0000 0.84379  0.26990  0.97650  Biso   1.000  O
  O3       1.0000 0.65621  0.76990  0.52350  Biso   1.000  O
  O4       1.0000 0.15621  0.26990  0.52350  Biso   1.000  O
  O5       1.0000 0.65621  0.23010  0.02350  Biso   1.000  O
  O6       1.0000 0.15621  0.73010  0.02350  Biso   1.000  O
  O7       1.0000 0.34379  0.23010  0.47650  Biso   1.000  O
  O8       1.0000 0.84379  0.73010  0.47650  Biso   1.000  O
  O9       1.0000 0.39195  0.50220  0.90140  Biso   1.000  O
  O10      1.0000 0.89195  0.00220  0.90140  Biso   1.000  O
  O11      1.0000 0.60805  0.50220  0.59860  Biso   1.000  O
  O12      1.0000 0.10805  0.00220  0.59860  Biso   1.000  O
  O13      1.0000 0.60805  0.49780  0.09860  Biso   1.000  O
  O14      1.0000 0.10805  0.99780  0.09860  Biso   1.000  O
  O15      1.0000 0.39195  0.49780  0.40140  Biso   1.000  O
  O16      1.0000 0.89195  0.99780  0.40140  Biso   1.000  O
  H25      1.0000 0.44050  0.46440  0.91080  Biso   1.000  H
  H26      1.0000 0.94050  0.96440  0.91080  Biso   1.000  H
  H27      1.0000 0.55950  0.46440  0.58920  Biso   1.000  H
  H28      1.0000 0.05950  0.96440  0.58920  Biso   1.000  H
  H29      1.0000 0.55950  0.53560  0.08920  Biso   1.000  H
  H30      1.0000 0.05950  0.03560  0.08920  Biso   1.000  H
  H31      1.0000 0.44050  0.53560  0.41080  Biso   1.000  H
  H32      1.0000 0.94050  0.03560  0.41080  Biso   1.000  H
  O17      1.0000 0.48511  0.65690  0.09550  Biso   1.000  O
  O18      1.0000 0.98511  0.15690  0.09550  Biso   1.000  O
  O19      1.0000 0.51489  0.65690  0.40450  Biso   1.000  O
  O20      1.0000 0.01489  0.15690  0.40450  Biso   1.000  O
  O21      1.0000 0.51489  0.34310  0.90450  Biso   1.000  O
  O22      1.0000 0.01489  0.84310  0.90450  Biso   1.000  O
  O23      1.0000 0.48511  0.34310  0.59550  Biso   1.000  O
  O24      1.0000 0.98511  0.84310  0.59550  Biso   1.000  O
  O25      1.0000 0.34423  0.85630  0.22260  Biso   1.000  O
  O26      1.0000 0.84423  0.35630  0.22260  Biso   1.000  O
  O27      1.0000 0.65577  0.85630  0.27740  Biso   1.000  O
  O28      1.0000 0.15577  0.35630  0.27740  Biso   1.000  O
  O29      1.0000 0.65577  0.14370  0.77740  Biso   1.000  O
  O30      1.0000 0.15577  0.64370  0.77740  Biso   1.000  O
  O31      1.0000 0.34423  0.14370  0.72260  Biso   1.000  O
  O32      1.0000 0.84423  0.64370  0.72260  Biso   1.000  O
  O33      1.0000 0.45966  0.99350  0.32670  Biso   1.000  O
  O34      1.0000 0.95966  0.49350  0.32670  Biso   1.000  O
  O35      1.0000 0.54034  0.99350  0.17330  Biso   1.000  O
  O36      1.0000 0.04034  0.49350  0.17330  Biso   1.000  O
  O37      1.0000 0.54034  0.00650  0.67330  Biso   1.000  O
  O38      1.0000 0.04034  0.50650  0.67330  Biso   1.000  O
  O39      1.0000 0.45966  0.00650  0.82670  Biso   1.000  O
  O40      1.0000 0.95966  0.50650  0.82670  Biso   1.000  O
  H33      1.0000 0.47440  0.88700  0.34940  Biso   1.000  H
  H34      1.0000 0.97440  0.38700  0.34940  Biso   1.000  H
  H35      1.0000 0.52560  0.88700  0.15060  Biso   1.000  H
  H36      1.0000 0.02560  0.38700  0.15060  Biso   1.000  H
  H37      1.0000 0.52560  0.11300  0.65060  Biso   1.000  H
  H38      1.0000 0.02560  0.61300  0.65060  Biso   1.000  H
  H39      1.0000 0.47440  0.11300  0.84940  Biso   1.000  H
  H40      1.0000 0.97440  0.61300  0.84940  Biso   1.000  H
