data_image0
_cell_length_a       8.6369
_cell_length_b       19.3517
_cell_length_c       12.0519
_cell_angle_alpha    90
_cell_angle_beta     108.295
_cell_angle_gamma    90

_symmetry_space_group_name_H-M    "P 1"
_symmetry_int_tables_number       1

loop_
  _symmetry_equiv_pos_as_xyz
  'x, y, z'

loop_
  _atom_site_label
  _atom_site_occupancy
  _atom_site_fract_x
  _atom_site_fract_y
  _atom_site_fract_z
  _atom_site_thermal_displace_type
  _atom_site_B_iso_or_equiv
  _atom_site_type_symbol
  Cu1      1.0000 0.60643  0.05656  0.98437  Biso   1.000  Cu
  Cu2      1.0000 0.89357  0.55656  0.51563  Biso   1.000  Cu
  Cu3      1.0000 0.39357  0.94344  0.01563  Biso   1.000  Cu
  Cu4      1.0000 0.10643  0.44344  0.48437  Biso   1.000  Cu
  Cu5      1.0000 0.33461  0.00485  0.74260  Biso   1.000  Cu
  Cu6      1.0000 0.16539  0.50485  0.75740  Biso   1.000  Cu
  Cu7      1.0000 0.66539  0.99515  0.25740  Biso   1.000  Cu
  Cu8      1.0000 0.83461  0.49515  0.24260  Biso   1.000  Cu
  O1       1.0000 0.56380  0.14570  0.90784  Biso   1.000  O
  O2       1.0000 0.93620  0.64570  0.59216  Biso   1.000  O
  O3       1.0000 0.43620  0.85430  0.09216  Biso   1.000  O
  O4       1.0000 0.06380  0.35430  0.40784  Biso   1.000  O
  O5       1.0000 0.47550  0.10000  0.72849  Biso   1.000  O
  O6       1.0000 0.02450  0.60000  0.77151  Biso   1.000  O
  O7       1.0000 0.52450  0.90000  0.27151  Biso   1.000  O
  O8       1.0000 0.97550  0.40000  0.22849  Biso   1.000  O
  O9       1.0000 0.72580  0.99100  0.87860  Biso   1.000  O
  O10      1.0000 0.77420  0.49100  0.62140  Biso   1.000  O
  O11      1.0000 0.27420  0.00900  0.12140  Biso   1.000  O
  O12      1.0000 0.22580  0.50900  0.37860  Biso   1.000  O
  O13      1.0000 0.50080  0.93094  0.78235  Biso   1.000  O
  O14      1.0000 0.99920  0.43094  0.71765  Biso   1.000  O
  O15      1.0000 0.49920  0.06906  0.21765  Biso   1.000  O
  O16      1.0000 0.00080  0.56906  0.28235  Biso   1.000  O
  O17      1.0000 0.11480  0.10069  0.86461  Biso   1.000  O
  O18      1.0000 0.38520  0.60069  0.63539  Biso   1.000  O
  O19      1.0000 0.88520  0.89931  0.13539  Biso   1.000  O
  O20      1.0000 0.61480  0.39931  0.36461  Biso   1.000  O
  O21      1.0000 0.12140  0.05266  0.69709  Biso   1.000  O
  O22      1.0000 0.37860  0.55266  0.80291  Biso   1.000  O
  O23      1.0000 0.87860  0.94734  0.30291  Biso   1.000  O
  O24      1.0000 0.62140  0.44734  0.19709  Biso   1.000  O
  O25      1.0000 0.38311  0.02354  0.91115  Biso   1.000  O
  O26      1.0000 0.11689  0.52354  0.58885  Biso   1.000  O
  O27      1.0000 0.61689  0.97646  0.08885  Biso   1.000  O
  O28      1.0000 0.88311  0.47646  0.41115  Biso   1.000  O
  H1       1.0000 0.30960  0.05120  0.91650  Biso   1.000  H
  H2       1.0000 0.19040  0.55120  0.58350  Biso   1.000  H
  H3       1.0000 0.69040  0.94880  0.08350  Biso   1.000  H
  H4       1.0000 0.80960  0.44880  0.41650  Biso   1.000  H
  N1       1.0000 0.45410  0.22392  0.62454  Biso   1.000  N
  N2       1.0000 0.04590  0.72392  0.87546  Biso   1.000  N
  N3       1.0000 0.54590  0.77608  0.37546  Biso   1.000  N
  N4       1.0000 0.95410  0.27608  0.12454  Biso   1.000  N
  N5       1.0000 0.57380  0.23134  0.57900  Biso   1.000  N
  N6       1.0000 0.92620  0.73134  0.92100  Biso   1.000  N
  N7       1.0000 0.42620  0.76866  0.42100  Biso   1.000  N
  N8       1.0000 0.07380  0.26866  0.07900  Biso   1.000  N
  N9       1.0000 0.50950  0.22770  0.46700  Biso   1.000  N
  N10      1.0000 0.99050  0.72770  0.03300  Biso   1.000  N
  N11      1.0000 0.49050  0.77230  0.53300  Biso   1.000  N
  N12      1.0000 0.00950  0.27230  0.96700  Biso   1.000  N
  N13      1.0000 0.34960  0.21711  0.43850  Biso   1.000  N
  N14      1.0000 0.15040  0.71711  0.06150  Biso   1.000  N
  N15      1.0000 0.65040  0.78289  0.56150  Biso   1.000  N
  N16      1.0000 0.84960  0.28289  0.93850  Biso   1.000  N
  N17      1.0000 0.17480  0.91303  0.91372  Biso   1.000  N
  N18      1.0000 0.32520  0.41303  0.58628  Biso   1.000  N
  N19      1.0000 0.82520  0.08697  0.08628  Biso   1.000  N
  N20      1.0000 0.67480  0.58697  0.41372  Biso   1.000  N
  N21      1.0000 0.14580  0.90415  0.79699  Biso   1.000  N
  N22      1.0000 0.35420  0.40415  0.70301  Biso   1.000  N
  N23      1.0000 0.85420  0.09585  0.20301  Biso   1.000  N
  N24      1.0000 0.64580  0.59585  0.29699  Biso   1.000  N
  N25      1.0000 0.99450  0.89103  0.74671  Biso   1.000  N
  N26      1.0000 0.50550  0.39103  0.75329  Biso   1.000  N
  N27      1.0000 0.00550  0.10897  0.25329  Biso   1.000  N
  N28      1.0000 0.49450  0.60897  0.24671  Biso   1.000  N
  N29      1.0000 0.92300  0.89125  0.83118  Biso   1.000  N
  N30      1.0000 0.57700  0.39125  0.66882  Biso   1.000  N
  N31      1.0000 0.07700  0.10875  0.16882  Biso   1.000  N
  N32      1.0000 0.42300  0.60875  0.33118  Biso   1.000  N
  N33      1.0000 0.71680  0.01969  0.42637  Biso   1.000  N
  N34      1.0000 0.78320  0.51969  0.07363  Biso   1.000  N
  N35      1.0000 0.28320  0.98031  0.57363  Biso   1.000  N
  N36      1.0000 0.21680  0.48031  0.92637  Biso   1.000  N
  N37      1.0000 0.68600  0.97487  0.50300  Biso   1.000  N
  N38      1.0000 0.81400  0.47487  0.99700  Biso   1.000  N
  N39      1.0000 0.31400  0.02513  0.49700  Biso   1.000  N
  N40      1.0000 0.18600  0.52513  0.00300  Biso   1.000  N
  N41      1.0000 0.73480  0.00103  0.60650  Biso   1.000  N
  N42      1.0000 0.76520  0.50103  0.89350  Biso   1.000  N
  N43      1.0000 0.26520  0.99897  0.39350  Biso   1.000  N
  N44      1.0000 0.23480  0.49897  0.10650  Biso   1.000  N
  N45      1.0000 0.79670  0.06317  0.59797  Biso   1.000  N
  N46      1.0000 0.70330  0.56317  0.90203  Biso   1.000  N
  N47      1.0000 0.20330  0.93683  0.40203  Biso   1.000  N
  N48      1.0000 0.29670  0.43683  0.09797  Biso   1.000  N
  C1       1.0000 0.50980  0.14839  0.79680  Biso   1.000  C
  C2       1.0000 0.99020  0.64839  0.70320  Biso   1.000  C
  C3       1.0000 0.49020  0.85161  0.20320  Biso   1.000  C
  C4       1.0000 0.00980  0.35161  0.29680  Biso   1.000  C
  C5       1.0000 0.48590  0.22198  0.75030  Biso   1.000  C
  C6       1.0000 0.01410  0.72198  0.74970  Biso   1.000  C
  C7       1.0000 0.51410  0.77802  0.24970  Biso   1.000  C
  C8       1.0000 0.98590  0.27802  0.25030  Biso   1.000  C
  H5       1.0000 0.39520  0.24290  0.76910  Biso   1.000  H
  H6       1.0000 0.10480  0.74290  0.73090  Biso   1.000  H
  H7       1.0000 0.60480  0.75710  0.23090  Biso   1.000  H
  H8       1.0000 0.89520  0.25710  0.26910  Biso   1.000  H
  H9       1.0000 0.58300  0.24880  0.78820  Biso   1.000  H
  H10      1.0000 0.91700  0.74880  0.71180  Biso   1.000  H
  H11      1.0000 0.41700  0.75120  0.21180  Biso   1.000  H
  H12      1.0000 0.08300  0.25120  0.28820  Biso   1.000  H
  C9       1.0000 0.31820  0.21450  0.53740  Biso   1.000  C
  C10      1.0000 0.18180  0.71450  0.96260  Biso   1.000  C
  C11      1.0000 0.68180  0.78550  0.46260  Biso   1.000  C
  C12      1.0000 0.81820  0.28550  0.03740  Biso   1.000  C
  H13      1.0000 0.21570  0.20700  0.54530  Biso   1.000  H
  H14      1.0000 0.28430  0.70700  0.95470  Biso   1.000  H
  H15      1.0000 0.78430  0.79300  0.45470  Biso   1.000  H
  H16      1.0000 0.71570  0.29300  0.04530  Biso   1.000  H
  C13      1.0000 0.03450  0.90476  0.93250  Biso   1.000  C
  C14      1.0000 0.46550  0.40476  0.56750  Biso   1.000  C
  C15      1.0000 0.96550  0.09524  0.06750  Biso   1.000  C
  C16      1.0000 0.53450  0.59524  0.43250  Biso   1.000  C
  H17      1.0000 0.01650  0.90780  0.00450  Biso   1.000  H
  H18      1.0000 0.48350  0.40780  0.49550  Biso   1.000  H
  H19      1.0000 0.98350  0.09220  0.99550  Biso   1.000  H
  H20      1.0000 0.51650  0.59220  0.50450  Biso   1.000  H
  C17      1.0000 0.74850  0.87823  0.80350  Biso   1.000  C
  C18      1.0000 0.75150  0.37823  0.69650  Biso   1.000  C
  C19      1.0000 0.25150  0.12177  0.19650  Biso   1.000  C
  C20      1.0000 0.24850  0.62177  0.30350  Biso   1.000  C
  H21      1.0000 0.70490  0.86430  0.72230  Biso   1.000  H
  H22      1.0000 0.79510  0.36430  0.77770  Biso   1.000  H
  H23      1.0000 0.29510  0.13570  0.27770  Biso   1.000  H
  H24      1.0000 0.20490  0.63570  0.22230  Biso   1.000  H
  H25      1.0000 0.73260  0.84010  0.85120  Biso   1.000  H
  H26      1.0000 0.76740  0.34010  0.64880  Biso   1.000  H
  H27      1.0000 0.26740  0.15990  0.14880  Biso   1.000  H
  H28      1.0000 0.23260  0.65990  0.35120  Biso   1.000  H
  C21      1.0000 0.65370  0.94038  0.82380  Biso   1.000  C
  C22      1.0000 0.84630  0.44038  0.67620  Biso   1.000  C
  C23      1.0000 0.34630  0.05962  0.17620  Biso   1.000  C
  C24      1.0000 0.15370  0.55962  0.32380  Biso   1.000  C
  C25      1.0000 0.78600  0.07346  0.48780  Biso   1.000  C
  C26      1.0000 0.71400  0.57346  0.01220  Biso   1.000  C
  C27      1.0000 0.21400  0.92654  0.51220  Biso   1.000  C
  C28      1.0000 0.28600  0.42654  0.98780  Biso   1.000  C
  H29      1.0000 0.82180  0.11260  0.45840  Biso   1.000  H
  H30      1.0000 0.67820  0.61260  0.04160  Biso   1.000  H
  H31      1.0000 0.17820  0.88740  0.54160  Biso   1.000  H
  H32      1.0000 0.32180  0.38740  0.95840  Biso   1.000  H
  C29      1.0000 0.87420  0.10349  0.70330  Biso   1.000  C
  C30      1.0000 0.62580  0.60349  0.79670  Biso   1.000  C
  C31      1.0000 0.12580  0.89651  0.29670  Biso   1.000  C
  C32      1.0000 0.37420  0.39651  0.20330  Biso   1.000  C
  H33      1.0000 0.86760  0.15220  0.68320  Biso   1.000  H
  H34      1.0000 0.63240  0.65220  0.81680  Biso   1.000  H
  H35      1.0000 0.13240  0.84780  0.31680  Biso   1.000  H
  H36      1.0000 0.36760  0.34780  0.18320  Biso   1.000  H
  H37      1.0000 0.81510  0.09650  0.75870  Biso   1.000  H
  H38      1.0000 0.68490  0.59650  0.74130  Biso   1.000  H
  H39      1.0000 0.18490  0.90350  0.24130  Biso   1.000  H
  H40      1.0000 0.31510  0.40350  0.25870  Biso   1.000  H
  C33      1.0000 0.05340  0.08378  0.76110  Biso   1.000  C
  C34      1.0000 0.44660  0.58378  0.73890  Biso   1.000  C
  C35      1.0000 0.94660  0.91622  0.23890  Biso   1.000  C
  C36      1.0000 0.55340  0.41622  0.26110  Biso   1.000  C
  O29      1.0000 0.55850  0.73540  0.96670  Biso   1.000  O
  O30      1.0000 0.94150  0.23540  0.53330  Biso   1.000  O
  O31      1.0000 0.44150  0.26460  0.03330  Biso   1.000  O
  O32      1.0000 0.05850  0.76460  0.46670  Biso   1.000  O
  H41      1.0000 0.51740  0.72500  0.02240  Biso   1.000  H
  H42      1.0000 0.98260  0.22500  0.47760  Biso   1.000  H
  H43      1.0000 0.48260  0.27500  0.97760  Biso   1.000  H
  H44      1.0000 0.01740  0.77500  0.52240  Biso   1.000  H
  H45      1.0000 0.49100  0.74660  0.89890  Biso   1.000  H
  H46      1.0000 0.00900  0.24660  0.60110  Biso   1.000  H
  H47      1.0000 0.50900  0.25340  0.10110  Biso   1.000  H
  H48      1.0000 0.99100  0.75340  0.39890  Biso   1.000  H
  O33      1.0000 0.38100  0.78358  0.74020  Biso   1.000  O
  O34      1.0000 0.11900  0.28358  0.75980  Biso   1.000  O
  O35      1.0000 0.61900  0.21642  0.25980  Biso   1.000  O
  O36      1.0000 0.88100  0.71642  0.24020  Biso   1.000  O
  H49      1.0000 0.37430  0.82760  0.73390  Biso   1.000  H
  H50      1.0000 0.12570  0.32760  0.76610  Biso   1.000  H
  H51      1.0000 0.62570  0.17240  0.26610  Biso   1.000  H
  H52      1.0000 0.87430  0.67240  0.23390  Biso   1.000  H
  H53      1.0000 0.37930  0.75980  0.68010  Biso   1.000  H
  H54      1.0000 0.12070  0.25980  0.81990  Biso   1.000  H
  H55      1.0000 0.62070  0.24020  0.31990  Biso   1.000  H
  H56      1.0000 0.87930  0.74020  0.18010  Biso   1.000  H
