data_image0
_cell_length_a       8.5325
_cell_length_b       9.4912
_cell_length_c       11.047
_cell_angle_alpha    106.534
_cell_angle_beta     93.207
_cell_angle_gamma    107.294

_symmetry_space_group_name_H-M    "P 1"
_symmetry_int_tables_number       1

loop_
  _symmetry_equiv_pos_as_xyz
  'x, y, z'

loop_
  _atom_site_label
  _atom_site_occupancy
  _atom_site_fract_x
  _atom_site_fract_y
  _atom_site_fract_z
  _atom_site_thermal_displace_type
  _atom_site_B_iso_or_equiv
  _atom_site_type_symbol
  Cu1      1.0000 0.63551  0.54649  0.42597  Biso   1.000  Cu
  Cu2      1.0000 0.36449  0.45351  0.57403  Biso   1.000  Cu
  Cu3      1.0000 0.31613  0.20237  0.27606  Biso   1.000  Cu
  Cu4      1.0000 0.68387  0.79763  0.72394  Biso   1.000  Cu
  O1       1.0000 0.70820  0.33250  0.40640  Biso   1.000  O
  O2       1.0000 0.29180  0.66750  0.59360  Biso   1.000  O
  O3       1.0000 0.46410  0.14060  0.37819  Biso   1.000  O
  O4       1.0000 0.53590  0.85940  0.62181  Biso   1.000  O
  O5       1.0000 0.15370  0.24300  0.16263  Biso   1.000  O
  O6       1.0000 0.84630  0.75700  0.83737  Biso   1.000  O
  O7       1.0000 0.16680  0.48270  0.28020  Biso   1.000  O
  O8       1.0000 0.83320  0.51730  0.71980  Biso   1.000  O
  O9       1.0000 0.65930  0.52550  0.24715  Biso   1.000  O
  O10      1.0000 0.34070  0.47450  0.75285  Biso   1.000  O
  O11      1.0000 0.59160  0.73680  0.27640  Biso   1.000  O
  O12      1.0000 0.40840  0.26320  0.72360  Biso   1.000  O
  O13      1.0000 0.39960  0.41890  0.39223  Biso   1.000  O
  O14      1.0000 0.60040  0.58110  0.60777  Biso   1.000  O
  H1       1.0000 0.34300  0.45400  0.36600  Biso   1.000  H
  H2       1.0000 0.65700  0.54600  0.63400  Biso   1.000  H
  O15      1.0000 0.51320  0.21140  0.12770  Biso   1.000  O
  O16      1.0000 0.48680  0.78860  0.87230  Biso   1.000  O
  H3       1.0000 0.56000  0.29900  0.14700  Biso   1.000  H
  H4       1.0000 0.44000  0.70100  0.85300  Biso   1.000  H
  H5       1.0000 0.49800  0.18300  0.05800  Biso   1.000  H
  H6       1.0000 0.50200  0.81700  0.94200  Biso   1.000  H
  N1       1.0000 0.13630  0.29880  0.51960  Biso   1.000  N
  N2       1.0000 0.86370  0.70120  0.48040  Biso   1.000  N
  N3       1.0000 0.10360  0.16930  0.41650  Biso   1.000  N
  N4       1.0000 0.89640  0.83070  0.58350  Biso   1.000  N
  N5       1.0000 0.94850  0.08960  0.39430  Biso   1.000  N
  N6       1.0000 0.05150  0.91040  0.60570  Biso   1.000  N
  N7       1.0000 0.87790  0.16710  0.48440  Biso   1.000  N
  N8       1.0000 0.12210  0.83290  0.51560  Biso   1.000  N
  N9       1.0000 0.79060  0.02220  0.83360  Biso   1.000  N
  N10      1.0000 0.20940  0.97780  0.16640  Biso   1.000  N
  N11      1.0000 0.82600  0.14690  0.79180  Biso   1.000  N
  N12      1.0000 0.17400  0.85310  0.20820  Biso   1.000  N
  N13      1.0000 0.88530  0.27230  0.88850  Biso   1.000  N
  N14      1.0000 0.11470  0.72770  0.11150  Biso   1.000  N
  N15      1.0000 0.88770  0.22930  0.99410  Biso   1.000  N
  N16      1.0000 0.11230  0.77070  0.00590  Biso   1.000  N
  C1       1.0000 0.99300  0.29440  0.55990  Biso   1.000  C
  C2       1.0000 0.00700  0.70560  0.44010  Biso   1.000  C
  H7       1.0000 0.97600  0.36500  0.62500  Biso   1.000  H
  H8       1.0000 0.02400  0.63500  0.37500  Biso   1.000  H
  C3       1.0000 0.69810  0.11790  0.48120  Biso   1.000  C
  C4       1.0000 0.30190  0.88210  0.51880  Biso   1.000  C
  H9       1.0000 0.65090  0.00740  0.43570  Biso   1.000  H
  H10      1.0000 0.34910  0.99260  0.56430  Biso   1.000  H
  H11      1.0000 0.67320  0.13550  0.56780  Biso   1.000  H
  H12      1.0000 0.32680  0.86450  0.43220  Biso   1.000  H
  C5       1.0000 0.61930  0.20750  0.41530  Biso   1.000  C
  C6       1.0000 0.38070  0.79250  0.58470  Biso   1.000  C
  C7       1.0000 0.83000  0.07680  0.95890  Biso   1.000  C
  C8       1.0000 0.17000  0.92320  0.04110  Biso   1.000  C
  H13      1.0000 0.82000  0.02400  0.00500  Biso   1.000  H
  H14      1.0000 0.18000  0.97600  0.99500  Biso   1.000  H
  C9       1.0000 0.93930  0.34600  0.12110  Biso   1.000  C
  C10      1.0000 0.06070  0.65400  0.87890  Biso   1.000  C
  H15      1.0000 0.85280  0.32210  0.17260  Biso   1.000  H
  H16      1.0000 0.14720  0.67790  0.82740  Biso   1.000  H
  H17      1.0000 0.94820  0.44670  0.11210  Biso   1.000  H
  H18      1.0000 0.05180  0.55330  0.88790  Biso   1.000  H
  C11      1.0000 0.10290  0.35840  0.19260  Biso   1.000  C
  C12      1.0000 0.89710  0.64160  0.80740  Biso   1.000  C
  C13      1.0000 0.68360  0.63780  0.09120  Biso   1.000  C
  C14      1.0000 0.31640  0.36220  0.90880  Biso   1.000  C
  H19      1.0000 0.58500  0.61540  0.03290  Biso   1.000  H
  H20      1.0000 0.41500  0.38460  0.96710  Biso   1.000  H
  H21      1.0000 0.73520  0.56000  0.06040  Biso   1.000  H
  H22      1.0000 0.26480  0.44000  0.93960  Biso   1.000  H
  H23      1.0000 0.75940  0.73820  0.09760  Biso   1.000  H
  H24      1.0000 0.24060  0.26180  0.90240  Biso   1.000  H
  C15      1.0000 0.64190  0.63740  0.21030  Biso   1.000  C
  C16      1.0000 0.35810  0.36260  0.78970  Biso   1.000  C
  O17      1.0000 0.59210  0.93870  0.12940  Biso   1.000  O
  O18      1.0000 0.40790  0.06130  0.87060  Biso   1.000  O
  H25      1.0000 0.56200  0.02200  0.15800  Biso   1.000  H
  H26      1.0000 0.43800  0.97800  0.84200  Biso   1.000  H
  H27      1.0000 0.57400  0.87700  0.17700  Biso   1.000  H
  H28      1.0000 0.42600  0.12300  0.82300  Biso   1.000  H
