data_image0
_cell_length_a       8.831
_cell_length_b       9.932
_cell_length_c       16.588
_cell_angle_alpha    89.91
_cell_angle_beta     77.43
_cell_angle_gamma    78.109

_symmetry_space_group_name_H-M    "P 1"
_symmetry_int_tables_number       1

loop_
  _symmetry_equiv_pos_as_xyz
  'x, y, z'

loop_
  _atom_site_label
  _atom_site_occupancy
  _atom_site_fract_x
  _atom_site_fract_y
  _atom_site_fract_z
  _atom_site_thermal_displace_type
  _atom_site_B_iso_or_equiv
  _atom_site_type_symbol
  Cu1      1.0000 0.32005  0.00384  0.34441  Biso   1.000  Cu
  Cu2      1.0000 0.67995  0.99616  0.65559  Biso   1.000  Cu
  Cu3      1.0000 0.31491  0.98556  0.70208  Biso   1.000  Cu
  Cu4      1.0000 0.68509  0.01444  0.29792  Biso   1.000  Cu
  N1       1.0000 0.26150  0.99740  0.46280  Biso   1.000  N
  N2       1.0000 0.73850  0.00260  0.53720  Biso   1.000  N
  N3       1.0000 0.25840  0.99150  0.59610  Biso   1.000  N
  N4       1.0000 0.74160  0.00850  0.40390  Biso   1.000  N
  N5       1.0000 0.18260  0.86830  0.35360  Biso   1.000  N
  N6       1.0000 0.81740  0.13170  0.64640  Biso   1.000  N
  N7       1.0000 0.03770  0.73700  0.44550  Biso   1.000  N
  N8       1.0000 0.96230  0.26300  0.55450  Biso   1.000  N
  H1       1.0000 0.97800  0.74000  0.49490  Biso   1.000  H
  H2       1.0000 0.02200  0.26000  0.50510  Biso   1.000  H
  N9       1.0000 0.16760  0.85790  0.72030  Biso   1.000  N
  N10      1.0000 0.83240  0.14210  0.27970  Biso   1.000  N
  N11      1.0000 0.02210  0.73590  0.65570  Biso   1.000  N
  N12      1.0000 0.97790  0.26410  0.34430  Biso   1.000  N
  H3       1.0000 0.96800  0.73800  0.61800  Biso   1.000  H
  H4       1.0000 0.03200  0.26200  0.38200  Biso   1.000  H
  C1       1.0000 0.30780  0.04890  0.52540  Biso   1.000  C
  C2       1.0000 0.69220  0.95110  0.47460  Biso   1.000  C
  H5       1.0000 0.36859  0.11823  0.52014  Biso   1.000  H
  H6       1.0000 0.63141  0.88177  0.47986  Biso   1.000  H
  C3       1.0000 0.17480  0.89630  0.57920  Biso   1.000  C
  C4       1.0000 0.82520  0.10370  0.42080  Biso   1.000  C
  C5       1.0000 0.17690  0.90000  0.49460  Biso   1.000  C
  C6       1.0000 0.82310  0.10000  0.50540  Biso   1.000  C
  C7       1.0000 0.12690  0.83140  0.42830  Biso   1.000  C
  C8       1.0000 0.87310  0.16860  0.57170  Biso   1.000  C
  C9       1.0000 0.13540  0.81050  0.28350  Biso   1.000  C
  C10      1.0000 0.86460  0.18950  0.71650  Biso   1.000  C
  H7       1.0000 0.21855  0.81005  0.23266  Biso   1.000  H
  H8       1.0000 0.78145  0.18995  0.76734  Biso   1.000  H
  H9       1.0000 0.03565  0.86945  0.27506  Biso   1.000  H
  H10      1.0000 0.96435  0.13055  0.72494  Biso   1.000  H
  C11      1.0000 0.11130  0.66490  0.29850  Biso   1.000  C
  C12      1.0000 0.88870  0.33510  0.70150  Biso   1.000  C
  H11      1.0000 0.21425  0.60287  0.29925  Biso   1.000  H
  H12      1.0000 0.78575  0.39713  0.70075  Biso   1.000  H
  H13      1.0000 0.06965  0.63195  0.25316  Biso   1.000  H
  H14      1.0000 0.93035  0.36805  0.74684  Biso   1.000  H
  C13      1.0000 0.99540  0.66150  0.38040  Biso   1.000  C
  C14      1.0000 0.00460  0.33850  0.61960  Biso   1.000  C
  H15      1.0000 0.88649  0.70370  0.37506  Biso   1.000  H
  H16      1.0000 0.11351  0.29630  0.62494  Biso   1.000  H
  H17      1.0000 0.99770  0.56473  0.39557  Biso   1.000  H
  H18      1.0000 0.00230  0.43527  0.60443  Biso   1.000  H
  C15      1.0000 0.11720  0.82590  0.65580  Biso   1.000  C
  C16      1.0000 0.88280  0.17410  0.34420  Biso   1.000  C
  C17      1.0000 0.10300  0.80940  0.80230  Biso   1.000  C
  C18      1.0000 0.89700  0.19060  0.19770  Biso   1.000  C
  H19      1.0000 0.08381  0.88519  0.84440  Biso   1.000  H
  H20      1.0000 0.91619  0.11481  0.15560  Biso   1.000  H
  H21      1.0000 0.18289  0.73260  0.81616  Biso   1.000  H
  H22      1.0000 0.81711  0.26740  0.18384  Biso   1.000  H
  C19      1.0000 0.95030  0.76120  0.80610  Biso   1.000  C
  C20      1.0000 0.04970  0.23880  0.19390  Biso   1.000  C
  H23      1.0000 0.92396  0.71185  0.85749  Biso   1.000  H
  H24      1.0000 0.07604  0.28815  0.14251  Biso   1.000  H
  H25      1.0000 0.86245  0.84151  0.80658  Biso   1.000  H
  H26      1.0000 0.13755  0.15849  0.19342  Biso   1.000  H
  C21      1.0000 0.96960  0.66700  0.73220  Biso   1.000  C
  C22      1.0000 0.03040  0.33300  0.26780  Biso   1.000  C
  H27      1.0000 0.04875  0.58179  0.73538  Biso   1.000  H
  H28      1.0000 0.95125  0.41821  0.26462  Biso   1.000  H
  H29      1.0000 0.86725  0.64120  0.73189  Biso   1.000  H
  H30      1.0000 0.13275  0.35880  0.26811  Biso   1.000  H
  O1       1.0000 0.41610  0.16620  0.34620  Biso   1.000  O
  O2       1.0000 0.58390  0.83380  0.65380  Biso   1.000  O
  O3       1.0000 0.21130  0.31150  0.42720  Biso   1.000  O
  O4       1.0000 0.78870  0.68850  0.57280  Biso   1.000  O
  C23      1.0000 0.34540  0.28520  0.38090  Biso   1.000  C
  C24      1.0000 0.65460  0.71480  0.61910  Biso   1.000  C
  C25      1.0000 0.43180  0.40080  0.35930  Biso   1.000  C
  C26      1.0000 0.56820  0.59920  0.64070  Biso   1.000  C
  C27      1.0000 0.40760  0.51000  0.41560  Biso   1.000  C
  C28      1.0000 0.59240  0.49000  0.58440  Biso   1.000  C
  H31      1.0000 0.34375  0.50874  0.46955  Biso   1.000  H
  H32      1.0000 0.65625  0.49126  0.53045  Biso   1.000  H
  C29      1.0000 0.47760  0.62240  0.39250  Biso   1.000  C
  C30      1.0000 0.52240  0.37760  0.60750  Biso   1.000  C
  H33      1.0000 0.46215  0.69705  0.43115  Biso   1.000  H
  H34      1.0000 0.53785  0.30295  0.56885  Biso   1.000  H
  C31      1.0000 0.56970  0.62570  0.31340  Biso   1.000  C
  C32      1.0000 0.43030  0.37430  0.68660  Biso   1.000  C
  C33      1.0000 0.59570  0.51370  0.25800  Biso   1.000  C
  C34      1.0000 0.40430  0.48630  0.74200  Biso   1.000  C
  H35      1.0000 0.66056  0.51417  0.20425  Biso   1.000  H
  H36      1.0000 0.33944  0.48583  0.79575  Biso   1.000  H
  C35      1.0000 0.52730  0.40150  0.28090  Biso   1.000  C
  C36      1.0000 0.47270  0.59850  0.71910  Biso   1.000  C
  H37      1.0000 0.54594  0.32522  0.24295  Biso   1.000  H
  H38      1.0000 0.45406  0.67478  0.75705  Biso   1.000  H
  C37      1.0000 0.64240  0.74720  0.28650  Biso   1.000  C
  C38      1.0000 0.35760  0.25280  0.71350  Biso   1.000  C
  O5       1.0000 0.57710  0.86040  0.32940  Biso   1.000  O
  O6       1.0000 0.42290  0.13960  0.67060  Biso   1.000  O
  O7       1.0000 0.76020  0.73410  0.22860  Biso   1.000  O
  O8       1.0000 0.23980  0.26590  0.77140  Biso   1.000  O
  O9       1.0000 0.37430  0.99660  0.22360  Biso   1.000  O
  O10      1.0000 0.62570  0.00340  0.77640  Biso   1.000  O
  O11      1.0000 0.62240  0.03820  0.19270  Biso   1.000  O
  O12      1.0000 0.37760  0.96180  0.80730  Biso   1.000  O
  C39      1.0000 0.49820  0.01580  0.17430  Biso   1.000  C
  C40      1.0000 0.50180  0.98420  0.82570  Biso   1.000  C
  C41      1.0000 0.49860  0.00770  0.08430  Biso   1.000  C
  C42      1.0000 0.50140  0.99230  0.91570  Biso   1.000  C
  C43      1.0000 0.37090  0.97410  0.05790  Biso   1.000  C
  C44      1.0000 0.62910  0.02590  0.94210  Biso   1.000  C
  H39      1.0000 0.28166  0.95783  0.09736  Biso   1.000  H
  H40      1.0000 0.71834  0.04217  0.90264  Biso   1.000  H
  C45      1.0000 0.62600  0.03550  0.02550  Biso   1.000  C
  C46      1.0000 0.37400  0.96450  0.97450  Biso   1.000  C
  H41      1.0000 0.71182  0.06134  0.04305  Biso   1.000  H
  H42      1.0000 0.28818  0.93866  0.95695  Biso   1.000  H
  O13      1.0000 0.12600  0.61700  0.98350  Biso   1.000  O
  O14      1.0000 0.87400  0.38300  0.01650  Biso   1.000  O
  C47      1.0000 0.21600  0.58800  0.03540  Biso   1.000  C
  C48      1.0000 0.78400  0.41200  0.96460  Biso   1.000  C
  H43      1.0000 0.22526  0.65369  0.07460  Biso   1.000  H
  H44      1.0000 0.77474  0.34631  0.92540  Biso   1.000  H
  N13      1.0000 0.29800  0.45340  0.02950  Biso   1.000  N
  N14      1.0000 0.70200  0.54660  0.97050  Biso   1.000  N
  C49      1.0000 0.31400  0.34220  0.96950  Biso   1.000  C
  C50      1.0000 0.68600  0.65780  0.03050  Biso   1.000  C
  H45      1.0000 0.38145  0.25889  0.98404  Biso   1.000  H
  H46      1.0000 0.61855  0.74111  0.01596  Biso   1.000  H
  H47      1.0000 0.20839  0.32420  0.96976  Biso   1.000  H
  H48      1.0000 0.79161  0.67580  0.03024  Biso   1.000  H
  H49      1.0000 0.36108  0.36850  0.91432  Biso   1.000  H
  H50      1.0000 0.63892  0.63150  0.08568  Biso   1.000  H
  C51      1.0000 0.39400  0.41200  0.09150  Biso   1.000  C
  C52      1.0000 0.60600  0.58800  0.90850  Biso   1.000  C
  H51      1.0000 0.44719  0.31498  0.08143  Biso   1.000  H
  H52      1.0000 0.55281  0.68502  0.91857  Biso   1.000  H
  H53      1.0000 0.47447  0.46874  0.08710  Biso   1.000  H
  H54      1.0000 0.52553  0.53126  0.91290  Biso   1.000  H
  H55      1.0000 0.32541  0.42595  0.14702  Biso   1.000  H
  H56      1.0000 0.67459  0.57405  0.85298  Biso   1.000  H
  O15      1.0000 0.98220  0.86030  0.10040  Biso   1.000  O
  O16      1.0000 0.01780  0.13970  0.89960  Biso   1.000  O
  H57      1.0000 0.95500  0.79800  0.13400  Biso   1.000  H
  H58      1.0000 0.04500  0.20200  0.86600  Biso   1.000  H
  H59      1.0000 0.99900  0.81600  0.05300  Biso   1.000  H
  H60      1.0000 0.00100  0.18400  0.94700  Biso   1.000  H
