data_image0
_cell_length_a       15.3404
_cell_length_b       11.0521
_cell_length_c       20.93
_cell_angle_alpha    90
_cell_angle_beta     102.584
_cell_angle_gamma    90

_symmetry_space_group_name_H-M    "P 1"
_symmetry_int_tables_number       1

loop_
  _symmetry_equiv_pos_as_xyz
  'x, y, z'

loop_
  _atom_site_label
  _atom_site_occupancy
  _atom_site_fract_x
  _atom_site_fract_y
  _atom_site_fract_z
  _atom_site_thermal_displace_type
  _atom_site_B_iso_or_equiv
  _atom_site_type_symbol
  Cu1      1.0000 0.75000  0.25000  0.50000  Biso   1.000  Cu
  Cu2      1.0000 0.25000  0.25000  0.00000  Biso   1.000  Cu
  Cu3      1.0000 0.25000  0.75000  0.50000  Biso   1.000  Cu
  Cu4      1.0000 0.75000  0.75000  0.00000  Biso   1.000  Cu
  Cl1      1.0000 0.87125  0.20069  0.77255  Biso   1.000  Cl
  Cl2      1.0000 0.12875  0.20069  0.72745  Biso   1.000  Cl
  Cl3      1.0000 0.37125  0.70069  0.77255  Biso   1.000  Cl
  Cl4      1.0000 0.62875  0.70069  0.72745  Biso   1.000  Cl
  Cl5      1.0000 0.12875  0.79931  0.22745  Biso   1.000  Cl
  Cl6      1.0000 0.87125  0.79931  0.27255  Biso   1.000  Cl
  Cl7      1.0000 0.62875  0.29931  0.22745  Biso   1.000  Cl
  Cl8      1.0000 0.37125  0.29931  0.27255  Biso   1.000  Cl
  Cl9      1.0000 0.02936  0.92769  0.61151  Biso   1.000  Cl
  Cl10     1.0000 0.97064  0.92769  0.88849  Biso   1.000  Cl
  Cl11     1.0000 0.52936  0.42769  0.61151  Biso   1.000  Cl
  Cl12     1.0000 0.47064  0.42769  0.88849  Biso   1.000  Cl
  Cl13     1.0000 0.97064  0.07231  0.38849  Biso   1.000  Cl
  Cl14     1.0000 0.02936  0.07231  0.11151  Biso   1.000  Cl
  Cl15     1.0000 0.47064  0.57231  0.38849  Biso   1.000  Cl
  Cl16     1.0000 0.52936  0.57231  0.11151  Biso   1.000  Cl
  Cl17     1.0000 0.00000  0.45731  0.75000  Biso   1.000  Cl
  Cl18     1.0000 0.50000  0.95731  0.75000  Biso   1.000  Cl
  Cl19     1.0000 0.00000  0.54269  0.25000  Biso   1.000  Cl
  Cl20     1.0000 0.50000  0.04269  0.25000  Biso   1.000  Cl
  Cl21     1.0000 0.18122  0.87287  0.78203  Biso   1.000  Cl
  Cl22     1.0000 0.81878  0.87287  0.71797  Biso   1.000  Cl
  Cl23     1.0000 0.68122  0.37287  0.78203  Biso   1.000  Cl
  Cl24     1.0000 0.31878  0.37287  0.71797  Biso   1.000  Cl
  Cl25     1.0000 0.81878  0.12713  0.21797  Biso   1.000  Cl
  Cl26     1.0000 0.18122  0.12713  0.28203  Biso   1.000  Cl
  Cl27     1.0000 0.31878  0.62713  0.21797  Biso   1.000  Cl
  Cl28     1.0000 0.68122  0.62713  0.28203  Biso   1.000  Cl
  F1       1.0000 0.52099  0.09460  0.60073  Biso   1.000  F
  F2       1.0000 0.47901  0.09460  0.89927  Biso   1.000  F
  F3       1.0000 0.02099  0.59460  0.60073  Biso   1.000  F
  F4       1.0000 0.97901  0.59460  0.89927  Biso   1.000  F
  F5       1.0000 0.47901  0.90540  0.39927  Biso   1.000  F
  F6       1.0000 0.52099  0.90540  0.10073  Biso   1.000  F
  F7       1.0000 0.97901  0.40540  0.39927  Biso   1.000  F
  F8       1.0000 0.02099  0.40540  0.10073  Biso   1.000  F
  F9       1.0000 0.54300  0.91190  0.57776  Biso   1.000  F
  F10      1.0000 0.45700  0.91190  0.92224  Biso   1.000  F
  F11      1.0000 0.04300  0.41190  0.57776  Biso   1.000  F
  F12      1.0000 0.95700  0.41190  0.92224  Biso   1.000  F
  F13      1.0000 0.45700  0.08810  0.42224  Biso   1.000  F
  F14      1.0000 0.54300  0.08810  0.07776  Biso   1.000  F
  F15      1.0000 0.95700  0.58810  0.42224  Biso   1.000  F
  F16      1.0000 0.04300  0.58810  0.07776  Biso   1.000  F
  F17      1.0000 0.63748  0.00520  0.65297  Biso   1.000  F
  F18      1.0000 0.36252  0.00520  0.84703  Biso   1.000  F
  F19      1.0000 0.13748  0.50520  0.65297  Biso   1.000  F
  F20      1.0000 0.86252  0.50520  0.84703  Biso   1.000  F
  F21      1.0000 0.36252  0.99480  0.34703  Biso   1.000  F
  F22      1.0000 0.63748  0.99480  0.15297  Biso   1.000  F
  F23      1.0000 0.86252  0.49480  0.34703  Biso   1.000  F
  F24      1.0000 0.13748  0.49480  0.15297  Biso   1.000  F
  F25      1.0000 0.84086  0.86220  0.45847  Biso   1.000  F
  F26      1.0000 0.15914  0.86220  0.04153  Biso   1.000  F
  F27      1.0000 0.34086  0.36220  0.45847  Biso   1.000  F
  F28      1.0000 0.65914  0.36220  0.04153  Biso   1.000  F
  F29      1.0000 0.15914  0.13780  0.54153  Biso   1.000  F
  F30      1.0000 0.84086  0.13780  0.95847  Biso   1.000  F
  F31      1.0000 0.65914  0.63780  0.54153  Biso   1.000  F
  F32      1.0000 0.34086  0.63780  0.95847  Biso   1.000  F
  F33      1.0000 0.75849  0.92460  0.36831  Biso   1.000  F
  F34      1.0000 0.24151  0.92460  0.13169  Biso   1.000  F
  F35      1.0000 0.25849  0.42460  0.36831  Biso   1.000  F
  F36      1.0000 0.74151  0.42460  0.13169  Biso   1.000  F
  F37      1.0000 0.24151  0.07540  0.63169  Biso   1.000  F
  F38      1.0000 0.75849  0.07540  0.86831  Biso   1.000  F
  F39      1.0000 0.74151  0.57540  0.63169  Biso   1.000  F
  F40      1.0000 0.25849  0.57540  0.86831  Biso   1.000  F
  F41      1.0000 0.70738  0.79350  0.42721  Biso   1.000  F
  F42      1.0000 0.29262  0.79350  0.07279  Biso   1.000  F
  F43      1.0000 0.20738  0.29350  0.42721  Biso   1.000  F
  F44      1.0000 0.79262  0.29350  0.07279  Biso   1.000  F
  F45      1.0000 0.29262  0.20650  0.57279  Biso   1.000  F
  F46      1.0000 0.70738  0.20650  0.92721  Biso   1.000  F
  F47      1.0000 0.79262  0.70650  0.57279  Biso   1.000  F
  F48      1.0000 0.20738  0.70650  0.92721  Biso   1.000  F
  O1       1.0000 0.65108  0.17150  0.54614  Biso   1.000  O
  O2       1.0000 0.34892  0.17150  0.95386  Biso   1.000  O
  O3       1.0000 0.15108  0.67150  0.54614  Biso   1.000  O
  O4       1.0000 0.84892  0.67150  0.95386  Biso   1.000  O
  O5       1.0000 0.34892  0.82850  0.45386  Biso   1.000  O
  O6       1.0000 0.65108  0.82850  0.04614  Biso   1.000  O
  O7       1.0000 0.84892  0.32850  0.45386  Biso   1.000  O
  O8       1.0000 0.15108  0.32850  0.04614  Biso   1.000  O
  O9       1.0000 0.75814  0.09791  0.45393  Biso   1.000  O
  O10      1.0000 0.24186  0.09791  0.04607  Biso   1.000  O
  O11      1.0000 0.25814  0.59791  0.45393  Biso   1.000  O
  O12      1.0000 0.74186  0.59791  0.04607  Biso   1.000  O
  O13      1.0000 0.24186  0.90209  0.54607  Biso   1.000  O
  O14      1.0000 0.75814  0.90209  0.95393  Biso   1.000  O
  O15      1.0000 0.74186  0.40209  0.54607  Biso   1.000  O
  O16      1.0000 0.25814  0.40209  0.95393  Biso   1.000  O
  N1       1.0000 0.84860  0.18510  0.58213  Biso   1.000  N
  N2       1.0000 0.15140  0.18510  0.91787  Biso   1.000  N
  N3       1.0000 0.34860  0.68510  0.58213  Biso   1.000  N
  N4       1.0000 0.65140  0.68510  0.91787  Biso   1.000  N
  N5       1.0000 0.15140  0.81490  0.41787  Biso   1.000  N
  N6       1.0000 0.84860  0.81490  0.08213  Biso   1.000  N
  N7       1.0000 0.65140  0.31490  0.41787  Biso   1.000  N
  N8       1.0000 0.34860  0.31490  0.08213  Biso   1.000  N
  C1       1.0000 0.00000  0.99990  0.75000  Biso   1.000  C
  C2       1.0000 0.50000  0.49990  0.75000  Biso   1.000  C
  C3       1.0000 0.00000  0.00010  0.25000  Biso   1.000  C
  C4       1.0000 0.50000  0.50010  0.25000  Biso   1.000  C
  C5       1.0000 0.84180  0.21560  0.64294  Biso   1.000  C
  C6       1.0000 0.15820  0.21560  0.85706  Biso   1.000  C
  C7       1.0000 0.34180  0.71560  0.64294  Biso   1.000  C
  C8       1.0000 0.65820  0.71560  0.85706  Biso   1.000  C
  C9       1.0000 0.15820  0.78440  0.35706  Biso   1.000  C
  C10      1.0000 0.84180  0.78440  0.14294  Biso   1.000  C
  C11      1.0000 0.65820  0.28440  0.35706  Biso   1.000  C
  C12      1.0000 0.34180  0.28440  0.14294  Biso   1.000  C
  H1       1.0000 0.80140  0.27790  0.64850  Biso   1.000  H
  H2       1.0000 0.19860  0.27790  0.85150  Biso   1.000  H
  H3       1.0000 0.30140  0.77790  0.64850  Biso   1.000  H
  H4       1.0000 0.69860  0.77790  0.85150  Biso   1.000  H
  H5       1.0000 0.19860  0.72210  0.35150  Biso   1.000  H
  H6       1.0000 0.80140  0.72210  0.14850  Biso   1.000  H
  H7       1.0000 0.69860  0.22210  0.35150  Biso   1.000  H
  H8       1.0000 0.30140  0.22210  0.14850  Biso   1.000  H
  C13      1.0000 0.89170  0.15920  0.69751  Biso   1.000  C
  C14      1.0000 0.10830  0.15920  0.80249  Biso   1.000  C
  C15      1.0000 0.39170  0.65920  0.69751  Biso   1.000  C
  C16      1.0000 0.60830  0.65920  0.80249  Biso   1.000  C
  C17      1.0000 0.10830  0.84080  0.30249  Biso   1.000  C
  C18      1.0000 0.89170  0.84080  0.19751  Biso   1.000  C
  C19      1.0000 0.60830  0.34080  0.30249  Biso   1.000  C
  C20      1.0000 0.39170  0.34080  0.19751  Biso   1.000  C
  C21      1.0000 0.95080  0.06480  0.69273  Biso   1.000  C
  C22      1.0000 0.04920  0.06480  0.80727  Biso   1.000  C
  C23      1.0000 0.45080  0.56480  0.69273  Biso   1.000  C
  C24      1.0000 0.54920  0.56480  0.80727  Biso   1.000  C
  C25      1.0000 0.04920  0.93520  0.30727  Biso   1.000  C
  C26      1.0000 0.95080  0.93520  0.19273  Biso   1.000  C
  C27      1.0000 0.54920  0.43520  0.30727  Biso   1.000  C
  C28      1.0000 0.45080  0.43520  0.19273  Biso   1.000  C
  C29      1.0000 0.95670  0.03630  0.62828  Biso   1.000  C
  C30      1.0000 0.04330  0.03630  0.87172  Biso   1.000  C
  C31      1.0000 0.45670  0.53630  0.62828  Biso   1.000  C
  C32      1.0000 0.54330  0.53630  0.87172  Biso   1.000  C
  C33      1.0000 0.04330  0.96370  0.37172  Biso   1.000  C
  C34      1.0000 0.95670  0.96370  0.12828  Biso   1.000  C
  C35      1.0000 0.54330  0.46370  0.37172  Biso   1.000  C
  C36      1.0000 0.45670  0.46370  0.12828  Biso   1.000  C
  C37      1.0000 0.90620  0.09810  0.57545  Biso   1.000  C
  C38      1.0000 0.09380  0.09810  0.92455  Biso   1.000  C
  C39      1.0000 0.40620  0.59810  0.57545  Biso   1.000  C
  C40      1.0000 0.59380  0.59810  0.92455  Biso   1.000  C
  C41      1.0000 0.09380  0.90190  0.42455  Biso   1.000  C
  C42      1.0000 0.90620  0.90190  0.07545  Biso   1.000  C
  C43      1.0000 0.59380  0.40190  0.42455  Biso   1.000  C
  C44      1.0000 0.40620  0.40190  0.07545  Biso   1.000  C
  H9       1.0000 0.91290  0.07770  0.53270  Biso   1.000  H
  H10      1.0000 0.08710  0.07770  0.96730  Biso   1.000  H
  H11      1.0000 0.41290  0.57770  0.53270  Biso   1.000  H
  H12      1.0000 0.58710  0.57770  0.96730  Biso   1.000  H
  H13      1.0000 0.08710  0.92230  0.46730  Biso   1.000  H
  H14      1.0000 0.91290  0.92230  0.03270  Biso   1.000  H
  H15      1.0000 0.58710  0.42230  0.46730  Biso   1.000  H
  H16      1.0000 0.41290  0.42230  0.03270  Biso   1.000  H
  C45      1.0000 0.00000  0.61420  0.75000  Biso   1.000  C
  C46      1.0000 0.50000  0.11420  0.75000  Biso   1.000  C
  C47      1.0000 0.00000  0.38580  0.25000  Biso   1.000  C
  C48      1.0000 0.50000  0.88580  0.25000  Biso   1.000  C
  C49      1.0000 0.08000  0.67460  0.76553  Biso   1.000  C
  C50      1.0000 0.92000  0.67460  0.73447  Biso   1.000  C
  C51      1.0000 0.58000  0.17460  0.76553  Biso   1.000  C
  C52      1.0000 0.42000  0.17460  0.73447  Biso   1.000  C
  C53      1.0000 0.92000  0.32540  0.23447  Biso   1.000  C
  C54      1.0000 0.08000  0.32540  0.26553  Biso   1.000  C
  C55      1.0000 0.42000  0.82540  0.23447  Biso   1.000  C
  C56      1.0000 0.58000  0.82540  0.26553  Biso   1.000  C
  H17      1.0000 0.13480  0.63140  0.77590  Biso   1.000  H
  H18      1.0000 0.86520  0.63140  0.72410  Biso   1.000  H
  H19      1.0000 0.63480  0.13140  0.77590  Biso   1.000  H
  H20      1.0000 0.36520  0.13140  0.72410  Biso   1.000  H
  H21      1.0000 0.86520  0.36860  0.22410  Biso   1.000  H
  H22      1.0000 0.13480  0.36860  0.27590  Biso   1.000  H
  H23      1.0000 0.36520  0.86860  0.22410  Biso   1.000  H
  H24      1.0000 0.63480  0.86860  0.27590  Biso   1.000  H
  C57      1.0000 0.07910  0.79970  0.76578  Biso   1.000  C
  C58      1.0000 0.92090  0.79970  0.73422  Biso   1.000  C
  C59      1.0000 0.57910  0.29970  0.76578  Biso   1.000  C
  C60      1.0000 0.42090  0.29970  0.73422  Biso   1.000  C
  C61      1.0000 0.92090  0.20030  0.23422  Biso   1.000  C
  C62      1.0000 0.07910  0.20030  0.26578  Biso   1.000  C
  C63      1.0000 0.42090  0.70030  0.23422  Biso   1.000  C
  C64      1.0000 0.57910  0.70030  0.26578  Biso   1.000  C
  C65      1.0000 0.00000  0.86720  0.75000  Biso   1.000  C
  C66      1.0000 0.50000  0.36720  0.75000  Biso   1.000  C
  C67      1.0000 0.00000  0.13280  0.25000  Biso   1.000  C
  C68      1.0000 0.50000  0.63280  0.25000  Biso   1.000  C
  C69      1.0000 0.58350  0.01680  0.59410  Biso   1.000  C
  C70      1.0000 0.41650  0.01680  0.90590  Biso   1.000  C
  C71      1.0000 0.08350  0.51680  0.59410  Biso   1.000  C
  C72      1.0000 0.91650  0.51680  0.90590  Biso   1.000  C
  C73      1.0000 0.41650  0.98320  0.40590  Biso   1.000  C
  C74      1.0000 0.58350  0.98320  0.09410  Biso   1.000  C
  C75      1.0000 0.91650  0.48320  0.40590  Biso   1.000  C
  C76      1.0000 0.08350  0.48320  0.09410  Biso   1.000  C
  C77      1.0000 0.63800  0.06060  0.54546  Biso   1.000  C
  C78      1.0000 0.36200  0.06060  0.95454  Biso   1.000  C
  C79      1.0000 0.13800  0.56060  0.54546  Biso   1.000  C
  C80      1.0000 0.86200  0.56060  0.95454  Biso   1.000  C
  C81      1.0000 0.36200  0.93940  0.45454  Biso   1.000  C
  C82      1.0000 0.63800  0.93940  0.04546  Biso   1.000  C
  C83      1.0000 0.86200  0.43940  0.45454  Biso   1.000  C
  C84      1.0000 0.13800  0.43940  0.04546  Biso   1.000  C
  C85      1.0000 0.67080  0.97170  0.50816  Biso   1.000  C
  C86      1.0000 0.32920  0.97170  0.99184  Biso   1.000  C
  C87      1.0000 0.17080  0.47170  0.50816  Biso   1.000  C
  C88      1.0000 0.82920  0.47170  0.99184  Biso   1.000  C
  C89      1.0000 0.32920  0.02830  0.49184  Biso   1.000  C
  C90      1.0000 0.67080  0.02830  0.00816  Biso   1.000  C
  C91      1.0000 0.82920  0.52830  0.49184  Biso   1.000  C
  C92      1.0000 0.17080  0.52830  0.00816  Biso   1.000  C
  H25      1.0000 0.65420  0.88980  0.51230  Biso   1.000  H
  H26      1.0000 0.34580  0.88980  0.98770  Biso   1.000  H
  H27      1.0000 0.15420  0.38980  0.51230  Biso   1.000  H
  H28      1.0000 0.84580  0.38980  0.98770  Biso   1.000  H
  H29      1.0000 0.34580  0.11020  0.48770  Biso   1.000  H
  H30      1.0000 0.65420  0.11020  0.01230  Biso   1.000  H
  H31      1.0000 0.84580  0.61020  0.48770  Biso   1.000  H
  H32      1.0000 0.15420  0.61020  0.01230  Biso   1.000  H
  C93      1.0000 0.72560  0.99830  0.46622  Biso   1.000  C
  C94      1.0000 0.27440  0.99830  0.03378  Biso   1.000  C
  C95      1.0000 0.22560  0.49830  0.46622  Biso   1.000  C
  C96      1.0000 0.77440  0.49830  0.03378  Biso   1.000  C
  C97      1.0000 0.27440  0.00170  0.53378  Biso   1.000  C
  C98      1.0000 0.72560  0.00170  0.96622  Biso   1.000  C
  C99      1.0000 0.77440  0.50170  0.53378  Biso   1.000  C
  C100     1.0000 0.22560  0.50170  0.96622  Biso   1.000  C
  C101     1.0000 0.75800  0.89250  0.42979  Biso   1.000  C
  C102     1.0000 0.24200  0.89250  0.07021  Biso   1.000  C
  C103     1.0000 0.25800  0.39250  0.42979  Biso   1.000  C
  C104     1.0000 0.74200  0.39250  0.07021  Biso   1.000  C
  C105     1.0000 0.24200  0.10750  0.57021  Biso   1.000  C
  C106     1.0000 0.75800  0.10750  0.92979  Biso   1.000  C
  C107     1.0000 0.74200  0.60750  0.57021  Biso   1.000  C
  C108     1.0000 0.25800  0.60750  0.92979  Biso   1.000  C
