data_image0
_cell_length_a       15.3428
_cell_length_b       11.0604
_cell_length_c       20.949
_cell_angle_alpha    90
_cell_angle_beta     102.478
_cell_angle_gamma    90

_symmetry_space_group_name_H-M    "P 1"
_symmetry_int_tables_number       1

loop_
  _symmetry_equiv_pos_as_xyz
  'x, y, z'

loop_
  _atom_site_label
  _atom_site_occupancy
  _atom_site_fract_x
  _atom_site_fract_y
  _atom_site_fract_z
  _atom_site_thermal_displace_type
  _atom_site_B_iso_or_equiv
  _atom_site_type_symbol
  Cu1      1.0000 0.75000  0.25000  0.50000  Biso   1.000  Cu
  Cu2      1.0000 0.25000  0.25000  0.00000  Biso   1.000  Cu
  Cu3      1.0000 0.25000  0.75000  0.50000  Biso   1.000  Cu
  Cu4      1.0000 0.75000  0.75000  0.00000  Biso   1.000  Cu
  Cl1      1.0000 0.62874  0.20088  0.22760  Biso   1.000  Cl
  Cl2      1.0000 0.37126  0.20088  0.27240  Biso   1.000  Cl
  Cl3      1.0000 0.12874  0.70088  0.22760  Biso   1.000  Cl
  Cl4      1.0000 0.87126  0.70088  0.27240  Biso   1.000  Cl
  Cl5      1.0000 0.37126  0.79912  0.77240  Biso   1.000  Cl
  Cl6      1.0000 0.62874  0.79912  0.72760  Biso   1.000  Cl
  Cl7      1.0000 0.87126  0.29912  0.77240  Biso   1.000  Cl
  Cl8      1.0000 0.12874  0.29912  0.72760  Biso   1.000  Cl
  Cl9      1.0000 0.47054  0.92762  0.38829  Biso   1.000  Cl
  Cl10     1.0000 0.52946  0.92762  0.11171  Biso   1.000  Cl
  Cl11     1.0000 0.97054  0.42762  0.38829  Biso   1.000  Cl
  Cl12     1.0000 0.02946  0.42762  0.11171  Biso   1.000  Cl
  Cl13     1.0000 0.52946  0.07238  0.61171  Biso   1.000  Cl
  Cl14     1.0000 0.47054  0.07238  0.88829  Biso   1.000  Cl
  Cl15     1.0000 0.02946  0.57238  0.61171  Biso   1.000  Cl
  Cl16     1.0000 0.97054  0.57238  0.88829  Biso   1.000  Cl
  Cl17     1.0000 0.50000  0.45789  0.25000  Biso   1.000  Cl
  Cl18     1.0000 0.00000  0.95789  0.25000  Biso   1.000  Cl
  Cl19     1.0000 0.50000  0.54211  0.75000  Biso   1.000  Cl
  Cl20     1.0000 0.00000  0.04211  0.75000  Biso   1.000  Cl
  Cl21     1.0000 0.68118  0.87292  0.28207  Biso   1.000  Cl
  Cl22     1.0000 0.31882  0.87292  0.21793  Biso   1.000  Cl
  Cl23     1.0000 0.18118  0.37292  0.28207  Biso   1.000  Cl
  Cl24     1.0000 0.81882  0.37292  0.21793  Biso   1.000  Cl
  Cl25     1.0000 0.31882  0.12708  0.71793  Biso   1.000  Cl
  Cl26     1.0000 0.68118  0.12708  0.78207  Biso   1.000  Cl
  Cl27     1.0000 0.81882  0.62708  0.71793  Biso   1.000  Cl
  Cl28     1.0000 0.18118  0.62708  0.78207  Biso   1.000  Cl
  F1       1.0000 0.97850  0.09520  0.39951  Biso   1.000  F
  F2       1.0000 0.02150  0.09520  0.10049  Biso   1.000  F
  F3       1.0000 0.47850  0.59520  0.39951  Biso   1.000  F
  F4       1.0000 0.52150  0.59520  0.10049  Biso   1.000  F
  F5       1.0000 0.02150  0.90480  0.60049  Biso   1.000  F
  F6       1.0000 0.97850  0.90480  0.89951  Biso   1.000  F
  F7       1.0000 0.52150  0.40480  0.60049  Biso   1.000  F
  F8       1.0000 0.47850  0.40480  0.89951  Biso   1.000  F
  F9       1.0000 0.95660  0.91260  0.42214  Biso   1.000  F
  F10      1.0000 0.04340  0.91260  0.07786  Biso   1.000  F
  F11      1.0000 0.45660  0.41260  0.42214  Biso   1.000  F
  F12      1.0000 0.54340  0.41260  0.07786  Biso   1.000  F
  F13      1.0000 0.04340  0.08740  0.57786  Biso   1.000  F
  F14      1.0000 0.95660  0.08740  0.92214  Biso   1.000  F
  F15      1.0000 0.54340  0.58740  0.57786  Biso   1.000  F
  F16      1.0000 0.45660  0.58740  0.92214  Biso   1.000  F
  F17      1.0000 0.86229  0.00670  0.34709  Biso   1.000  F
  F18      1.0000 0.13771  0.00670  0.15291  Biso   1.000  F
  F19      1.0000 0.36229  0.50670  0.34709  Biso   1.000  F
  F20      1.0000 0.63771  0.50670  0.15291  Biso   1.000  F
  F21      1.0000 0.13771  0.99330  0.65291  Biso   1.000  F
  F22      1.0000 0.86229  0.99330  0.84709  Biso   1.000  F
  F23      1.0000 0.63771  0.49330  0.65291  Biso   1.000  F
  F24      1.0000 0.36229  0.49330  0.84709  Biso   1.000  F
  F25      1.0000 0.65890  0.86200  0.54163  Biso   1.000  F
  F26      1.0000 0.34110  0.86200  0.95837  Biso   1.000  F
  F27      1.0000 0.15890  0.36200  0.54163  Biso   1.000  F
  F28      1.0000 0.84110  0.36200  0.95837  Biso   1.000  F
  F29      1.0000 0.34110  0.13800  0.45837  Biso   1.000  F
  F30      1.0000 0.65890  0.13800  0.04163  Biso   1.000  F
  F31      1.0000 0.84110  0.63800  0.45837  Biso   1.000  F
  F32      1.0000 0.15890  0.63800  0.04163  Biso   1.000  F
  F33      1.0000 0.74146  0.92460  0.63162  Biso   1.000  F
  F34      1.0000 0.25854  0.92460  0.86838  Biso   1.000  F
  F35      1.0000 0.24146  0.42460  0.63162  Biso   1.000  F
  F36      1.0000 0.75854  0.42460  0.86838  Biso   1.000  F
  F37      1.0000 0.25854  0.07540  0.36838  Biso   1.000  F
  F38      1.0000 0.74146  0.07540  0.13162  Biso   1.000  F
  F39      1.0000 0.75854  0.57540  0.36838  Biso   1.000  F
  F40      1.0000 0.24146  0.57540  0.13162  Biso   1.000  F
  F41      1.0000 0.79231  0.79390  0.57272  Biso   1.000  F
  F42      1.0000 0.20769  0.79390  0.92728  Biso   1.000  F
  F43      1.0000 0.29231  0.29390  0.57272  Biso   1.000  F
  F44      1.0000 0.70769  0.29390  0.92728  Biso   1.000  F
  F45      1.0000 0.20769  0.20610  0.42728  Biso   1.000  F
  F46      1.0000 0.79231  0.20610  0.07272  Biso   1.000  F
  F47      1.0000 0.70769  0.70610  0.42728  Biso   1.000  F
  F48      1.0000 0.29231  0.70610  0.07272  Biso   1.000  F
  O1       1.0000 0.84850  0.17180  0.45394  Biso   1.000  O
  O2       1.0000 0.15150  0.17180  0.04606  Biso   1.000  O
  O3       1.0000 0.34850  0.67180  0.45394  Biso   1.000  O
  O4       1.0000 0.65150  0.67180  0.04606  Biso   1.000  O
  O5       1.0000 0.15150  0.82820  0.54606  Biso   1.000  O
  O6       1.0000 0.84850  0.82820  0.95394  Biso   1.000  O
  O7       1.0000 0.65150  0.32820  0.54606  Biso   1.000  O
  O8       1.0000 0.34850  0.32820  0.95394  Biso   1.000  O
  O9       1.0000 0.74146  0.09767  0.54605  Biso   1.000  O
  O10      1.0000 0.25854  0.09767  0.95395  Biso   1.000  O
  O11      1.0000 0.24146  0.59767  0.54605  Biso   1.000  O
  O12      1.0000 0.75854  0.59767  0.95395  Biso   1.000  O
  O13      1.0000 0.25854  0.90233  0.45395  Biso   1.000  O
  O14      1.0000 0.74146  0.90233  0.04605  Biso   1.000  O
  O15      1.0000 0.75854  0.40233  0.45395  Biso   1.000  O
  O16      1.0000 0.24146  0.40233  0.04605  Biso   1.000  O
  N1       1.0000 0.65160  0.18510  0.41757  Biso   1.000  N
  N2       1.0000 0.34840  0.18510  0.08243  Biso   1.000  N
  N3       1.0000 0.15160  0.68510  0.41757  Biso   1.000  N
  N4       1.0000 0.84840  0.68510  0.08243  Biso   1.000  N
  N5       1.0000 0.34840  0.81490  0.58243  Biso   1.000  N
  N6       1.0000 0.65160  0.81490  0.91757  Biso   1.000  N
  N7       1.0000 0.84840  0.31490  0.58243  Biso   1.000  N
  N8       1.0000 0.15160  0.31490  0.91757  Biso   1.000  N
  C1       1.0000 0.50000  0.99980  0.25000  Biso   1.000  C
  C2       1.0000 0.00000  0.49980  0.25000  Biso   1.000  C
  C3       1.0000 0.50000  0.00020  0.75000  Biso   1.000  C
  C4       1.0000 0.00000  0.50020  0.75000  Biso   1.000  C
  C5       1.0000 0.65780  0.21560  0.35718  Biso   1.000  C
  C6       1.0000 0.34220  0.21560  0.14282  Biso   1.000  C
  C7       1.0000 0.15780  0.71560  0.35718  Biso   1.000  C
  C8       1.0000 0.84220  0.71560  0.14282  Biso   1.000  C
  C9       1.0000 0.34220  0.78440  0.64282  Biso   1.000  C
  C10      1.0000 0.65780  0.78440  0.85718  Biso   1.000  C
  C11      1.0000 0.84220  0.28440  0.64282  Biso   1.000  C
  C12      1.0000 0.15780  0.28440  0.85718  Biso   1.000  C
  H1       1.0000 0.69760  0.27860  0.35170  Biso   1.000  H
  H2       1.0000 0.30240  0.27860  0.14830  Biso   1.000  H
  H3       1.0000 0.19760  0.77860  0.35170  Biso   1.000  H
  H4       1.0000 0.80240  0.77860  0.14830  Biso   1.000  H
  H5       1.0000 0.30240  0.72140  0.64830  Biso   1.000  H
  H6       1.0000 0.69760  0.72140  0.85170  Biso   1.000  H
  H7       1.0000 0.80240  0.22140  0.64830  Biso   1.000  H
  H8       1.0000 0.19760  0.22140  0.85170  Biso   1.000  H
  C13      1.0000 0.60870  0.15910  0.30236  Biso   1.000  C
  C14      1.0000 0.39130  0.15910  0.19764  Biso   1.000  C
  C15      1.0000 0.10870  0.65910  0.30236  Biso   1.000  C
  C16      1.0000 0.89130  0.65910  0.19764  Biso   1.000  C
  C17      1.0000 0.39130  0.84090  0.69764  Biso   1.000  C
  C18      1.0000 0.60870  0.84090  0.80236  Biso   1.000  C
  C19      1.0000 0.89130  0.34090  0.69764  Biso   1.000  C
  C20      1.0000 0.10870  0.34090  0.80236  Biso   1.000  C
  C21      1.0000 0.54920  0.06490  0.30736  Biso   1.000  C
  C22      1.0000 0.45080  0.06490  0.19264  Biso   1.000  C
  C23      1.0000 0.04920  0.56490  0.30736  Biso   1.000  C
  C24      1.0000 0.95080  0.56490  0.19264  Biso   1.000  C
  C25      1.0000 0.45080  0.93510  0.69264  Biso   1.000  C
  C26      1.0000 0.54920  0.93510  0.80736  Biso   1.000  C
  C27      1.0000 0.95080  0.43510  0.69264  Biso   1.000  C
  C28      1.0000 0.04920  0.43510  0.80736  Biso   1.000  C
  C29      1.0000 0.54290  0.03670  0.37174  Biso   1.000  C
  C30      1.0000 0.45710  0.03670  0.12826  Biso   1.000  C
  C31      1.0000 0.04290  0.53670  0.37174  Biso   1.000  C
  C32      1.0000 0.95710  0.53670  0.12826  Biso   1.000  C
  C33      1.0000 0.45710  0.96330  0.62826  Biso   1.000  C
  C34      1.0000 0.54290  0.96330  0.87174  Biso   1.000  C
  C35      1.0000 0.95710  0.46330  0.62826  Biso   1.000  C
  C36      1.0000 0.04290  0.46330  0.87174  Biso   1.000  C
  C37      1.0000 0.59320  0.09800  0.42431  Biso   1.000  C
  C38      1.0000 0.40680  0.09800  0.07569  Biso   1.000  C
  C39      1.0000 0.09320  0.59800  0.42431  Biso   1.000  C
  C40      1.0000 0.90680  0.59800  0.07569  Biso   1.000  C
  C41      1.0000 0.40680  0.90200  0.57569  Biso   1.000  C
  C42      1.0000 0.59320  0.90200  0.92431  Biso   1.000  C
  C43      1.0000 0.90680  0.40200  0.57569  Biso   1.000  C
  C44      1.0000 0.09320  0.40200  0.92431  Biso   1.000  C
  H9       1.0000 0.58640  0.07780  0.46700  Biso   1.000  H
  H10      1.0000 0.41360  0.07780  0.03300  Biso   1.000  H
  H11      1.0000 0.08640  0.57780  0.46700  Biso   1.000  H
  H12      1.0000 0.91360  0.57780  0.03300  Biso   1.000  H
  H13      1.0000 0.41360  0.92220  0.53300  Biso   1.000  H
  H14      1.0000 0.58640  0.92220  0.96700  Biso   1.000  H
  H15      1.0000 0.91360  0.42220  0.53300  Biso   1.000  H
  H16      1.0000 0.08640  0.42220  0.96700  Biso   1.000  H
  C45      1.0000 0.50000  0.61500  0.25000  Biso   1.000  C
  C46      1.0000 0.00000  0.11500  0.25000  Biso   1.000  C
  C47      1.0000 0.50000  0.38500  0.75000  Biso   1.000  C
  C48      1.0000 0.00000  0.88500  0.75000  Biso   1.000  C
  C49      1.0000 0.58020  0.67490  0.26552  Biso   1.000  C
  C50      1.0000 0.41980  0.67490  0.23448  Biso   1.000  C
  C51      1.0000 0.08020  0.17490  0.26552  Biso   1.000  C
  C52      1.0000 0.91980  0.17490  0.23448  Biso   1.000  C
  C53      1.0000 0.41980  0.32510  0.73448  Biso   1.000  C
  C54      1.0000 0.58020  0.32510  0.76552  Biso   1.000  C
  C55      1.0000 0.91980  0.82510  0.73448  Biso   1.000  C
  C56      1.0000 0.08020  0.82510  0.76552  Biso   1.000  C
  H17      1.0000 0.63490  0.63160  0.27580  Biso   1.000  H
  H18      1.0000 0.36510  0.63160  0.22420  Biso   1.000  H
  H19      1.0000 0.13490  0.13160  0.27580  Biso   1.000  H
  H20      1.0000 0.86510  0.13160  0.22420  Biso   1.000  H
  H21      1.0000 0.36510  0.36840  0.72420  Biso   1.000  H
  H22      1.0000 0.63490  0.36840  0.77580  Biso   1.000  H
  H23      1.0000 0.86510  0.86840  0.72420  Biso   1.000  H
  H24      1.0000 0.13490  0.86840  0.77580  Biso   1.000  H
  C57      1.0000 0.57910  0.79980  0.26573  Biso   1.000  C
  C58      1.0000 0.42090  0.79980  0.23427  Biso   1.000  C
  C59      1.0000 0.07910  0.29980  0.26573  Biso   1.000  C
  C60      1.0000 0.92090  0.29980  0.23427  Biso   1.000  C
  C61      1.0000 0.42090  0.20020  0.73427  Biso   1.000  C
  C62      1.0000 0.57910  0.20020  0.76573  Biso   1.000  C
  C63      1.0000 0.92090  0.70020  0.73427  Biso   1.000  C
  C64      1.0000 0.07910  0.70020  0.76573  Biso   1.000  C
  C65      1.0000 0.50000  0.86740  0.25000  Biso   1.000  C
  C66      1.0000 0.00000  0.36740  0.25000  Biso   1.000  C
  C67      1.0000 0.50000  0.13260  0.75000  Biso   1.000  C
  C68      1.0000 0.00000  0.63260  0.75000  Biso   1.000  C
  C69      1.0000 0.91550  0.01760  0.40600  Biso   1.000  C
  C70      1.0000 0.08450  0.01760  0.09400  Biso   1.000  C
  C71      1.0000 0.41550  0.51760  0.40600  Biso   1.000  C
  C72      1.0000 0.58450  0.51760  0.09400  Biso   1.000  C
  C73      1.0000 0.08450  0.98240  0.59400  Biso   1.000  C
  C74      1.0000 0.91550  0.98240  0.90600  Biso   1.000  C
  C75      1.0000 0.58450  0.48240  0.59400  Biso   1.000  C
  C76      1.0000 0.41550  0.48240  0.90600  Biso   1.000  C
  C77      1.0000 0.86150  0.06110  0.45483  Biso   1.000  C
  C78      1.0000 0.13850  0.06110  0.04517  Biso   1.000  C
  C79      1.0000 0.36150  0.56110  0.45483  Biso   1.000  C
  C80      1.0000 0.63850  0.56110  0.04517  Biso   1.000  C
  C81      1.0000 0.13850  0.93890  0.54517  Biso   1.000  C
  C82      1.0000 0.86150  0.93890  0.95483  Biso   1.000  C
  C83      1.0000 0.63850  0.43890  0.54517  Biso   1.000  C
  C84      1.0000 0.36150  0.43890  0.95483  Biso   1.000  C
  C85      1.0000 0.82900  0.97240  0.49168  Biso   1.000  C
  C86      1.0000 0.17100  0.97240  0.00832  Biso   1.000  C
  C87      1.0000 0.32900  0.47240  0.49168  Biso   1.000  C
  C88      1.0000 0.67100  0.47240  0.00832  Biso   1.000  C
  C89      1.0000 0.17100  0.02760  0.50832  Biso   1.000  C
  C90      1.0000 0.82900  0.02760  0.99168  Biso   1.000  C
  C91      1.0000 0.67100  0.52760  0.50832  Biso   1.000  C
  C92      1.0000 0.32900  0.52760  0.99168  Biso   1.000  C
  H25      1.0000 0.84620  0.89070  0.48750  Biso   1.000  H
  H26      1.0000 0.15380  0.89070  0.01250  Biso   1.000  H
  H27      1.0000 0.34620  0.39070  0.48750  Biso   1.000  H
  H28      1.0000 0.65380  0.39070  0.01250  Biso   1.000  H
  H29      1.0000 0.15380  0.10930  0.51250  Biso   1.000  H
  H30      1.0000 0.84620  0.10930  0.98750  Biso   1.000  H
  H31      1.0000 0.65380  0.60930  0.51250  Biso   1.000  H
  H32      1.0000 0.34620  0.60930  0.98750  Biso   1.000  H
  C93      1.0000 0.77370  0.99780  0.53352  Biso   1.000  C
  C94      1.0000 0.22630  0.99780  0.96648  Biso   1.000  C
  C95      1.0000 0.27370  0.49780  0.53352  Biso   1.000  C
  C96      1.0000 0.72630  0.49780  0.96648  Biso   1.000  C
  C97      1.0000 0.22630  0.00220  0.46648  Biso   1.000  C
  C98      1.0000 0.77370  0.00220  0.03352  Biso   1.000  C
  C99      1.0000 0.72630  0.50220  0.46648  Biso   1.000  C
  C100     1.0000 0.27370  0.50220  0.03352  Biso   1.000  C
  C101     1.0000 0.74200  0.89320  0.57026  Biso   1.000  C
  C102     1.0000 0.25800  0.89320  0.92974  Biso   1.000  C
  C103     1.0000 0.24200  0.39320  0.57026  Biso   1.000  C
  C104     1.0000 0.75800  0.39320  0.92974  Biso   1.000  C
  C105     1.0000 0.25800  0.10680  0.42974  Biso   1.000  C
  C106     1.0000 0.74200  0.10680  0.07026  Biso   1.000  C
  C107     1.0000 0.75800  0.60680  0.42974  Biso   1.000  C
  C108     1.0000 0.24200  0.60680  0.07026  Biso   1.000  C
