data_image0
_cell_length_a       15.353
_cell_length_b       11.028
_cell_length_c       20.812
_cell_angle_alpha    90
_cell_angle_beta     102.899
_cell_angle_gamma    90

_symmetry_space_group_name_H-M    "P 1"
_symmetry_int_tables_number       1

loop_
  _symmetry_equiv_pos_as_xyz
  'x, y, z'

loop_
  _atom_site_label
  _atom_site_occupancy
  _atom_site_fract_x
  _atom_site_fract_y
  _atom_site_fract_z
  _atom_site_thermal_displace_type
  _atom_site_B_iso_or_equiv
  _atom_site_type_symbol
  Cu1      1.0000 0.25000  0.25000  0.50000  Biso   1.000  Cu
  Cu2      1.0000 0.75000  0.25000  0.00000  Biso   1.000  Cu
  Cu3      1.0000 0.75000  0.75000  0.50000  Biso   1.000  Cu
  Cu4      1.0000 0.25000  0.75000  0.00000  Biso   1.000  Cu
  Cl1      1.0000 0.12879  0.20040  0.22693  Biso   1.000  Cl
  Cl2      1.0000 0.87121  0.20040  0.27307  Biso   1.000  Cl
  Cl3      1.0000 0.62879  0.70040  0.22693  Biso   1.000  Cl
  Cl4      1.0000 0.37121  0.70040  0.27307  Biso   1.000  Cl
  Cl5      1.0000 0.87121  0.79960  0.77307  Biso   1.000  Cl
  Cl6      1.0000 0.12879  0.79960  0.72693  Biso   1.000  Cl
  Cl7      1.0000 0.37121  0.29960  0.77307  Biso   1.000  Cl
  Cl8      1.0000 0.62879  0.29960  0.72693  Biso   1.000  Cl
  Cl9      1.0000 0.97139  0.92862  0.38950  Biso   1.000  Cl
  Cl10     1.0000 0.02861  0.92862  0.11050  Biso   1.000  Cl
  Cl11     1.0000 0.47139  0.42862  0.38950  Biso   1.000  Cl
  Cl12     1.0000 0.52861  0.42862  0.11050  Biso   1.000  Cl
  Cl13     1.0000 0.02861  0.07138  0.61050  Biso   1.000  Cl
  Cl14     1.0000 0.97139  0.07138  0.88950  Biso   1.000  Cl
  Cl15     1.0000 0.52861  0.57138  0.61050  Biso   1.000  Cl
  Cl16     1.0000 0.47139  0.57138  0.88950  Biso   1.000  Cl
  Cl17     1.0000 0.00000  0.45574  0.25000  Biso   1.000  Cl
  Cl18     1.0000 0.50000  0.95574  0.25000  Biso   1.000  Cl
  Cl19     1.0000 0.00000  0.54426  0.75000  Biso   1.000  Cl
  Cl20     1.0000 0.50000  0.04426  0.75000  Biso   1.000  Cl
  Cl21     1.0000 0.18145  0.87259  0.28137  Biso   1.000  Cl
  Cl22     1.0000 0.81855  0.87259  0.21863  Biso   1.000  Cl
  Cl23     1.0000 0.68145  0.37259  0.28137  Biso   1.000  Cl
  Cl24     1.0000 0.31855  0.37259  0.21863  Biso   1.000  Cl
  Cl25     1.0000 0.81855  0.12741  0.71863  Biso   1.000  Cl
  Cl26     1.0000 0.18145  0.12741  0.78137  Biso   1.000  Cl
  Cl27     1.0000 0.31855  0.62741  0.71863  Biso   1.000  Cl
  Cl28     1.0000 0.68145  0.62741  0.78137  Biso   1.000  Cl
  F1       1.0000 0.48023  0.09200  0.39776  Biso   1.000  F
  F2       1.0000 0.51977  0.09200  0.10224  Biso   1.000  F
  F3       1.0000 0.98023  0.59200  0.39776  Biso   1.000  F
  F4       1.0000 0.01977  0.59200  0.10224  Biso   1.000  F
  F5       1.0000 0.51977  0.90800  0.60224  Biso   1.000  F
  F6       1.0000 0.48023  0.90800  0.89776  Biso   1.000  F
  F7       1.0000 0.01977  0.40800  0.60224  Biso   1.000  F
  F8       1.0000 0.98023  0.40800  0.89776  Biso   1.000  F
  F9       1.0000 0.45918  0.90860  0.42311  Biso   1.000  F
  F10      1.0000 0.54082  0.90860  0.07689  Biso   1.000  F
  F11      1.0000 0.95918  0.40860  0.42311  Biso   1.000  F
  F12      1.0000 0.04082  0.40860  0.07689  Biso   1.000  F
  F13      1.0000 0.54082  0.09140  0.57689  Biso   1.000  F
  F14      1.0000 0.45918  0.09140  0.92311  Biso   1.000  F
  F15      1.0000 0.04082  0.59140  0.57689  Biso   1.000  F
  F16      1.0000 0.95918  0.59140  0.92311  Biso   1.000  F
  F17      1.0000 0.36323  0.99980  0.34643  Biso   1.000  F
  F18      1.0000 0.63677  0.99980  0.15357  Biso   1.000  F
  F19      1.0000 0.86323  0.49980  0.34643  Biso   1.000  F
  F20      1.0000 0.13677  0.49980  0.15357  Biso   1.000  F
  F21      1.0000 0.63677  0.00020  0.65357  Biso   1.000  F
  F22      1.0000 0.36323  0.00020  0.84643  Biso   1.000  F
  F23      1.0000 0.13677  0.50020  0.65357  Biso   1.000  F
  F24      1.0000 0.86323  0.50020  0.84643  Biso   1.000  F
  F25      1.0000 0.15915  0.86150  0.54025  Biso   1.000  F
  F26      1.0000 0.84085  0.86150  0.95975  Biso   1.000  F
  F27      1.0000 0.65915  0.36150  0.54025  Biso   1.000  F
  F28      1.0000 0.34085  0.36150  0.95975  Biso   1.000  F
  F29      1.0000 0.84085  0.13850  0.45975  Biso   1.000  F
  F30      1.0000 0.15915  0.13850  0.04025  Biso   1.000  F
  F31      1.0000 0.34085  0.63850  0.45975  Biso   1.000  F
  F32      1.0000 0.65915  0.63850  0.04025  Biso   1.000  F
  F33      1.0000 0.24146  0.92316  0.63188  Biso   1.000  F
  F34      1.0000 0.75854  0.92316  0.86812  Biso   1.000  F
  F35      1.0000 0.74146  0.42316  0.63188  Biso   1.000  F
  F36      1.0000 0.25854  0.42316  0.86812  Biso   1.000  F
  F37      1.0000 0.75854  0.07684  0.36812  Biso   1.000  F
  F38      1.0000 0.24146  0.07684  0.13188  Biso   1.000  F
  F39      1.0000 0.25854  0.57684  0.36812  Biso   1.000  F
  F40      1.0000 0.74146  0.57684  0.13188  Biso   1.000  F
  F41      1.0000 0.29262  0.79157  0.57279  Biso   1.000  F
  F42      1.0000 0.70738  0.79157  0.92721  Biso   1.000  F
  F43      1.0000 0.79262  0.29157  0.57279  Biso   1.000  F
  F44      1.0000 0.20738  0.29157  0.92721  Biso   1.000  F
  F45      1.0000 0.70738  0.20843  0.42721  Biso   1.000  F
  F46      1.0000 0.29262  0.20843  0.07279  Biso   1.000  F
  F47      1.0000 0.20738  0.70843  0.42721  Biso   1.000  F
  F48      1.0000 0.79262  0.70843  0.07279  Biso   1.000  F
  O1       1.0000 0.35286  0.17064  0.45382  Biso   1.000  O
  O2       1.0000 0.64714  0.17064  0.04618  Biso   1.000  O
  O3       1.0000 0.85286  0.67064  0.45382  Biso   1.000  O
  O4       1.0000 0.14714  0.67064  0.04618  Biso   1.000  O
  O5       1.0000 0.64714  0.82936  0.54618  Biso   1.000  O
  O6       1.0000 0.35286  0.82936  0.95382  Biso   1.000  O
  O7       1.0000 0.14714  0.32936  0.54618  Biso   1.000  O
  O8       1.0000 0.85286  0.32936  0.95382  Biso   1.000  O
  O9       1.0000 0.24356  0.09751  0.54643  Biso   1.000  O
  O10      1.0000 0.75644  0.09751  0.95357  Biso   1.000  O
  O11      1.0000 0.74356  0.59751  0.54643  Biso   1.000  O
  O12      1.0000 0.25644  0.59751  0.95357  Biso   1.000  O
  O13      1.0000 0.75644  0.90249  0.45357  Biso   1.000  O
  O14      1.0000 0.24356  0.90249  0.04643  Biso   1.000  O
  O15      1.0000 0.25644  0.40249  0.45357  Biso   1.000  O
  O16      1.0000 0.74356  0.40249  0.04643  Biso   1.000  O
  N1       1.0000 0.15448  0.18420  0.41864  Biso   1.000  N
  N2       1.0000 0.84552  0.18420  0.08136  Biso   1.000  N
  N3       1.0000 0.65448  0.68420  0.41864  Biso   1.000  N
  N4       1.0000 0.34552  0.68420  0.08136  Biso   1.000  N
  N5       1.0000 0.84552  0.81580  0.58136  Biso   1.000  N
  N6       1.0000 0.15448  0.81580  0.91864  Biso   1.000  N
  N7       1.0000 0.34552  0.31580  0.58136  Biso   1.000  N
  N8       1.0000 0.65448  0.31580  0.91864  Biso   1.000  N
  C1       1.0000 0.00000  0.99960  0.25000  Biso   1.000  C
  C2       1.0000 0.50000  0.49960  0.25000  Biso   1.000  C
  C3       1.0000 0.00000  0.00040  0.75000  Biso   1.000  C
  C4       1.0000 0.50000  0.50040  0.75000  Biso   1.000  C
  C5       1.0000 0.16070  0.21490  0.35761  Biso   1.000  C
  C6       1.0000 0.83930  0.21490  0.14239  Biso   1.000  C
  C7       1.0000 0.66070  0.71490  0.35761  Biso   1.000  C
  C8       1.0000 0.33930  0.71490  0.14239  Biso   1.000  C
  C9       1.0000 0.83930  0.78510  0.64239  Biso   1.000  C
  C10      1.0000 0.16070  0.78510  0.85761  Biso   1.000  C
  C11      1.0000 0.33930  0.28510  0.64239  Biso   1.000  C
  C12      1.0000 0.66070  0.28510  0.85761  Biso   1.000  C
  H1       1.0000 0.20140  0.27690  0.35200  Biso   1.000  H
  H2       1.0000 0.79860  0.27690  0.14800  Biso   1.000  H
  H3       1.0000 0.70140  0.77690  0.35200  Biso   1.000  H
  H4       1.0000 0.29860  0.77690  0.14800  Biso   1.000  H
  H5       1.0000 0.79860  0.72310  0.64800  Biso   1.000  H
  H6       1.0000 0.20140  0.72310  0.85200  Biso   1.000  H
  H7       1.0000 0.29860  0.22310  0.64800  Biso   1.000  H
  H8       1.0000 0.70140  0.22310  0.85200  Biso   1.000  H
  C13      1.0000 0.10970  0.15900  0.30258  Biso   1.000  C
  C14      1.0000 0.89030  0.15900  0.19742  Biso   1.000  C
  C15      1.0000 0.60970  0.65900  0.30258  Biso   1.000  C
  C16      1.0000 0.39030  0.65900  0.19742  Biso   1.000  C
  C17      1.0000 0.89030  0.84100  0.69742  Biso   1.000  C
  C18      1.0000 0.10970  0.84100  0.80258  Biso   1.000  C
  C19      1.0000 0.39030  0.34100  0.69742  Biso   1.000  C
  C20      1.0000 0.60970  0.34100  0.80258  Biso   1.000  C
  C21      1.0000 0.04986  0.06460  0.30755  Biso   1.000  C
  C22      1.0000 0.95014  0.06460  0.19245  Biso   1.000  C
  C23      1.0000 0.54986  0.56460  0.30755  Biso   1.000  C
  C24      1.0000 0.45014  0.56460  0.19245  Biso   1.000  C
  C25      1.0000 0.95014  0.93540  0.69245  Biso   1.000  C
  C26      1.0000 0.04986  0.93540  0.80755  Biso   1.000  C
  C27      1.0000 0.45014  0.43540  0.69245  Biso   1.000  C
  C28      1.0000 0.54986  0.43540  0.80755  Biso   1.000  C
  C29      1.0000 0.04444  0.03670  0.37257  Biso   1.000  C
  C30      1.0000 0.95556  0.03670  0.12743  Biso   1.000  C
  C31      1.0000 0.54444  0.53670  0.37257  Biso   1.000  C
  C32      1.0000 0.45556  0.53670  0.12743  Biso   1.000  C
  C33      1.0000 0.95556  0.96330  0.62743  Biso   1.000  C
  C34      1.0000 0.04444  0.96330  0.87257  Biso   1.000  C
  C35      1.0000 0.45556  0.46330  0.62743  Biso   1.000  C
  C36      1.0000 0.54444  0.46330  0.87257  Biso   1.000  C
  C37      1.0000 0.09580  0.09790  0.42592  Biso   1.000  C
  C38      1.0000 0.90420  0.09790  0.07408  Biso   1.000  C
  C39      1.0000 0.59580  0.59790  0.42592  Biso   1.000  C
  C40      1.0000 0.40420  0.59790  0.07408  Biso   1.000  C
  C41      1.0000 0.90420  0.90210  0.57408  Biso   1.000  C
  C42      1.0000 0.09580  0.90210  0.92592  Biso   1.000  C
  C43      1.0000 0.40420  0.40210  0.57408  Biso   1.000  C
  C44      1.0000 0.59580  0.40210  0.92592  Biso   1.000  C
  H9       1.0000 0.08930  0.07810  0.46900  Biso   1.000  H
  H10      1.0000 0.91070  0.07810  0.03100  Biso   1.000  H
  H11      1.0000 0.58930  0.57810  0.46900  Biso   1.000  H
  H12      1.0000 0.41070  0.57810  0.03100  Biso   1.000  H
  H13      1.0000 0.91070  0.92190  0.53100  Biso   1.000  H
  H14      1.0000 0.08930  0.92190  0.96900  Biso   1.000  H
  H15      1.0000 0.41070  0.42190  0.53100  Biso   1.000  H
  H16      1.0000 0.58930  0.42190  0.96900  Biso   1.000  H
  C45      1.0000 0.00000  0.61250  0.25000  Biso   1.000  C
  C46      1.0000 0.50000  0.11250  0.25000  Biso   1.000  C
  C47      1.0000 0.00000  0.38750  0.75000  Biso   1.000  C
  C48      1.0000 0.50000  0.88750  0.75000  Biso   1.000  C
  C49      1.0000 0.08010  0.67350  0.26521  Biso   1.000  C
  C50      1.0000 0.91990  0.67350  0.23479  Biso   1.000  C
  C51      1.0000 0.58010  0.17350  0.26521  Biso   1.000  C
  C52      1.0000 0.41990  0.17350  0.23479  Biso   1.000  C
  C53      1.0000 0.91990  0.32650  0.73479  Biso   1.000  C
  C54      1.0000 0.08010  0.32650  0.76521  Biso   1.000  C
  C55      1.0000 0.41990  0.82650  0.73479  Biso   1.000  C
  C56      1.0000 0.58010  0.82650  0.76521  Biso   1.000  C
  H17      1.0000 0.13490  0.63030  0.27510  Biso   1.000  H
  H18      1.0000 0.86510  0.63030  0.22490  Biso   1.000  H
  H19      1.0000 0.63490  0.13030  0.27510  Biso   1.000  H
  H20      1.0000 0.36510  0.13030  0.22490  Biso   1.000  H
  H21      1.0000 0.86510  0.36970  0.72490  Biso   1.000  H
  H22      1.0000 0.13490  0.36970  0.77510  Biso   1.000  H
  H23      1.0000 0.36510  0.86970  0.72490  Biso   1.000  H
  H24      1.0000 0.63490  0.86970  0.77510  Biso   1.000  H
  C57      1.0000 0.07940  0.79910  0.26586  Biso   1.000  C
  C58      1.0000 0.92060  0.79910  0.23414  Biso   1.000  C
  C59      1.0000 0.57940  0.29910  0.26586  Biso   1.000  C
  C60      1.0000 0.42060  0.29910  0.23414  Biso   1.000  C
  C61      1.0000 0.92060  0.20090  0.73414  Biso   1.000  C
  C62      1.0000 0.07940  0.20090  0.76586  Biso   1.000  C
  C63      1.0000 0.42060  0.70090  0.73414  Biso   1.000  C
  C64      1.0000 0.57940  0.70090  0.76586  Biso   1.000  C
  C65      1.0000 0.00000  0.86590  0.25000  Biso   1.000  C
  C66      1.0000 0.50000  0.36590  0.25000  Biso   1.000  C
  C67      1.0000 0.00000  0.13410  0.75000  Biso   1.000  C
  C68      1.0000 0.50000  0.63410  0.75000  Biso   1.000  C
  C69      1.0000 0.41810  0.01390  0.40559  Biso   1.000  C
  C70      1.0000 0.58190  0.01390  0.09441  Biso   1.000  C
  C71      1.0000 0.91810  0.51390  0.40559  Biso   1.000  C
  C72      1.0000 0.08190  0.51390  0.09441  Biso   1.000  C
  C73      1.0000 0.58190  0.98610  0.59441  Biso   1.000  C
  C74      1.0000 0.41810  0.98610  0.90559  Biso   1.000  C
  C75      1.0000 0.08190  0.48610  0.59441  Biso   1.000  C
  C76      1.0000 0.91810  0.48610  0.90559  Biso   1.000  C
  C77      1.0000 0.36420  0.05960  0.45448  Biso   1.000  C
  C78      1.0000 0.63580  0.05960  0.04552  Biso   1.000  C
  C79      1.0000 0.86420  0.55960  0.45448  Biso   1.000  C
  C80      1.0000 0.13580  0.55960  0.04552  Biso   1.000  C
  C81      1.0000 0.63580  0.94040  0.54552  Biso   1.000  C
  C82      1.0000 0.36420  0.94040  0.95448  Biso   1.000  C
  C83      1.0000 0.13580  0.44040  0.54552  Biso   1.000  C
  C84      1.0000 0.86420  0.44040  0.95448  Biso   1.000  C
  C85      1.0000 0.33090  0.97020  0.49176  Biso   1.000  C
  C86      1.0000 0.66910  0.97020  0.00824  Biso   1.000  C
  C87      1.0000 0.83090  0.47020  0.49176  Biso   1.000  C
  C88      1.0000 0.16910  0.47020  0.00824  Biso   1.000  C
  C89      1.0000 0.66910  0.02980  0.50824  Biso   1.000  C
  C90      1.0000 0.33090  0.02980  0.99176  Biso   1.000  C
  C91      1.0000 0.16910  0.52980  0.50824  Biso   1.000  C
  C92      1.0000 0.83090  0.52980  0.99176  Biso   1.000  C
  H25      1.0000 0.34730  0.88790  0.48760  Biso   1.000  H
  H26      1.0000 0.65270  0.88790  0.01240  Biso   1.000  H
  H27      1.0000 0.84730  0.38790  0.48760  Biso   1.000  H
  H28      1.0000 0.15270  0.38790  0.01240  Biso   1.000  H
  H29      1.0000 0.65270  0.11210  0.51240  Biso   1.000  H
  H30      1.0000 0.34730  0.11210  0.98760  Biso   1.000  H
  H31      1.0000 0.15270  0.61210  0.51240  Biso   1.000  H
  H32      1.0000 0.84730  0.61210  0.98760  Biso   1.000  H
  C93      1.0000 0.27570  0.99740  0.53371  Biso   1.000  C
  C94      1.0000 0.72430  0.99740  0.96629  Biso   1.000  C
  C95      1.0000 0.77570  0.49740  0.53371  Biso   1.000  C
  C96      1.0000 0.22430  0.49740  0.96629  Biso   1.000  C
  C97      1.0000 0.72430  0.00260  0.46629  Biso   1.000  C
  C98      1.0000 0.27570  0.00260  0.03371  Biso   1.000  C
  C99      1.0000 0.22430  0.50260  0.46629  Biso   1.000  C
  C100     1.0000 0.77570  0.50260  0.03371  Biso   1.000  C
  C101     1.0000 0.24300  0.89200  0.57014  Biso   1.000  C
  C102     1.0000 0.75700  0.89200  0.92986  Biso   1.000  C
  C103     1.0000 0.74300  0.39200  0.57014  Biso   1.000  C
  C104     1.0000 0.25700  0.39200  0.92986  Biso   1.000  C
  C105     1.0000 0.75700  0.10800  0.42986  Biso   1.000  C
  C106     1.0000 0.24300  0.10800  0.07014  Biso   1.000  C
  C107     1.0000 0.25700  0.60800  0.42986  Biso   1.000  C
  C108     1.0000 0.74300  0.60800  0.07014  Biso   1.000  C
