data_image0
_cell_length_a       15.3431
_cell_length_b       11.0404
_cell_length_c       20.877
_cell_angle_alpha    90
_cell_angle_beta     102.735
_cell_angle_gamma    90

_symmetry_space_group_name_H-M    "P 1"
_symmetry_int_tables_number       1

loop_
  _symmetry_equiv_pos_as_xyz
  'x, y, z'

loop_
  _atom_site_label
  _atom_site_occupancy
  _atom_site_fract_x
  _atom_site_fract_y
  _atom_site_fract_z
  _atom_site_thermal_displace_type
  _atom_site_B_iso_or_equiv
  _atom_site_type_symbol
  Cu1      1.0000 0.75000  0.25000  0.50000  Biso   1.000  Cu
  Cu2      1.0000 0.25000  0.25000  0.00000  Biso   1.000  Cu
  Cu3      1.0000 0.25000  0.75000  0.50000  Biso   1.000  Cu
  Cu4      1.0000 0.75000  0.75000  0.00000  Biso   1.000  Cu
  Cl1      1.0000 0.62883  0.20047  0.22725  Biso   1.000  Cl
  Cl2      1.0000 0.37117  0.20047  0.27275  Biso   1.000  Cl
  Cl3      1.0000 0.12883  0.70047  0.22725  Biso   1.000  Cl
  Cl4      1.0000 0.87117  0.70047  0.27275  Biso   1.000  Cl
  Cl5      1.0000 0.37117  0.79953  0.77275  Biso   1.000  Cl
  Cl6      1.0000 0.62883  0.79953  0.72725  Biso   1.000  Cl
  Cl7      1.0000 0.87117  0.29953  0.77275  Biso   1.000  Cl
  Cl8      1.0000 0.12883  0.29953  0.72725  Biso   1.000  Cl
  Cl9      1.0000 0.47089  0.92806  0.38896  Biso   1.000  Cl
  Cl10     1.0000 0.52911  0.92806  0.11104  Biso   1.000  Cl
  Cl11     1.0000 0.97089  0.42806  0.38896  Biso   1.000  Cl
  Cl12     1.0000 0.02911  0.42806  0.11104  Biso   1.000  Cl
  Cl13     1.0000 0.52911  0.07194  0.61104  Biso   1.000  Cl
  Cl14     1.0000 0.47089  0.07194  0.88896  Biso   1.000  Cl
  Cl15     1.0000 0.02911  0.57194  0.61104  Biso   1.000  Cl
  Cl16     1.0000 0.97089  0.57194  0.88896  Biso   1.000  Cl
  Cl17     1.0000 0.50000  0.45643  0.25000  Biso   1.000  Cl
  Cl18     1.0000 0.00000  0.95643  0.25000  Biso   1.000  Cl
  Cl19     1.0000 0.50000  0.54357  0.75000  Biso   1.000  Cl
  Cl20     1.0000 0.00000  0.04357  0.75000  Biso   1.000  Cl
  Cl21     1.0000 0.68137  0.87266  0.28183  Biso   1.000  Cl
  Cl22     1.0000 0.31863  0.87266  0.21817  Biso   1.000  Cl
  Cl23     1.0000 0.18137  0.37266  0.28183  Biso   1.000  Cl
  Cl24     1.0000 0.81863  0.37266  0.21817  Biso   1.000  Cl
  Cl25     1.0000 0.31863  0.12734  0.71817  Biso   1.000  Cl
  Cl26     1.0000 0.68137  0.12734  0.78183  Biso   1.000  Cl
  Cl27     1.0000 0.81863  0.62734  0.71817  Biso   1.000  Cl
  Cl28     1.0000 0.18137  0.62734  0.78183  Biso   1.000  Cl
  F1       1.0000 0.97972  0.09380  0.39864  Biso   1.000  F
  F2       1.0000 0.02028  0.09380  0.10136  Biso   1.000  F
  F3       1.0000 0.47972  0.59380  0.39864  Biso   1.000  F
  F4       1.0000 0.52028  0.59380  0.10136  Biso   1.000  F
  F5       1.0000 0.02028  0.90620  0.60136  Biso   1.000  F
  F6       1.0000 0.97972  0.90620  0.89864  Biso   1.000  F
  F7       1.0000 0.52028  0.40620  0.60136  Biso   1.000  F
  F8       1.0000 0.47972  0.40620  0.89864  Biso   1.000  F
  F9       1.0000 0.95830  0.91050  0.42253  Biso   1.000  F
  F10      1.0000 0.04170  0.91050  0.07747  Biso   1.000  F
  F11      1.0000 0.45830  0.41050  0.42253  Biso   1.000  F
  F12      1.0000 0.54170  0.41050  0.07747  Biso   1.000  F
  F13      1.0000 0.04170  0.08950  0.57747  Biso   1.000  F
  F14      1.0000 0.95830  0.08950  0.92253  Biso   1.000  F
  F15      1.0000 0.54170  0.58950  0.57747  Biso   1.000  F
  F16      1.0000 0.45830  0.58950  0.92253  Biso   1.000  F
  F17      1.0000 0.86281  0.00250  0.34672  Biso   1.000  F
  F18      1.0000 0.13719  0.00250  0.15328  Biso   1.000  F
  F19      1.0000 0.36281  0.50250  0.34672  Biso   1.000  F
  F20      1.0000 0.63719  0.50250  0.15328  Biso   1.000  F
  F21      1.0000 0.13719  0.99750  0.65328  Biso   1.000  F
  F22      1.0000 0.86281  0.99750  0.84672  Biso   1.000  F
  F23      1.0000 0.63719  0.49750  0.65328  Biso   1.000  F
  F24      1.0000 0.36281  0.49750  0.84672  Biso   1.000  F
  F25      1.0000 0.65912  0.86171  0.54099  Biso   1.000  F
  F26      1.0000 0.34088  0.86171  0.95901  Biso   1.000  F
  F27      1.0000 0.15912  0.36171  0.54099  Biso   1.000  F
  F28      1.0000 0.84088  0.36171  0.95901  Biso   1.000  F
  F29      1.0000 0.34088  0.13829  0.45901  Biso   1.000  F
  F30      1.0000 0.65912  0.13829  0.04099  Biso   1.000  F
  F31      1.0000 0.84088  0.63829  0.45901  Biso   1.000  F
  F32      1.0000 0.15912  0.63829  0.04099  Biso   1.000  F
  F33      1.0000 0.74153  0.92368  0.63161  Biso   1.000  F
  F34      1.0000 0.25847  0.92368  0.86839  Biso   1.000  F
  F35      1.0000 0.24153  0.42368  0.63161  Biso   1.000  F
  F36      1.0000 0.75847  0.42368  0.86839  Biso   1.000  F
  F37      1.0000 0.25847  0.07632  0.36839  Biso   1.000  F
  F38      1.0000 0.74153  0.07632  0.13161  Biso   1.000  F
  F39      1.0000 0.75847  0.57632  0.36839  Biso   1.000  F
  F40      1.0000 0.24153  0.57632  0.13161  Biso   1.000  F
  F41      1.0000 0.79261  0.79237  0.57279  Biso   1.000  F
  F42      1.0000 0.20739  0.79237  0.92721  Biso   1.000  F
  F43      1.0000 0.29261  0.29237  0.57279  Biso   1.000  F
  F44      1.0000 0.70739  0.29237  0.92721  Biso   1.000  F
  F45      1.0000 0.20739  0.20763  0.42721  Biso   1.000  F
  F46      1.0000 0.79261  0.20763  0.07279  Biso   1.000  F
  F47      1.0000 0.70739  0.70763  0.42721  Biso   1.000  F
  F48      1.0000 0.29261  0.70763  0.07279  Biso   1.000  F
  O1       1.0000 0.85081  0.17108  0.45395  Biso   1.000  O
  O2       1.0000 0.14919  0.17108  0.04605  Biso   1.000  O
  O3       1.0000 0.35081  0.67108  0.45395  Biso   1.000  O
  O4       1.0000 0.64919  0.67108  0.04605  Biso   1.000  O
  O5       1.0000 0.14919  0.82892  0.54605  Biso   1.000  O
  O6       1.0000 0.85081  0.82892  0.95395  Biso   1.000  O
  O7       1.0000 0.64919  0.32892  0.54605  Biso   1.000  O
  O8       1.0000 0.35081  0.32892  0.95395  Biso   1.000  O
  O9       1.0000 0.74259  0.09775  0.54619  Biso   1.000  O
  O10      1.0000 0.25741  0.09775  0.95381  Biso   1.000  O
  O11      1.0000 0.24259  0.59775  0.54619  Biso   1.000  O
  O12      1.0000 0.75741  0.59775  0.95381  Biso   1.000  O
  O13      1.0000 0.25741  0.90225  0.45381  Biso   1.000  O
  O14      1.0000 0.74259  0.90225  0.04619  Biso   1.000  O
  O15      1.0000 0.75741  0.40225  0.45381  Biso   1.000  O
  O16      1.0000 0.24259  0.40225  0.04619  Biso   1.000  O
  N1       1.0000 0.65329  0.18490  0.41826  Biso   1.000  N
  N2       1.0000 0.34671  0.18490  0.08174  Biso   1.000  N
  N3       1.0000 0.15329  0.68490  0.41826  Biso   1.000  N
  N4       1.0000 0.84671  0.68490  0.08174  Biso   1.000  N
  N5       1.0000 0.34671  0.81510  0.58174  Biso   1.000  N
  N6       1.0000 0.65329  0.81510  0.91826  Biso   1.000  N
  N7       1.0000 0.84671  0.31510  0.58174  Biso   1.000  N
  N8       1.0000 0.15329  0.31510  0.91826  Biso   1.000  N
  C1       1.0000 0.50000  0.99930  0.25000  Biso   1.000  C
  C2       1.0000 0.00000  0.49930  0.25000  Biso   1.000  C
  C3       1.0000 0.50000  0.00070  0.75000  Biso   1.000  C
  C4       1.0000 0.00000  0.50070  0.75000  Biso   1.000  C
  C5       1.0000 0.65910  0.21560  0.35741  Biso   1.000  C
  C6       1.0000 0.34090  0.21560  0.14259  Biso   1.000  C
  C7       1.0000 0.15910  0.71560  0.35741  Biso   1.000  C
  C8       1.0000 0.84090  0.71560  0.14259  Biso   1.000  C
  C9       1.0000 0.34090  0.78440  0.64259  Biso   1.000  C
  C10      1.0000 0.65910  0.78440  0.85741  Biso   1.000  C
  C11      1.0000 0.84090  0.28440  0.64259  Biso   1.000  C
  C12      1.0000 0.15910  0.28440  0.85741  Biso   1.000  C
  H1       1.0000 0.69910  0.27850  0.35170  Biso   1.000  H
  H2       1.0000 0.30090  0.27850  0.14830  Biso   1.000  H
  H3       1.0000 0.19910  0.77850  0.35170  Biso   1.000  H
  H4       1.0000 0.80090  0.77850  0.14830  Biso   1.000  H
  H5       1.0000 0.30090  0.72150  0.64830  Biso   1.000  H
  H6       1.0000 0.69910  0.72150  0.85170  Biso   1.000  H
  H7       1.0000 0.80090  0.22150  0.64830  Biso   1.000  H
  H8       1.0000 0.19910  0.22150  0.85170  Biso   1.000  H
  C13      1.0000 0.60910  0.15900  0.30256  Biso   1.000  C
  C14      1.0000 0.39090  0.15900  0.19744  Biso   1.000  C
  C15      1.0000 0.10910  0.65900  0.30256  Biso   1.000  C
  C16      1.0000 0.89090  0.65900  0.19744  Biso   1.000  C
  C17      1.0000 0.39090  0.84100  0.69744  Biso   1.000  C
  C18      1.0000 0.60910  0.84100  0.80256  Biso   1.000  C
  C19      1.0000 0.89090  0.34100  0.69744  Biso   1.000  C
  C20      1.0000 0.10910  0.34100  0.80256  Biso   1.000  C
  C21      1.0000 0.54926  0.06430  0.30747  Biso   1.000  C
  C22      1.0000 0.45074  0.06430  0.19253  Biso   1.000  C
  C23      1.0000 0.04926  0.56430  0.30747  Biso   1.000  C
  C24      1.0000 0.95074  0.56430  0.19253  Biso   1.000  C
  C25      1.0000 0.45074  0.93570  0.69253  Biso   1.000  C
  C26      1.0000 0.54926  0.93570  0.80747  Biso   1.000  C
  C27      1.0000 0.95074  0.43570  0.69253  Biso   1.000  C
  C28      1.0000 0.04926  0.43570  0.80747  Biso   1.000  C
  C29      1.0000 0.54360  0.03680  0.37228  Biso   1.000  C
  C30      1.0000 0.45640  0.03680  0.12772  Biso   1.000  C
  C31      1.0000 0.04360  0.53680  0.37228  Biso   1.000  C
  C32      1.0000 0.95640  0.53680  0.12772  Biso   1.000  C
  C33      1.0000 0.45640  0.96320  0.62772  Biso   1.000  C
  C34      1.0000 0.54360  0.96320  0.87228  Biso   1.000  C
  C35      1.0000 0.95640  0.46320  0.62772  Biso   1.000  C
  C36      1.0000 0.04360  0.46320  0.87228  Biso   1.000  C
  C37      1.0000 0.59470  0.09820  0.42524  Biso   1.000  C
  C38      1.0000 0.40530  0.09820  0.07476  Biso   1.000  C
  C39      1.0000 0.09470  0.59820  0.42524  Biso   1.000  C
  C40      1.0000 0.90530  0.59820  0.07476  Biso   1.000  C
  C41      1.0000 0.40530  0.90180  0.57476  Biso   1.000  C
  C42      1.0000 0.59470  0.90180  0.92524  Biso   1.000  C
  C43      1.0000 0.90530  0.40180  0.57476  Biso   1.000  C
  C44      1.0000 0.09470  0.40180  0.92524  Biso   1.000  C
  H9       1.0000 0.58820  0.07830  0.46820  Biso   1.000  H
  H10      1.0000 0.41180  0.07830  0.03180  Biso   1.000  H
  H11      1.0000 0.08820  0.57830  0.46820  Biso   1.000  H
  H12      1.0000 0.91180  0.57830  0.03180  Biso   1.000  H
  H13      1.0000 0.41180  0.92170  0.53180  Biso   1.000  H
  H14      1.0000 0.58820  0.92170  0.96820  Biso   1.000  H
  H15      1.0000 0.91180  0.42170  0.53180  Biso   1.000  H
  H16      1.0000 0.08820  0.42170  0.96820  Biso   1.000  H
  C45      1.0000 0.50000  0.61340  0.25000  Biso   1.000  C
  C46      1.0000 0.00000  0.11340  0.25000  Biso   1.000  C
  C47      1.0000 0.50000  0.38660  0.75000  Biso   1.000  C
  C48      1.0000 0.00000  0.88660  0.75000  Biso   1.000  C
  C49      1.0000 0.58040  0.67370  0.26543  Biso   1.000  C
  C50      1.0000 0.41960  0.67370  0.23457  Biso   1.000  C
  C51      1.0000 0.08040  0.17370  0.26543  Biso   1.000  C
  C52      1.0000 0.91960  0.17370  0.23457  Biso   1.000  C
  C53      1.0000 0.41960  0.32630  0.73457  Biso   1.000  C
  C54      1.0000 0.58040  0.32630  0.76543  Biso   1.000  C
  C55      1.0000 0.91960  0.82630  0.73457  Biso   1.000  C
  C56      1.0000 0.08040  0.82630  0.76543  Biso   1.000  C
  H17      1.0000 0.63520  0.63040  0.27560  Biso   1.000  H
  H18      1.0000 0.36480  0.63040  0.22440  Biso   1.000  H
  H19      1.0000 0.13520  0.13040  0.27560  Biso   1.000  H
  H20      1.0000 0.86480  0.13040  0.22440  Biso   1.000  H
  H21      1.0000 0.36480  0.36960  0.72440  Biso   1.000  H
  H22      1.0000 0.63520  0.36960  0.77560  Biso   1.000  H
  H23      1.0000 0.86480  0.86960  0.72440  Biso   1.000  H
  H24      1.0000 0.13520  0.86960  0.77560  Biso   1.000  H
  C57      1.0000 0.57940  0.79920  0.26575  Biso   1.000  C
  C58      1.0000 0.42060  0.79920  0.23425  Biso   1.000  C
  C59      1.0000 0.07940  0.29920  0.26575  Biso   1.000  C
  C60      1.0000 0.92060  0.29920  0.23425  Biso   1.000  C
  C61      1.0000 0.42060  0.20080  0.73425  Biso   1.000  C
  C62      1.0000 0.57940  0.20080  0.76575  Biso   1.000  C
  C63      1.0000 0.92060  0.70080  0.73425  Biso   1.000  C
  C64      1.0000 0.07940  0.70080  0.76575  Biso   1.000  C
  C65      1.0000 0.50000  0.86690  0.25000  Biso   1.000  C
  C66      1.0000 0.00000  0.36690  0.25000  Biso   1.000  C
  C67      1.0000 0.50000  0.13310  0.75000  Biso   1.000  C
  C68      1.0000 0.00000  0.63310  0.75000  Biso   1.000  C
  C69      1.0000 0.91710  0.01550  0.40572  Biso   1.000  C
  C70      1.0000 0.08290  0.01550  0.09428  Biso   1.000  C
  C71      1.0000 0.41710  0.51550  0.40572  Biso   1.000  C
  C72      1.0000 0.58290  0.51550  0.09428  Biso   1.000  C
  C73      1.0000 0.08290  0.98450  0.59428  Biso   1.000  C
  C74      1.0000 0.91710  0.98450  0.90572  Biso   1.000  C
  C75      1.0000 0.58290  0.48450  0.59428  Biso   1.000  C
  C76      1.0000 0.41710  0.48450  0.90572  Biso   1.000  C
  C77      1.0000 0.86330  0.06030  0.45476  Biso   1.000  C
  C78      1.0000 0.13670  0.06030  0.04524  Biso   1.000  C
  C79      1.0000 0.36330  0.56030  0.45476  Biso   1.000  C
  C80      1.0000 0.63670  0.56030  0.04524  Biso   1.000  C
  C81      1.0000 0.13670  0.93970  0.54524  Biso   1.000  C
  C82      1.0000 0.86330  0.93970  0.95476  Biso   1.000  C
  C83      1.0000 0.63670  0.43970  0.54524  Biso   1.000  C
  C84      1.0000 0.36330  0.43970  0.95476  Biso   1.000  C
  C85      1.0000 0.83020  0.97110  0.49172  Biso   1.000  C
  C86      1.0000 0.16980  0.97110  0.00828  Biso   1.000  C
  C87      1.0000 0.33020  0.47110  0.49172  Biso   1.000  C
  C88      1.0000 0.66980  0.47110  0.00828  Biso   1.000  C
  C89      1.0000 0.16980  0.02890  0.50828  Biso   1.000  C
  C90      1.0000 0.83020  0.02890  0.99172  Biso   1.000  C
  C91      1.0000 0.66980  0.52890  0.50828  Biso   1.000  C
  C92      1.0000 0.33020  0.52890  0.99172  Biso   1.000  C
  H25      1.0000 0.84670  0.88910  0.48740  Biso   1.000  H
  H26      1.0000 0.15330  0.88910  0.01260  Biso   1.000  H
  H27      1.0000 0.34670  0.38910  0.48740  Biso   1.000  H
  H28      1.0000 0.65330  0.38910  0.01260  Biso   1.000  H
  H29      1.0000 0.15330  0.11090  0.51260  Biso   1.000  H
  H30      1.0000 0.84670  0.11090  0.98740  Biso   1.000  H
  H31      1.0000 0.65330  0.61090  0.51260  Biso   1.000  H
  H32      1.0000 0.34670  0.61090  0.98740  Biso   1.000  H
  C93      1.0000 0.77500  0.99780  0.53367  Biso   1.000  C
  C94      1.0000 0.22500  0.99780  0.96633  Biso   1.000  C
  C95      1.0000 0.27500  0.49780  0.53367  Biso   1.000  C
  C96      1.0000 0.72500  0.49780  0.96633  Biso   1.000  C
  C97      1.0000 0.22500  0.00220  0.46633  Biso   1.000  C
  C98      1.0000 0.77500  0.00220  0.03367  Biso   1.000  C
  C99      1.0000 0.72500  0.50220  0.46633  Biso   1.000  C
  C100     1.0000 0.27500  0.50220  0.03367  Biso   1.000  C
  C101     1.0000 0.74290  0.89190  0.57010  Biso   1.000  C
  C102     1.0000 0.25710  0.89190  0.92990  Biso   1.000  C
  C103     1.0000 0.24290  0.39190  0.57010  Biso   1.000  C
  C104     1.0000 0.75710  0.39190  0.92990  Biso   1.000  C
  C105     1.0000 0.25710  0.10810  0.42990  Biso   1.000  C
  C106     1.0000 0.74290  0.10810  0.07010  Biso   1.000  C
  C107     1.0000 0.75710  0.60810  0.42990  Biso   1.000  C
  C108     1.0000 0.24290  0.60810  0.07010  Biso   1.000  C
