data_image0
_cell_length_a       15.566
_cell_length_b       11.161
_cell_length_c       21.302
_cell_angle_alpha    90
_cell_angle_beta     102.022
_cell_angle_gamma    90

_symmetry_space_group_name_H-M    "P 1"
_symmetry_int_tables_number       1

loop_
  _symmetry_equiv_pos_as_xyz
  'x, y, z'

loop_
  _atom_site_label
  _atom_site_occupancy
  _atom_site_fract_x
  _atom_site_fract_y
  _atom_site_fract_z
  _atom_site_thermal_displace_type
  _atom_site_B_iso_or_equiv
  _atom_site_type_symbol
  Cu1      1.0000 0.25000  0.25000  0.50000  Biso   1.000  Cu
  Cu2      1.0000 0.75000  0.25000  0.00000  Biso   1.000  Cu
  Cu3      1.0000 0.75000  0.75000  0.50000  Biso   1.000  Cu
  Cu4      1.0000 0.25000  0.75000  0.00000  Biso   1.000  Cu
  Cl1      1.0000 0.12740  0.20265  0.22869  Biso   1.000  Cl
  Cl2      1.0000 0.87260  0.20265  0.27131  Biso   1.000  Cl
  Cl3      1.0000 0.62740  0.70265  0.22869  Biso   1.000  Cl
  Cl4      1.0000 0.37260  0.70265  0.27131  Biso   1.000  Cl
  Cl5      1.0000 0.87260  0.79735  0.77131  Biso   1.000  Cl
  Cl6      1.0000 0.12740  0.79735  0.72869  Biso   1.000  Cl
  Cl7      1.0000 0.37260  0.29735  0.77131  Biso   1.000  Cl
  Cl8      1.0000 0.62740  0.29735  0.72869  Biso   1.000  Cl
  Cl9      1.0000 0.97065  0.92718  0.38614  Biso   1.000  Cl
  Cl10     1.0000 0.02935  0.92718  0.11386  Biso   1.000  Cl
  Cl11     1.0000 0.47065  0.42718  0.38614  Biso   1.000  Cl
  Cl12     1.0000 0.52935  0.42718  0.11386  Biso   1.000  Cl
  Cl13     1.0000 0.02935  0.07282  0.61386  Biso   1.000  Cl
  Cl14     1.0000 0.97065  0.07282  0.88614  Biso   1.000  Cl
  Cl15     1.0000 0.52935  0.57282  0.61386  Biso   1.000  Cl
  Cl16     1.0000 0.47065  0.57282  0.88614  Biso   1.000  Cl
  Cl17     1.0000 0.00000  0.46490  0.25000  Biso   1.000  Cl
  Cl18     1.0000 0.50000  0.96490  0.25000  Biso   1.000  Cl
  Cl19     1.0000 0.00000  0.53510  0.75000  Biso   1.000  Cl
  Cl20     1.0000 0.50000  0.03510  0.75000  Biso   1.000  Cl
  Cl21     1.0000 0.17876  0.87448  0.28170  Biso   1.000  Cl
  Cl22     1.0000 0.82124  0.87448  0.21830  Biso   1.000  Cl
  Cl23     1.0000 0.67876  0.37448  0.28170  Biso   1.000  Cl
  Cl24     1.0000 0.32124  0.37448  0.21830  Biso   1.000  Cl
  Cl25     1.0000 0.82124  0.12552  0.71830  Biso   1.000  Cl
  Cl26     1.0000 0.17876  0.12552  0.78170  Biso   1.000  Cl
  Cl27     1.0000 0.32124  0.62552  0.71830  Biso   1.000  Cl
  Cl28     1.0000 0.67876  0.62552  0.78170  Biso   1.000  Cl
  F1       1.0000 0.47240  0.09900  0.40340  Biso   1.000  F
  F2       1.0000 0.52760  0.09900  0.09660  Biso   1.000  F
  F3       1.0000 0.97240  0.59900  0.40340  Biso   1.000  F
  F4       1.0000 0.02760  0.59900  0.09660  Biso   1.000  F
  F5       1.0000 0.52760  0.90100  0.59660  Biso   1.000  F
  F6       1.0000 0.47240  0.90100  0.90340  Biso   1.000  F
  F7       1.0000 0.02760  0.40100  0.59660  Biso   1.000  F
  F8       1.0000 0.97240  0.40100  0.90340  Biso   1.000  F
  F9       1.0000 0.44470  0.92210  0.41790  Biso   1.000  F
  F10      1.0000 0.55530  0.92210  0.08210  Biso   1.000  F
  F11      1.0000 0.94470  0.42210  0.41790  Biso   1.000  F
  F12      1.0000 0.05530  0.42210  0.08210  Biso   1.000  F
  F13      1.0000 0.55530  0.07790  0.58210  Biso   1.000  F
  F14      1.0000 0.44470  0.07790  0.91790  Biso   1.000  F
  F15      1.0000 0.05530  0.57790  0.58210  Biso   1.000  F
  F16      1.0000 0.94470  0.57790  0.91790  Biso   1.000  F
  F17      1.0000 0.36080  0.02250  0.34920  Biso   1.000  F
  F18      1.0000 0.63920  0.02250  0.15080  Biso   1.000  F
  F19      1.0000 0.86080  0.52250  0.34920  Biso   1.000  F
  F20      1.0000 0.13920  0.52250  0.15080  Biso   1.000  F
  F21      1.0000 0.63920  0.97750  0.65080  Biso   1.000  F
  F22      1.0000 0.36080  0.97750  0.84920  Biso   1.000  F
  F23      1.0000 0.13920  0.47750  0.65080  Biso   1.000  F
  F24      1.0000 0.86080  0.47750  0.84920  Biso   1.000  F
  F25      1.0000 0.16080  0.86360  0.54540  Biso   1.000  F
  F26      1.0000 0.83920  0.86360  0.95460  Biso   1.000  F
  F27      1.0000 0.66080  0.36360  0.54540  Biso   1.000  F
  F28      1.0000 0.33920  0.36360  0.95460  Biso   1.000  F
  F29      1.0000 0.83920  0.13640  0.45460  Biso   1.000  F
  F30      1.0000 0.16080  0.13640  0.04540  Biso   1.000  F
  F31      1.0000 0.33920  0.63640  0.45460  Biso   1.000  F
  F32      1.0000 0.66080  0.63640  0.04540  Biso   1.000  F
  F33      1.0000 0.24210  0.92820  0.63100  Biso   1.000  F
  F34      1.0000 0.75790  0.92820  0.86900  Biso   1.000  F
  F35      1.0000 0.74210  0.42820  0.63100  Biso   1.000  F
  F36      1.0000 0.25790  0.42820  0.86900  Biso   1.000  F
  F37      1.0000 0.75790  0.07180  0.36900  Biso   1.000  F
  F38      1.0000 0.24210  0.07180  0.13100  Biso   1.000  F
  F39      1.0000 0.25790  0.57180  0.36900  Biso   1.000  F
  F40      1.0000 0.74210  0.57180  0.13100  Biso   1.000  F
  F41      1.0000 0.29320  0.80150  0.57380  Biso   1.000  F
  F42      1.0000 0.70680  0.80150  0.92620  Biso   1.000  F
  F43      1.0000 0.79320  0.30150  0.57380  Biso   1.000  F
  F44      1.0000 0.20680  0.30150  0.92620  Biso   1.000  F
  F45      1.0000 0.70680  0.19850  0.42620  Biso   1.000  F
  F46      1.0000 0.29320  0.19850  0.07380  Biso   1.000  F
  F47      1.0000 0.20680  0.69850  0.42620  Biso   1.000  F
  F48      1.0000 0.79320  0.69850  0.07380  Biso   1.000  F
  O1       1.0000 0.33840  0.17450  0.45420  Biso   1.000  O
  O2       1.0000 0.66160  0.17450  0.04580  Biso   1.000  O
  O3       1.0000 0.83840  0.67450  0.45420  Biso   1.000  O
  O4       1.0000 0.16160  0.67450  0.04580  Biso   1.000  O
  O5       1.0000 0.66160  0.82550  0.54580  Biso   1.000  O
  O6       1.0000 0.33840  0.82550  0.95420  Biso   1.000  O
  O7       1.0000 0.16160  0.32550  0.54580  Biso   1.000  O
  O8       1.0000 0.83840  0.32550  0.95420  Biso   1.000  O
  O9       1.0000 0.23800  0.09860  0.54530  Biso   1.000  O
  O10      1.0000 0.76200  0.09860  0.95470  Biso   1.000  O
  O11      1.0000 0.73800  0.59860  0.54530  Biso   1.000  O
  O12      1.0000 0.26200  0.59860  0.95470  Biso   1.000  O
  O13      1.0000 0.76200  0.90140  0.45470  Biso   1.000  O
  O14      1.0000 0.23800  0.90140  0.04530  Biso   1.000  O
  O15      1.0000 0.26200  0.40140  0.45470  Biso   1.000  O
  O16      1.0000 0.73800  0.40140  0.04530  Biso   1.000  O
  N1       1.0000 0.14440  0.18660  0.41500  Biso   1.000  N
  N2       1.0000 0.85560  0.18660  0.08500  Biso   1.000  N
  N3       1.0000 0.64440  0.68660  0.41500  Biso   1.000  N
  N4       1.0000 0.35560  0.68660  0.08500  Biso   1.000  N
  N5       1.0000 0.85560  0.81340  0.58500  Biso   1.000  N
  N6       1.0000 0.14440  0.81340  0.91500  Biso   1.000  N
  N7       1.0000 0.35560  0.31340  0.58500  Biso   1.000  N
  N8       1.0000 0.64440  0.31340  0.91500  Biso   1.000  N
  C1       1.0000 0.00000  0.00100  0.25000  Biso   1.000  C
  C2       1.0000 0.50000  0.50100  0.25000  Biso   1.000  C
  C3       1.0000 0.00000  0.99900  0.75000  Biso   1.000  C
  C4       1.0000 0.50000  0.49900  0.75000  Biso   1.000  C
  C5       1.0000 0.15160  0.21640  0.35580  Biso   1.000  C
  C6       1.0000 0.84840  0.21640  0.14420  Biso   1.000  C
  C7       1.0000 0.65160  0.71640  0.35580  Biso   1.000  C
  C8       1.0000 0.34840  0.71640  0.14420  Biso   1.000  C
  C9       1.0000 0.84840  0.78360  0.64420  Biso   1.000  C
  C10      1.0000 0.15160  0.78360  0.85580  Biso   1.000  C
  C11      1.0000 0.34840  0.28360  0.64420  Biso   1.000  C
  C12      1.0000 0.65160  0.28360  0.85580  Biso   1.000  C
  H1       1.0000 0.18940  0.27850  0.35070  Biso   1.000  H
  H2       1.0000 0.81060  0.27850  0.14930  Biso   1.000  H
  H3       1.0000 0.68940  0.77850  0.35070  Biso   1.000  H
  H4       1.0000 0.31060  0.77850  0.14930  Biso   1.000  H
  H5       1.0000 0.81060  0.72150  0.64930  Biso   1.000  H
  H6       1.0000 0.18940  0.72150  0.85070  Biso   1.000  H
  H7       1.0000 0.31060  0.22150  0.64930  Biso   1.000  H
  H8       1.0000 0.68940  0.22150  0.85070  Biso   1.000  H
  C13      1.0000 0.10570  0.15970  0.30150  Biso   1.000  C
  C14      1.0000 0.89430  0.15970  0.19850  Biso   1.000  C
  C15      1.0000 0.60570  0.65970  0.30150  Biso   1.000  C
  C16      1.0000 0.39430  0.65970  0.19850  Biso   1.000  C
  C17      1.0000 0.89430  0.84030  0.69850  Biso   1.000  C
  C18      1.0000 0.10570  0.84030  0.80150  Biso   1.000  C
  C19      1.0000 0.39430  0.34030  0.69850  Biso   1.000  C
  C20      1.0000 0.60570  0.34030  0.80150  Biso   1.000  C
  C21      1.0000 0.04780  0.06470  0.30620  Biso   1.000  C
  C22      1.0000 0.95220  0.06470  0.19380  Biso   1.000  C
  C23      1.0000 0.54780  0.56470  0.30620  Biso   1.000  C
  C24      1.0000 0.45220  0.56470  0.19380  Biso   1.000  C
  C25      1.0000 0.95220  0.93530  0.69380  Biso   1.000  C
  C26      1.0000 0.04780  0.93530  0.80620  Biso   1.000  C
  C27      1.0000 0.45220  0.43530  0.69380  Biso   1.000  C
  C28      1.0000 0.54780  0.43530  0.80620  Biso   1.000  C
  C29      1.0000 0.04020  0.03710  0.36900  Biso   1.000  C
  C30      1.0000 0.95980  0.03710  0.13100  Biso   1.000  C
  C31      1.0000 0.54020  0.53710  0.36900  Biso   1.000  C
  C32      1.0000 0.45980  0.53710  0.13100  Biso   1.000  C
  C33      1.0000 0.95980  0.96290  0.63100  Biso   1.000  C
  C34      1.0000 0.04020  0.96290  0.86900  Biso   1.000  C
  C35      1.0000 0.45980  0.46290  0.63100  Biso   1.000  C
  C36      1.0000 0.54020  0.46290  0.86900  Biso   1.000  C
  C37      1.0000 0.08810  0.10000  0.42090  Biso   1.000  C
  C38      1.0000 0.91190  0.10000  0.07910  Biso   1.000  C
  C39      1.0000 0.58810  0.60000  0.42090  Biso   1.000  C
  C40      1.0000 0.41190  0.60000  0.07910  Biso   1.000  C
  C41      1.0000 0.91190  0.90000  0.57910  Biso   1.000  C
  C42      1.0000 0.08810  0.90000  0.92090  Biso   1.000  C
  C43      1.0000 0.41190  0.40000  0.57910  Biso   1.000  C
  C44      1.0000 0.58810  0.40000  0.92090  Biso   1.000  C
  H9       1.0000 0.08030  0.08060  0.46180  Biso   1.000  H
  H10      1.0000 0.91970  0.08060  0.03820  Biso   1.000  H
  H11      1.0000 0.58030  0.58060  0.46180  Biso   1.000  H
  H12      1.0000 0.41970  0.58060  0.03820  Biso   1.000  H
  H13      1.0000 0.91970  0.91940  0.53820  Biso   1.000  H
  H14      1.0000 0.08030  0.91940  0.96180  Biso   1.000  H
  H15      1.0000 0.41970  0.41940  0.53820  Biso   1.000  H
  H16      1.0000 0.58030  0.41940  0.96180  Biso   1.000  H
  C45      1.0000 0.00000  0.61990  0.25000  Biso   1.000  C
  C46      1.0000 0.50000  0.11990  0.25000  Biso   1.000  C
  C47      1.0000 0.00000  0.38010  0.75000  Biso   1.000  C
  C48      1.0000 0.50000  0.88010  0.75000  Biso   1.000  C
  C49      1.0000 0.07910  0.67920  0.26550  Biso   1.000  C
  C50      1.0000 0.92090  0.67920  0.23450  Biso   1.000  C
  C51      1.0000 0.57910  0.17920  0.26550  Biso   1.000  C
  C52      1.0000 0.42090  0.17920  0.23450  Biso   1.000  C
  C53      1.0000 0.92090  0.32080  0.73450  Biso   1.000  C
  C54      1.0000 0.07910  0.32080  0.76550  Biso   1.000  C
  C55      1.0000 0.42090  0.82080  0.73450  Biso   1.000  C
  C56      1.0000 0.57910  0.82080  0.76550  Biso   1.000  C
  H17      1.0000 0.13180  0.63730  0.27560  Biso   1.000  H
  H18      1.0000 0.86820  0.63730  0.22440  Biso   1.000  H
  H19      1.0000 0.63180  0.13730  0.27560  Biso   1.000  H
  H20      1.0000 0.36820  0.13730  0.22440  Biso   1.000  H
  H21      1.0000 0.86820  0.36270  0.72440  Biso   1.000  H
  H22      1.0000 0.13180  0.36270  0.77560  Biso   1.000  H
  H23      1.0000 0.36820  0.86270  0.72440  Biso   1.000  H
  H24      1.0000 0.63180  0.86270  0.77560  Biso   1.000  H
  C57      1.0000 0.07780  0.80210  0.26580  Biso   1.000  C
  C58      1.0000 0.92220  0.80210  0.23420  Biso   1.000  C
  C59      1.0000 0.57780  0.30210  0.26580  Biso   1.000  C
  C60      1.0000 0.42220  0.30210  0.23420  Biso   1.000  C
  C61      1.0000 0.92220  0.19790  0.73420  Biso   1.000  C
  C62      1.0000 0.07780  0.19790  0.76580  Biso   1.000  C
  C63      1.0000 0.42220  0.69790  0.73420  Biso   1.000  C
  C64      1.0000 0.57780  0.69790  0.76580  Biso   1.000  C
  C65      1.0000 0.00000  0.86930  0.25000  Biso   1.000  C
  C66      1.0000 0.50000  0.36930  0.25000  Biso   1.000  C
  C67      1.0000 0.00000  0.13070  0.75000  Biso   1.000  C
  C68      1.0000 0.50000  0.63070  0.75000  Biso   1.000  C
  C69      1.0000 0.40990  0.02650  0.40730  Biso   1.000  C
  C70      1.0000 0.59010  0.02650  0.09270  Biso   1.000  C
  C71      1.0000 0.90990  0.52650  0.40730  Biso   1.000  C
  C72      1.0000 0.09010  0.52650  0.09270  Biso   1.000  C
  C73      1.0000 0.59010  0.97350  0.59270  Biso   1.000  C
  C74      1.0000 0.40990  0.97350  0.90730  Biso   1.000  C
  C75      1.0000 0.09010  0.47350  0.59270  Biso   1.000  C
  C76      1.0000 0.90990  0.47350  0.90730  Biso   1.000  C
  C77      1.0000 0.35450  0.06460  0.45540  Biso   1.000  C
  C78      1.0000 0.64550  0.06460  0.04460  Biso   1.000  C
  C79      1.0000 0.85450  0.56460  0.45540  Biso   1.000  C
  C80      1.0000 0.14550  0.56460  0.04460  Biso   1.000  C
  C81      1.0000 0.64550  0.93540  0.54460  Biso   1.000  C
  C82      1.0000 0.35450  0.93540  0.95540  Biso   1.000  C
  C83      1.0000 0.14550  0.43540  0.54460  Biso   1.000  C
  C84      1.0000 0.85450  0.43540  0.95540  Biso   1.000  C
  C85      1.0000 0.32470  0.97680  0.49140  Biso   1.000  C
  C86      1.0000 0.67530  0.97680  0.00860  Biso   1.000  C
  C87      1.0000 0.82470  0.47680  0.49140  Biso   1.000  C
  C88      1.0000 0.17530  0.47680  0.00860  Biso   1.000  C
  C89      1.0000 0.67530  0.02320  0.50860  Biso   1.000  C
  C90      1.0000 0.32470  0.02320  0.99140  Biso   1.000  C
  C91      1.0000 0.17530  0.52320  0.50860  Biso   1.000  C
  C92      1.0000 0.82470  0.52320  0.99140  Biso   1.000  C
  H25      1.0000 0.34170  0.89790  0.48680  Biso   1.000  H
  H26      1.0000 0.65830  0.89790  0.01320  Biso   1.000  H
  H27      1.0000 0.84170  0.39790  0.48680  Biso   1.000  H
  H28      1.0000 0.15830  0.39790  0.01320  Biso   1.000  H
  H29      1.0000 0.65830  0.10210  0.51320  Biso   1.000  H
  H30      1.0000 0.34170  0.10210  0.98680  Biso   1.000  H
  H31      1.0000 0.15830  0.60210  0.51320  Biso   1.000  H
  H32      1.0000 0.84170  0.60210  0.98680  Biso   1.000  H
  C93      1.0000 0.27080  0.00090  0.53370  Biso   1.000  C
  C94      1.0000 0.72920  0.00090  0.96630  Biso   1.000  C
  C95      1.0000 0.77080  0.50090  0.53370  Biso   1.000  C
  C96      1.0000 0.22920  0.50090  0.96630  Biso   1.000  C
  C97      1.0000 0.72920  0.99910  0.46630  Biso   1.000  C
  C98      1.0000 0.27080  0.99910  0.03370  Biso   1.000  C
  C99      1.0000 0.22920  0.49910  0.46630  Biso   1.000  C
  C100     1.0000 0.77080  0.49910  0.03370  Biso   1.000  C
  C101     1.0000 0.24170  0.89720  0.57120  Biso   1.000  C
  C102     1.0000 0.75830  0.89720  0.92880  Biso   1.000  C
  C103     1.0000 0.74170  0.39720  0.57120  Biso   1.000  C
  C104     1.0000 0.25830  0.39720  0.92880  Biso   1.000  C
  C105     1.0000 0.75830  0.10280  0.42880  Biso   1.000  C
  C106     1.0000 0.24170  0.10280  0.07120  Biso   1.000  C
  C107     1.0000 0.25830  0.60280  0.42880  Biso   1.000  C
  C108     1.0000 0.74170  0.60280  0.07120  Biso   1.000  C
