data_image0
_cell_length_a       15.3536
_cell_length_b       11.069
_cell_length_c       20.979
_cell_angle_alpha    90
_cell_angle_beta     102.497
_cell_angle_gamma    90

_symmetry_space_group_name_H-M    "P 1"
_symmetry_int_tables_number       1

loop_
  _symmetry_equiv_pos_as_xyz
  'x, y, z'

loop_
  _atom_site_label
  _atom_site_occupancy
  _atom_site_fract_x
  _atom_site_fract_y
  _atom_site_fract_z
  _atom_site_thermal_displace_type
  _atom_site_B_iso_or_equiv
  _atom_site_type_symbol
  Cu1      1.0000 0.25000  0.25000  0.50000  Biso   1.000  Cu
  Cu2      1.0000 0.75000  0.25000  0.00000  Biso   1.000  Cu
  Cu3      1.0000 0.75000  0.75000  0.50000  Biso   1.000  Cu
  Cu4      1.0000 0.25000  0.75000  0.00000  Biso   1.000  Cu
  Cl1      1.0000 0.12864  0.20104  0.22767  Biso   1.000  Cl
  Cl2      1.0000 0.87136  0.20104  0.27233  Biso   1.000  Cl
  Cl3      1.0000 0.62864  0.70104  0.22767  Biso   1.000  Cl
  Cl4      1.0000 0.37136  0.70104  0.27233  Biso   1.000  Cl
  Cl5      1.0000 0.87136  0.79896  0.77233  Biso   1.000  Cl
  Cl6      1.0000 0.12864  0.79896  0.72767  Biso   1.000  Cl
  Cl7      1.0000 0.37136  0.29896  0.77233  Biso   1.000  Cl
  Cl8      1.0000 0.62864  0.29896  0.72767  Biso   1.000  Cl
  Cl9      1.0000 0.97045  0.92747  0.38812  Biso   1.000  Cl
  Cl10     1.0000 0.02955  0.92747  0.11188  Biso   1.000  Cl
  Cl11     1.0000 0.47045  0.42747  0.38812  Biso   1.000  Cl
  Cl12     1.0000 0.52955  0.42747  0.11188  Biso   1.000  Cl
  Cl13     1.0000 0.02955  0.07253  0.61188  Biso   1.000  Cl
  Cl14     1.0000 0.97045  0.07253  0.88812  Biso   1.000  Cl
  Cl15     1.0000 0.52955  0.57253  0.61188  Biso   1.000  Cl
  Cl16     1.0000 0.47045  0.57253  0.88812  Biso   1.000  Cl
  Cl17     1.0000 0.00000  0.45827  0.25000  Biso   1.000  Cl
  Cl18     1.0000 0.50000  0.95827  0.25000  Biso   1.000  Cl
  Cl19     1.0000 0.00000  0.54173  0.75000  Biso   1.000  Cl
  Cl20     1.0000 0.50000  0.04173  0.75000  Biso   1.000  Cl
  Cl21     1.0000 0.18101  0.87301  0.28211  Biso   1.000  Cl
  Cl22     1.0000 0.81899  0.87301  0.21789  Biso   1.000  Cl
  Cl23     1.0000 0.68101  0.37301  0.28211  Biso   1.000  Cl
  Cl24     1.0000 0.31899  0.37301  0.21789  Biso   1.000  Cl
  Cl25     1.0000 0.81899  0.12699  0.71789  Biso   1.000  Cl
  Cl26     1.0000 0.18101  0.12699  0.78211  Biso   1.000  Cl
  Cl27     1.0000 0.31899  0.62699  0.71789  Biso   1.000  Cl
  Cl28     1.0000 0.68101  0.62699  0.78211  Biso   1.000  Cl
  F1       1.0000 0.47809  0.09570  0.39978  Biso   1.000  F
  F2       1.0000 0.52191  0.09570  0.10022  Biso   1.000  F
  F3       1.0000 0.97809  0.59570  0.39978  Biso   1.000  F
  F4       1.0000 0.02191  0.59570  0.10022  Biso   1.000  F
  F5       1.0000 0.52191  0.90430  0.60022  Biso   1.000  F
  F6       1.0000 0.47809  0.90430  0.89978  Biso   1.000  F
  F7       1.0000 0.02191  0.40430  0.60022  Biso   1.000  F
  F8       1.0000 0.97809  0.40430  0.89978  Biso   1.000  F
  F9       1.0000 0.45560  0.91330  0.42180  Biso   1.000  F
  F10      1.0000 0.54440  0.91330  0.07820  Biso   1.000  F
  F11      1.0000 0.95560  0.41330  0.42180  Biso   1.000  F
  F12      1.0000 0.04440  0.41330  0.07820  Biso   1.000  F
  F13      1.0000 0.54440  0.08670  0.57820  Biso   1.000  F
  F14      1.0000 0.45560  0.08670  0.92180  Biso   1.000  F
  F15      1.0000 0.04440  0.58670  0.57820  Biso   1.000  F
  F16      1.0000 0.95560  0.58670  0.92180  Biso   1.000  F
  F17      1.0000 0.36220  0.00790  0.34728  Biso   1.000  F
  F18      1.0000 0.63780  0.00790  0.15272  Biso   1.000  F
  F19      1.0000 0.86220  0.50790  0.34728  Biso   1.000  F
  F20      1.0000 0.13780  0.50790  0.15272  Biso   1.000  F
  F21      1.0000 0.63780  0.99210  0.65272  Biso   1.000  F
  F22      1.0000 0.36220  0.99210  0.84728  Biso   1.000  F
  F23      1.0000 0.13780  0.49210  0.65272  Biso   1.000  F
  F24      1.0000 0.86220  0.49210  0.84728  Biso   1.000  F
  F25      1.0000 0.15896  0.86200  0.54205  Biso   1.000  F
  F26      1.0000 0.84104  0.86200  0.95795  Biso   1.000  F
  F27      1.0000 0.65896  0.36200  0.54205  Biso   1.000  F
  F28      1.0000 0.34104  0.36200  0.95795  Biso   1.000  F
  F29      1.0000 0.84104  0.13800  0.45795  Biso   1.000  F
  F30      1.0000 0.15896  0.13800  0.04205  Biso   1.000  F
  F31      1.0000 0.34104  0.63800  0.45795  Biso   1.000  F
  F32      1.0000 0.65896  0.63800  0.04205  Biso   1.000  F
  F33      1.0000 0.24140  0.92460  0.63163  Biso   1.000  F
  F34      1.0000 0.75860  0.92460  0.86837  Biso   1.000  F
  F35      1.0000 0.74140  0.42460  0.63163  Biso   1.000  F
  F36      1.0000 0.25860  0.42460  0.86837  Biso   1.000  F
  F37      1.0000 0.75860  0.07540  0.36837  Biso   1.000  F
  F38      1.0000 0.24140  0.07540  0.13163  Biso   1.000  F
  F39      1.0000 0.25860  0.57540  0.36837  Biso   1.000  F
  F40      1.0000 0.74140  0.57540  0.13163  Biso   1.000  F
  F41      1.0000 0.29260  0.79450  0.57273  Biso   1.000  F
  F42      1.0000 0.70740  0.79450  0.92727  Biso   1.000  F
  F43      1.0000 0.79260  0.29450  0.57273  Biso   1.000  F
  F44      1.0000 0.20740  0.29450  0.92727  Biso   1.000  F
  F45      1.0000 0.70740  0.20550  0.42727  Biso   1.000  F
  F46      1.0000 0.29260  0.20550  0.07273  Biso   1.000  F
  F47      1.0000 0.20740  0.70550  0.42727  Biso   1.000  F
  F48      1.0000 0.79260  0.70550  0.07273  Biso   1.000  F
  O1       1.0000 0.34740  0.17230  0.45395  Biso   1.000  O
  O2       1.0000 0.65260  0.17230  0.04605  Biso   1.000  O
  O3       1.0000 0.84740  0.67230  0.45395  Biso   1.000  O
  O4       1.0000 0.15260  0.67230  0.04605  Biso   1.000  O
  O5       1.0000 0.65260  0.82770  0.54605  Biso   1.000  O
  O6       1.0000 0.34740  0.82770  0.95395  Biso   1.000  O
  O7       1.0000 0.15260  0.32770  0.54605  Biso   1.000  O
  O8       1.0000 0.84740  0.32770  0.95395  Biso   1.000  O
  O9       1.0000 0.24111  0.09790  0.54602  Biso   1.000  O
  O10      1.0000 0.75889  0.09790  0.95398  Biso   1.000  O
  O11      1.0000 0.74111  0.59790  0.54602  Biso   1.000  O
  O12      1.0000 0.25889  0.59790  0.95398  Biso   1.000  O
  O13      1.0000 0.75889  0.90210  0.45398  Biso   1.000  O
  O14      1.0000 0.24111  0.90210  0.04602  Biso   1.000  O
  O15      1.0000 0.25889  0.40210  0.45398  Biso   1.000  O
  O16      1.0000 0.74111  0.40210  0.04602  Biso   1.000  O
  N1       1.0000 0.15080  0.18540  0.41749  Biso   1.000  N
  N2       1.0000 0.84920  0.18540  0.08251  Biso   1.000  N
  N3       1.0000 0.65080  0.68540  0.41749  Biso   1.000  N
  N4       1.0000 0.34920  0.68540  0.08251  Biso   1.000  N
  N5       1.0000 0.84920  0.81460  0.58251  Biso   1.000  N
  N6       1.0000 0.15080  0.81460  0.91749  Biso   1.000  N
  N7       1.0000 0.34920  0.31460  0.58251  Biso   1.000  N
  N8       1.0000 0.65080  0.31460  0.91749  Biso   1.000  N
  C1       1.0000 0.00000  0.99980  0.25000  Biso   1.000  C
  C2       1.0000 0.50000  0.49980  0.25000  Biso   1.000  C
  C3       1.0000 0.00000  0.00020  0.75000  Biso   1.000  C
  C4       1.0000 0.50000  0.50020  0.75000  Biso   1.000  C
  C5       1.0000 0.15700  0.21570  0.35715  Biso   1.000  C
  C6       1.0000 0.84300  0.21570  0.14285  Biso   1.000  C
  C7       1.0000 0.65700  0.71570  0.35715  Biso   1.000  C
  C8       1.0000 0.34300  0.71570  0.14285  Biso   1.000  C
  C9       1.0000 0.84300  0.78430  0.64285  Biso   1.000  C
  C10      1.0000 0.15700  0.78430  0.85715  Biso   1.000  C
  C11      1.0000 0.34300  0.28430  0.64285  Biso   1.000  C
  C12      1.0000 0.65700  0.28430  0.85715  Biso   1.000  C
  H1       1.0000 0.19670  0.27880  0.35170  Biso   1.000  H
  H2       1.0000 0.80330  0.27880  0.14830  Biso   1.000  H
  H3       1.0000 0.69670  0.77880  0.35170  Biso   1.000  H
  H4       1.0000 0.30330  0.77880  0.14830  Biso   1.000  H
  H5       1.0000 0.80330  0.72120  0.64830  Biso   1.000  H
  H6       1.0000 0.19670  0.72120  0.85170  Biso   1.000  H
  H7       1.0000 0.30330  0.22120  0.64830  Biso   1.000  H
  H8       1.0000 0.69670  0.22120  0.85170  Biso   1.000  H
  C13      1.0000 0.10820  0.15940  0.30241  Biso   1.000  C
  C14      1.0000 0.89180  0.15940  0.19759  Biso   1.000  C
  C15      1.0000 0.60820  0.65940  0.30241  Biso   1.000  C
  C16      1.0000 0.39180  0.65940  0.19759  Biso   1.000  C
  C17      1.0000 0.89180  0.84060  0.69759  Biso   1.000  C
  C18      1.0000 0.10820  0.84060  0.80241  Biso   1.000  C
  C19      1.0000 0.39180  0.34060  0.69759  Biso   1.000  C
  C20      1.0000 0.60820  0.34060  0.80241  Biso   1.000  C
  C21      1.0000 0.04910  0.06490  0.30724  Biso   1.000  C
  C22      1.0000 0.95090  0.06490  0.19276  Biso   1.000  C
  C23      1.0000 0.54910  0.56490  0.30724  Biso   1.000  C
  C24      1.0000 0.45090  0.56490  0.19276  Biso   1.000  C
  C25      1.0000 0.95090  0.93510  0.69276  Biso   1.000  C
  C26      1.0000 0.04910  0.93510  0.80724  Biso   1.000  C
  C27      1.0000 0.45090  0.43510  0.69276  Biso   1.000  C
  C28      1.0000 0.54910  0.43510  0.80724  Biso   1.000  C
  C29      1.0000 0.04320  0.03680  0.37156  Biso   1.000  C
  C30      1.0000 0.95680  0.03680  0.12844  Biso   1.000  C
  C31      1.0000 0.54320  0.53680  0.37156  Biso   1.000  C
  C32      1.0000 0.45680  0.53680  0.12844  Biso   1.000  C
  C33      1.0000 0.95680  0.96320  0.62844  Biso   1.000  C
  C34      1.0000 0.04320  0.96320  0.87156  Biso   1.000  C
  C35      1.0000 0.45680  0.46320  0.62844  Biso   1.000  C
  C36      1.0000 0.54320  0.46320  0.87156  Biso   1.000  C
  C37      1.0000 0.09290  0.09850  0.42412  Biso   1.000  C
  C38      1.0000 0.90710  0.09850  0.07588  Biso   1.000  C
  C39      1.0000 0.59290  0.59850  0.42412  Biso   1.000  C
  C40      1.0000 0.40710  0.59850  0.07588  Biso   1.000  C
  C41      1.0000 0.90710  0.90150  0.57588  Biso   1.000  C
  C42      1.0000 0.09290  0.90150  0.92412  Biso   1.000  C
  C43      1.0000 0.40710  0.40150  0.57588  Biso   1.000  C
  C44      1.0000 0.59290  0.40150  0.92412  Biso   1.000  C
  H9       1.0000 0.08570  0.07850  0.46670  Biso   1.000  H
  H10      1.0000 0.91430  0.07850  0.03330  Biso   1.000  H
  H11      1.0000 0.58570  0.57850  0.46670  Biso   1.000  H
  H12      1.0000 0.41430  0.57850  0.03330  Biso   1.000  H
  H13      1.0000 0.91430  0.92150  0.53330  Biso   1.000  H
  H14      1.0000 0.08570  0.92150  0.96670  Biso   1.000  H
  H15      1.0000 0.41430  0.42150  0.53330  Biso   1.000  H
  H16      1.0000 0.58570  0.42150  0.96670  Biso   1.000  H
  C45      1.0000 0.00000  0.61490  0.25000  Biso   1.000  C
  C46      1.0000 0.50000  0.11490  0.25000  Biso   1.000  C
  C47      1.0000 0.00000  0.38510  0.75000  Biso   1.000  C
  C48      1.0000 0.50000  0.88510  0.75000  Biso   1.000  C
  C49      1.0000 0.07960  0.67510  0.26549  Biso   1.000  C
  C50      1.0000 0.92040  0.67510  0.23451  Biso   1.000  C
  C51      1.0000 0.57960  0.17510  0.26549  Biso   1.000  C
  C52      1.0000 0.42040  0.17510  0.23451  Biso   1.000  C
  C53      1.0000 0.92040  0.32490  0.73451  Biso   1.000  C
  C54      1.0000 0.07960  0.32490  0.76549  Biso   1.000  C
  C55      1.0000 0.42040  0.82490  0.73451  Biso   1.000  C
  C56      1.0000 0.57960  0.82490  0.76549  Biso   1.000  C
  H17      1.0000 0.13440  0.63180  0.27570  Biso   1.000  H
  H18      1.0000 0.86560  0.63180  0.22430  Biso   1.000  H
  H19      1.0000 0.63440  0.13180  0.27570  Biso   1.000  H
  H20      1.0000 0.36560  0.13180  0.22430  Biso   1.000  H
  H21      1.0000 0.86560  0.36820  0.72430  Biso   1.000  H
  H22      1.0000 0.13440  0.36820  0.77570  Biso   1.000  H
  H23      1.0000 0.36560  0.86820  0.72430  Biso   1.000  H
  H24      1.0000 0.63440  0.86820  0.77570  Biso   1.000  H
  C57      1.0000 0.07900  0.80010  0.26596  Biso   1.000  C
  C58      1.0000 0.92100  0.80010  0.23404  Biso   1.000  C
  C59      1.0000 0.57900  0.30010  0.26596  Biso   1.000  C
  C60      1.0000 0.42100  0.30010  0.23404  Biso   1.000  C
  C61      1.0000 0.92100  0.19990  0.73404  Biso   1.000  C
  C62      1.0000 0.07900  0.19990  0.76596  Biso   1.000  C
  C63      1.0000 0.42100  0.69990  0.73404  Biso   1.000  C
  C64      1.0000 0.57900  0.69990  0.76596  Biso   1.000  C
  C65      1.0000 0.00000  0.86690  0.25000  Biso   1.000  C
  C66      1.0000 0.50000  0.36690  0.25000  Biso   1.000  C
  C67      1.0000 0.00000  0.13310  0.75000  Biso   1.000  C
  C68      1.0000 0.50000  0.63310  0.75000  Biso   1.000  C
  C69      1.0000 0.41550  0.01830  0.40620  Biso   1.000  C
  C70      1.0000 0.58450  0.01830  0.09380  Biso   1.000  C
  C71      1.0000 0.91550  0.51830  0.40620  Biso   1.000  C
  C72      1.0000 0.08450  0.51830  0.09380  Biso   1.000  C
  C73      1.0000 0.58450  0.98170  0.59380  Biso   1.000  C
  C74      1.0000 0.41550  0.98170  0.90620  Biso   1.000  C
  C75      1.0000 0.08450  0.48170  0.59380  Biso   1.000  C
  C76      1.0000 0.91550  0.48170  0.90620  Biso   1.000  C
  C77      1.0000 0.36080  0.06130  0.45465  Biso   1.000  C
  C78      1.0000 0.63920  0.06130  0.04535  Biso   1.000  C
  C79      1.0000 0.86080  0.56130  0.45465  Biso   1.000  C
  C80      1.0000 0.13920  0.56130  0.04535  Biso   1.000  C
  C81      1.0000 0.63920  0.93870  0.54535  Biso   1.000  C
  C82      1.0000 0.36080  0.93870  0.95465  Biso   1.000  C
  C83      1.0000 0.13920  0.43870  0.54535  Biso   1.000  C
  C84      1.0000 0.86080  0.43870  0.95465  Biso   1.000  C
  C85      1.0000 0.32850  0.97250  0.49177  Biso   1.000  C
  C86      1.0000 0.67150  0.97250  0.00823  Biso   1.000  C
  C87      1.0000 0.82850  0.47250  0.49177  Biso   1.000  C
  C88      1.0000 0.17150  0.47250  0.00823  Biso   1.000  C
  C89      1.0000 0.67150  0.02750  0.50823  Biso   1.000  C
  C90      1.0000 0.32850  0.02750  0.99177  Biso   1.000  C
  C91      1.0000 0.17150  0.52750  0.50823  Biso   1.000  C
  C92      1.0000 0.82850  0.52750  0.99177  Biso   1.000  C
  H25      1.0000 0.34570  0.89090  0.48770  Biso   1.000  H
  H26      1.0000 0.65430  0.89090  0.01230  Biso   1.000  H
  H27      1.0000 0.84570  0.39090  0.48770  Biso   1.000  H
  H28      1.0000 0.15430  0.39090  0.01230  Biso   1.000  H
  H29      1.0000 0.65430  0.10910  0.51230  Biso   1.000  H
  H30      1.0000 0.34570  0.10910  0.98770  Biso   1.000  H
  H31      1.0000 0.15430  0.60910  0.51230  Biso   1.000  H
  H32      1.0000 0.84570  0.60910  0.98770  Biso   1.000  H
  C93      1.0000 0.27340  0.99810  0.53362  Biso   1.000  C
  C94      1.0000 0.72660  0.99810  0.96638  Biso   1.000  C
  C95      1.0000 0.77340  0.49810  0.53362  Biso   1.000  C
  C96      1.0000 0.22660  0.49810  0.96638  Biso   1.000  C
  C97      1.0000 0.72660  0.00190  0.46638  Biso   1.000  C
  C98      1.0000 0.27340  0.00190  0.03362  Biso   1.000  C
  C99      1.0000 0.22660  0.50190  0.46638  Biso   1.000  C
  C100     1.0000 0.77340  0.50190  0.03362  Biso   1.000  C
  C101     1.0000 0.24180  0.89280  0.57030  Biso   1.000  C
  C102     1.0000 0.75820  0.89280  0.92970  Biso   1.000  C
  C103     1.0000 0.74180  0.39280  0.57030  Biso   1.000  C
  C104     1.0000 0.25820  0.39280  0.92970  Biso   1.000  C
  C105     1.0000 0.75820  0.10720  0.42970  Biso   1.000  C
  C106     1.0000 0.24180  0.10720  0.07030  Biso   1.000  C
  C107     1.0000 0.25820  0.60720  0.42970  Biso   1.000  C
  C108     1.0000 0.74180  0.60720  0.07030  Biso   1.000  C
