data_image0
_cell_length_a       15.3379
_cell_length_b       11.046
_cell_length_c       20.9
_cell_angle_alpha    90
_cell_angle_beta     102.657
_cell_angle_gamma    90

_symmetry_space_group_name_H-M    "P 1"
_symmetry_int_tables_number       1

loop_
  _symmetry_equiv_pos_as_xyz
  'x, y, z'

loop_
  _atom_site_label
  _atom_site_occupancy
  _atom_site_fract_x
  _atom_site_fract_y
  _atom_site_fract_z
  _atom_site_thermal_displace_type
  _atom_site_B_iso_or_equiv
  _atom_site_type_symbol
  Cu1      1.0000 0.25000  0.25000  0.50000  Biso   1.000  Cu
  Cu2      1.0000 0.75000  0.25000  0.00000  Biso   1.000  Cu
  Cu3      1.0000 0.75000  0.75000  0.50000  Biso   1.000  Cu
  Cu4      1.0000 0.25000  0.75000  0.00000  Biso   1.000  Cu
  Cl1      1.0000 0.37128  0.20066  0.77267  Biso   1.000  Cl
  Cl2      1.0000 0.62872  0.20066  0.72733  Biso   1.000  Cl
  Cl3      1.0000 0.87128  0.70066  0.77267  Biso   1.000  Cl
  Cl4      1.0000 0.12872  0.70066  0.72733  Biso   1.000  Cl
  Cl5      1.0000 0.62872  0.79934  0.22733  Biso   1.000  Cl
  Cl6      1.0000 0.37128  0.79934  0.27267  Biso   1.000  Cl
  Cl7      1.0000 0.12872  0.29934  0.22733  Biso   1.000  Cl
  Cl8      1.0000 0.87128  0.29934  0.27267  Biso   1.000  Cl
  Cl9      1.0000 0.52919  0.92784  0.61125  Biso   1.000  Cl
  Cl10     1.0000 0.47081  0.92784  0.88875  Biso   1.000  Cl
  Cl11     1.0000 0.02919  0.42784  0.61125  Biso   1.000  Cl
  Cl12     1.0000 0.97081  0.42784  0.88875  Biso   1.000  Cl
  Cl13     1.0000 0.47081  0.07216  0.38875  Biso   1.000  Cl
  Cl14     1.0000 0.52919  0.07216  0.11125  Biso   1.000  Cl
  Cl15     1.0000 0.97081  0.57216  0.38875  Biso   1.000  Cl
  Cl16     1.0000 0.02919  0.57216  0.11125  Biso   1.000  Cl
  Cl17     1.0000 0.50000  0.45690  0.75000  Biso   1.000  Cl
  Cl18     1.0000 0.00000  0.95690  0.75000  Biso   1.000  Cl
  Cl19     1.0000 0.50000  0.54310  0.25000  Biso   1.000  Cl
  Cl20     1.0000 0.00000  0.04310  0.25000  Biso   1.000  Cl
  Cl21     1.0000 0.68116  0.87268  0.78192  Biso   1.000  Cl
  Cl22     1.0000 0.31884  0.87268  0.71808  Biso   1.000  Cl
  Cl23     1.0000 0.18116  0.37268  0.78192  Biso   1.000  Cl
  Cl24     1.0000 0.81884  0.37268  0.71808  Biso   1.000  Cl
  Cl25     1.0000 0.31884  0.12732  0.21808  Biso   1.000  Cl
  Cl26     1.0000 0.68116  0.12732  0.28192  Biso   1.000  Cl
  Cl27     1.0000 0.81884  0.62732  0.21808  Biso   1.000  Cl
  Cl28     1.0000 0.18116  0.62732  0.28192  Biso   1.000  Cl
  F1       1.0000 0.02059  0.09440  0.60108  Biso   1.000  F
  F2       1.0000 0.97941  0.09440  0.89892  Biso   1.000  F
  F3       1.0000 0.52059  0.59440  0.60108  Biso   1.000  F
  F4       1.0000 0.47941  0.59440  0.89892  Biso   1.000  F
  F5       1.0000 0.97941  0.90560  0.39892  Biso   1.000  F
  F6       1.0000 0.02059  0.90560  0.10108  Biso   1.000  F
  F7       1.0000 0.47941  0.40560  0.39892  Biso   1.000  F
  F8       1.0000 0.52059  0.40560  0.10108  Biso   1.000  F
  F9       1.0000 0.04250  0.91120  0.57756  Biso   1.000  F
  F10      1.0000 0.95750  0.91120  0.92244  Biso   1.000  F
  F11      1.0000 0.54250  0.41120  0.57756  Biso   1.000  F
  F12      1.0000 0.45750  0.41120  0.92244  Biso   1.000  F
  F13      1.0000 0.95750  0.08880  0.42244  Biso   1.000  F
  F14      1.0000 0.04250  0.08880  0.07756  Biso   1.000  F
  F15      1.0000 0.45750  0.58880  0.42244  Biso   1.000  F
  F16      1.0000 0.54250  0.58880  0.07756  Biso   1.000  F
  F17      1.0000 0.13735  0.00410  0.65312  Biso   1.000  F
  F18      1.0000 0.86265  0.00410  0.84688  Biso   1.000  F
  F19      1.0000 0.63735  0.50410  0.65312  Biso   1.000  F
  F20      1.0000 0.36265  0.50410  0.84688  Biso   1.000  F
  F21      1.0000 0.86265  0.99590  0.34688  Biso   1.000  F
  F22      1.0000 0.13735  0.99590  0.15312  Biso   1.000  F
  F23      1.0000 0.36265  0.49590  0.34688  Biso   1.000  F
  F24      1.0000 0.63735  0.49590  0.15312  Biso   1.000  F
  F25      1.0000 0.34099  0.86180  0.45869  Biso   1.000  F
  F26      1.0000 0.65901  0.86180  0.04131  Biso   1.000  F
  F27      1.0000 0.84099  0.36180  0.45869  Biso   1.000  F
  F28      1.0000 0.15901  0.36180  0.04131  Biso   1.000  F
  F29      1.0000 0.65901  0.13820  0.54131  Biso   1.000  F
  F30      1.0000 0.34099  0.13820  0.95869  Biso   1.000  F
  F31      1.0000 0.15901  0.63820  0.54131  Biso   1.000  F
  F32      1.0000 0.84099  0.63820  0.95869  Biso   1.000  F
  F33      1.0000 0.25846  0.92380  0.36848  Biso   1.000  F
  F34      1.0000 0.74154  0.92380  0.13152  Biso   1.000  F
  F35      1.0000 0.75846  0.42380  0.36848  Biso   1.000  F
  F36      1.0000 0.24154  0.42380  0.13152  Biso   1.000  F
  F37      1.0000 0.74154  0.07620  0.63152  Biso   1.000  F
  F38      1.0000 0.25846  0.07620  0.86848  Biso   1.000  F
  F39      1.0000 0.24154  0.57620  0.63152  Biso   1.000  F
  F40      1.0000 0.75846  0.57620  0.86848  Biso   1.000  F
  F41      1.0000 0.20754  0.79303  0.42737  Biso   1.000  F
  F42      1.0000 0.79246  0.79303  0.07263  Biso   1.000  F
  F43      1.0000 0.70754  0.29303  0.42737  Biso   1.000  F
  F44      1.0000 0.29246  0.29303  0.07263  Biso   1.000  F
  F45      1.0000 0.79246  0.20697  0.57263  Biso   1.000  F
  F46      1.0000 0.20754  0.20697  0.92737  Biso   1.000  F
  F47      1.0000 0.29246  0.70697  0.57263  Biso   1.000  F
  F48      1.0000 0.70754  0.70697  0.92737  Biso   1.000  F
  O1       1.0000 0.15004  0.17120  0.54614  Biso   1.000  O
  O2       1.0000 0.84996  0.17120  0.95386  Biso   1.000  O
  O3       1.0000 0.65004  0.67120  0.54614  Biso   1.000  O
  O4       1.0000 0.34996  0.67120  0.95386  Biso   1.000  O
  O5       1.0000 0.84996  0.82880  0.45386  Biso   1.000  O
  O6       1.0000 0.15004  0.82880  0.04614  Biso   1.000  O
  O7       1.0000 0.34996  0.32880  0.45386  Biso   1.000  O
  O8       1.0000 0.65004  0.32880  0.04614  Biso   1.000  O
  O9       1.0000 0.25787  0.09783  0.45389  Biso   1.000  O
  O10      1.0000 0.74213  0.09783  0.04611  Biso   1.000  O
  O11      1.0000 0.75787  0.59783  0.45389  Biso   1.000  O
  O12      1.0000 0.24213  0.59783  0.04611  Biso   1.000  O
  O13      1.0000 0.74213  0.90217  0.54611  Biso   1.000  O
  O14      1.0000 0.25787  0.90217  0.95389  Biso   1.000  O
  O15      1.0000 0.24213  0.40217  0.54611  Biso   1.000  O
  O16      1.0000 0.75787  0.40217  0.95389  Biso   1.000  O
  N1       1.0000 0.34770  0.18480  0.58199  Biso   1.000  N
  N2       1.0000 0.65230  0.18480  0.91801  Biso   1.000  N
  N3       1.0000 0.84770  0.68480  0.58199  Biso   1.000  N
  N4       1.0000 0.15230  0.68480  0.91801  Biso   1.000  N
  N5       1.0000 0.65230  0.81520  0.41801  Biso   1.000  N
  N6       1.0000 0.34770  0.81520  0.08199  Biso   1.000  N
  N7       1.0000 0.15230  0.31520  0.41801  Biso   1.000  N
  N8       1.0000 0.84770  0.31520  0.08199  Biso   1.000  N
  C1       1.0000 0.50000  0.99920  0.75000  Biso   1.000  C
  C2       1.0000 0.00000  0.49920  0.75000  Biso   1.000  C
  C3       1.0000 0.50000  0.00080  0.25000  Biso   1.000  C
  C4       1.0000 0.00000  0.50080  0.25000  Biso   1.000  C
  C5       1.0000 0.34130  0.21590  0.64274  Biso   1.000  C
  C6       1.0000 0.65870  0.21590  0.85726  Biso   1.000  C
  C7       1.0000 0.84130  0.71590  0.64274  Biso   1.000  C
  C8       1.0000 0.15870  0.71590  0.85726  Biso   1.000  C
  C9       1.0000 0.65870  0.78410  0.35726  Biso   1.000  C
  C10      1.0000 0.34130  0.78410  0.14274  Biso   1.000  C
  C11      1.0000 0.15870  0.28410  0.35726  Biso   1.000  C
  C12      1.0000 0.84130  0.28410  0.14274  Biso   1.000  C
  H1       1.0000 0.30160  0.27900  0.64830  Biso   1.000  H
  H2       1.0000 0.69840  0.27900  0.85170  Biso   1.000  H
  H3       1.0000 0.80160  0.77900  0.64830  Biso   1.000  H
  H4       1.0000 0.19840  0.77900  0.85170  Biso   1.000  H
  H5       1.0000 0.69840  0.72100  0.35170  Biso   1.000  H
  H6       1.0000 0.30160  0.72100  0.14830  Biso   1.000  H
  H7       1.0000 0.19840  0.22100  0.35170  Biso   1.000  H
  H8       1.0000 0.80160  0.22100  0.14830  Biso   1.000  H
  C13      1.0000 0.39100  0.15870  0.69740  Biso   1.000  C
  C14      1.0000 0.60900  0.15870  0.80260  Biso   1.000  C
  C15      1.0000 0.89100  0.65870  0.69740  Biso   1.000  C
  C16      1.0000 0.10900  0.65870  0.80260  Biso   1.000  C
  C17      1.0000 0.60900  0.84130  0.30260  Biso   1.000  C
  C18      1.0000 0.39100  0.84130  0.19740  Biso   1.000  C
  C19      1.0000 0.10900  0.34130  0.30260  Biso   1.000  C
  C20      1.0000 0.89100  0.34130  0.19740  Biso   1.000  C
  C21      1.0000 0.45067  0.06480  0.69264  Biso   1.000  C
  C22      1.0000 0.54933  0.06480  0.80736  Biso   1.000  C
  C23      1.0000 0.95067  0.56480  0.69264  Biso   1.000  C
  C24      1.0000 0.04933  0.56480  0.80736  Biso   1.000  C
  C25      1.0000 0.54933  0.93520  0.30736  Biso   1.000  C
  C26      1.0000 0.45067  0.93520  0.19264  Biso   1.000  C
  C27      1.0000 0.04933  0.43520  0.30736  Biso   1.000  C
  C28      1.0000 0.95067  0.43520  0.19264  Biso   1.000  C
  C29      1.0000 0.45630  0.03640  0.62795  Biso   1.000  C
  C30      1.0000 0.54370  0.03640  0.87205  Biso   1.000  C
  C31      1.0000 0.95630  0.53640  0.62795  Biso   1.000  C
  C32      1.0000 0.04370  0.53640  0.87205  Biso   1.000  C
  C33      1.0000 0.54370  0.96360  0.37205  Biso   1.000  C
  C34      1.0000 0.45630  0.96360  0.12795  Biso   1.000  C
  C35      1.0000 0.04370  0.46360  0.37205  Biso   1.000  C
  C36      1.0000 0.95630  0.46360  0.12795  Biso   1.000  C
  C37      1.0000 0.40560  0.09790  0.57495  Biso   1.000  C
  C38      1.0000 0.59440  0.09790  0.92505  Biso   1.000  C
  C39      1.0000 0.90560  0.59790  0.57495  Biso   1.000  C
  C40      1.0000 0.09440  0.59790  0.92505  Biso   1.000  C
  C41      1.0000 0.59440  0.90210  0.42505  Biso   1.000  C
  C42      1.0000 0.40560  0.90210  0.07495  Biso   1.000  C
  C43      1.0000 0.09440  0.40210  0.42505  Biso   1.000  C
  C44      1.0000 0.90560  0.40210  0.07495  Biso   1.000  C
  H9       1.0000 0.41210  0.07770  0.53210  Biso   1.000  H
  H10      1.0000 0.58790  0.07770  0.96790  Biso   1.000  H
  H11      1.0000 0.91210  0.57770  0.53210  Biso   1.000  H
  H12      1.0000 0.08790  0.57770  0.96790  Biso   1.000  H
  H13      1.0000 0.58790  0.92230  0.46790  Biso   1.000  H
  H14      1.0000 0.41210  0.92230  0.03210  Biso   1.000  H
  H15      1.0000 0.08790  0.42230  0.46790  Biso   1.000  H
  H16      1.0000 0.91210  0.42230  0.03210  Biso   1.000  H
  C45      1.0000 0.50000  0.61390  0.75000  Biso   1.000  C
  C46      1.0000 0.00000  0.11390  0.75000  Biso   1.000  C
  C47      1.0000 0.50000  0.38610  0.25000  Biso   1.000  C
  C48      1.0000 0.00000  0.88610  0.25000  Biso   1.000  C
  C49      1.0000 0.58030  0.67400  0.76527  Biso   1.000  C
  C50      1.0000 0.41970  0.67400  0.73473  Biso   1.000  C
  C51      1.0000 0.08030  0.17400  0.76527  Biso   1.000  C
  C52      1.0000 0.91970  0.17400  0.73473  Biso   1.000  C
  C53      1.0000 0.41970  0.32600  0.23473  Biso   1.000  C
  C54      1.0000 0.58030  0.32600  0.26527  Biso   1.000  C
  C55      1.0000 0.91970  0.82600  0.23473  Biso   1.000  C
  C56      1.0000 0.08030  0.82600  0.26527  Biso   1.000  C
  H17      1.0000 0.63510  0.63050  0.77520  Biso   1.000  H
  H18      1.0000 0.36490  0.63050  0.72480  Biso   1.000  H
  H19      1.0000 0.13510  0.13050  0.77520  Biso   1.000  H
  H20      1.0000 0.86490  0.13050  0.72480  Biso   1.000  H
  H21      1.0000 0.36490  0.36950  0.22480  Biso   1.000  H
  H22      1.0000 0.63510  0.36950  0.27520  Biso   1.000  H
  H23      1.0000 0.86490  0.86950  0.22480  Biso   1.000  H
  H24      1.0000 0.13510  0.86950  0.27520  Biso   1.000  H
  C57      1.0000 0.57950  0.79970  0.76588  Biso   1.000  C
  C58      1.0000 0.42050  0.79970  0.73412  Biso   1.000  C
  C59      1.0000 0.07950  0.29970  0.76588  Biso   1.000  C
  C60      1.0000 0.92050  0.29970  0.73412  Biso   1.000  C
  C61      1.0000 0.42050  0.20030  0.23412  Biso   1.000  C
  C62      1.0000 0.57950  0.20030  0.26588  Biso   1.000  C
  C63      1.0000 0.92050  0.70030  0.23412  Biso   1.000  C
  C64      1.0000 0.07950  0.70030  0.26588  Biso   1.000  C
  C65      1.0000 0.50000  0.86700  0.75000  Biso   1.000  C
  C66      1.0000 0.00000  0.36700  0.75000  Biso   1.000  C
  C67      1.0000 0.50000  0.13300  0.25000  Biso   1.000  C
  C68      1.0000 0.00000  0.63300  0.25000  Biso   1.000  C
  C69      1.0000 0.08320  0.01640  0.59421  Biso   1.000  C
  C70      1.0000 0.91680  0.01640  0.90579  Biso   1.000  C
  C71      1.0000 0.58320  0.51640  0.59421  Biso   1.000  C
  C72      1.0000 0.41680  0.51640  0.90579  Biso   1.000  C
  C73      1.0000 0.91680  0.98360  0.40579  Biso   1.000  C
  C74      1.0000 0.08320  0.98360  0.09421  Biso   1.000  C
  C75      1.0000 0.41680  0.48360  0.40579  Biso   1.000  C
  C76      1.0000 0.58320  0.48360  0.09421  Biso   1.000  C
  C77      1.0000 0.13730  0.06060  0.54535  Biso   1.000  C
  C78      1.0000 0.86270  0.06060  0.95465  Biso   1.000  C
  C79      1.0000 0.63730  0.56060  0.54535  Biso   1.000  C
  C80      1.0000 0.36270  0.56060  0.95465  Biso   1.000  C
  C81      1.0000 0.86270  0.93940  0.45465  Biso   1.000  C
  C82      1.0000 0.13730  0.93940  0.04535  Biso   1.000  C
  C83      1.0000 0.36270  0.43940  0.45465  Biso   1.000  C
  C84      1.0000 0.63730  0.43940  0.04535  Biso   1.000  C
  C85      1.0000 0.17010  0.97180  0.50829  Biso   1.000  C
  C86      1.0000 0.82990  0.97180  0.99171  Biso   1.000  C
  C87      1.0000 0.67010  0.47180  0.50829  Biso   1.000  C
  C88      1.0000 0.32990  0.47180  0.99171  Biso   1.000  C
  C89      1.0000 0.82990  0.02820  0.49171  Biso   1.000  C
  C90      1.0000 0.17010  0.02820  0.00829  Biso   1.000  C
  C91      1.0000 0.32990  0.52820  0.49171  Biso   1.000  C
  C92      1.0000 0.67010  0.52820  0.00829  Biso   1.000  C
  H25      1.0000 0.15310  0.88990  0.51240  Biso   1.000  H
  H26      1.0000 0.84690  0.88990  0.98760  Biso   1.000  H
  H27      1.0000 0.65310  0.38990  0.51240  Biso   1.000  H
  H28      1.0000 0.34690  0.38990  0.98760  Biso   1.000  H
  H29      1.0000 0.84690  0.11010  0.48760  Biso   1.000  H
  H30      1.0000 0.15310  0.11010  0.01240  Biso   1.000  H
  H31      1.0000 0.34690  0.61010  0.48760  Biso   1.000  H
  H32      1.0000 0.65310  0.61010  0.01240  Biso   1.000  H
  C93      1.0000 0.22560  0.99760  0.46632  Biso   1.000  C
  C94      1.0000 0.77440  0.99760  0.03368  Biso   1.000  C
  C95      1.0000 0.72560  0.49760  0.46632  Biso   1.000  C
  C96      1.0000 0.27440  0.49760  0.03368  Biso   1.000  C
  C97      1.0000 0.77440  0.00240  0.53368  Biso   1.000  C
  C98      1.0000 0.22560  0.00240  0.96632  Biso   1.000  C
  C99      1.0000 0.27440  0.50240  0.53368  Biso   1.000  C
  C100     1.0000 0.72560  0.50240  0.96632  Biso   1.000  C
  C101     1.0000 0.25740  0.89270  0.42975  Biso   1.000  C
  C102     1.0000 0.74260  0.89270  0.07025  Biso   1.000  C
  C103     1.0000 0.75740  0.39270  0.42975  Biso   1.000  C
  C104     1.0000 0.24260  0.39270  0.07025  Biso   1.000  C
  C105     1.0000 0.74260  0.10730  0.57025  Biso   1.000  C
  C106     1.0000 0.25740  0.10730  0.92975  Biso   1.000  C
  C107     1.0000 0.24260  0.60730  0.57025  Biso   1.000  C
  C108     1.0000 0.75740  0.60730  0.92975  Biso   1.000  C
