data_image0
_cell_length_a       11.0886
_cell_length_b       16.4333
_cell_length_c       14.9897
_cell_angle_alpha    90
_cell_angle_beta     109.79
_cell_angle_gamma    90

_symmetry_space_group_name_H-M    "P 1"
_symmetry_int_tables_number       1

loop_
  _symmetry_equiv_pos_as_xyz
  'x, y, z'

loop_
  _atom_site_label
  _atom_site_occupancy
  _atom_site_fract_x
  _atom_site_fract_y
  _atom_site_fract_z
  _atom_site_thermal_displace_type
  _atom_site_B_iso_or_equiv
  _atom_site_type_symbol
  P1       1.0000 0.45964  0.29947  0.97118  Biso   1.000  P
  P2       1.0000 0.04036  0.79947  0.52882  Biso   1.000  P
  P3       1.0000 0.54036  0.70053  0.02882  Biso   1.000  P
  P4       1.0000 0.95964  0.20053  0.47118  Biso   1.000  P
  F1       1.0000 0.37350  0.22620  0.98600  Biso   1.000  F
  F2       1.0000 0.12650  0.72620  0.51400  Biso   1.000  F
  F3       1.0000 0.62650  0.77380  0.01400  Biso   1.000  F
  F4       1.0000 0.87350  0.27380  0.48600  Biso   1.000  F
  F5       1.0000 0.54510  0.36770  0.94840  Biso   1.000  F
  F6       1.0000 0.95490  0.86770  0.55160  Biso   1.000  F
  F7       1.0000 0.45490  0.63230  0.05160  Biso   1.000  F
  F8       1.0000 0.04510  0.13230  0.44840  Biso   1.000  F
  F9       1.0000 0.39910  0.36000  0.02220  Biso   1.000  F
  F10      1.0000 0.10090  0.86000  0.47780  Biso   1.000  F
  F11      1.0000 0.60090  0.64000  0.97780  Biso   1.000  F
  F12      1.0000 0.89910  0.14000  0.52220  Biso   1.000  F
  F13      1.0000 0.56810  0.27340  0.06090  Biso   1.000  F
  F14      1.0000 0.93190  0.77340  0.43910  Biso   1.000  F
  F15      1.0000 0.43190  0.72660  0.93910  Biso   1.000  F
  F16      1.0000 0.06810  0.22660  0.56090  Biso   1.000  F
  F17      1.0000 0.50850  0.23540  0.90650  Biso   1.000  F
  F18      1.0000 0.99150  0.73540  0.59350  Biso   1.000  F
  F19      1.0000 0.49150  0.76460  0.09350  Biso   1.000  F
  F20      1.0000 0.00850  0.26460  0.40650  Biso   1.000  F
  F21      1.0000 0.34930  0.32060  0.87210  Biso   1.000  F
  F22      1.0000 0.15070  0.82060  0.62790  Biso   1.000  F
  F23      1.0000 0.65070  0.67940  0.12790  Biso   1.000  F
  F24      1.0000 0.84930  0.17940  0.37210  Biso   1.000  F
  F25      1.0000 0.40880  0.21400  0.98560  Biso   1.000  F
  F26      1.0000 0.09120  0.71400  0.51440  Biso   1.000  F
  F27      1.0000 0.59120  0.78600  0.01440  Biso   1.000  F
  F28      1.0000 0.90880  0.28600  0.48560  Biso   1.000  F
  F29      1.0000 0.51300  0.39070  0.96720  Biso   1.000  F
  F30      1.0000 0.98700  0.89070  0.53280  Biso   1.000  F
  F31      1.0000 0.48700  0.60930  0.03280  Biso   1.000  F
  F32      1.0000 0.01300  0.10930  0.46720  Biso   1.000  F
  F33      1.0000 0.32590  0.34070  0.96590  Biso   1.000  F
  F34      1.0000 0.17410  0.84070  0.53410  Biso   1.000  F
  F35      1.0000 0.67410  0.65930  0.03410  Biso   1.000  F
  F36      1.0000 0.82590  0.15930  0.46590  Biso   1.000  F
  F37      1.0000 0.50210  0.31420  0.08610  Biso   1.000  F
  F38      1.0000 0.99790  0.81420  0.41390  Biso   1.000  F
  F39      1.0000 0.49790  0.68580  0.91390  Biso   1.000  F
  F40      1.0000 0.00210  0.18580  0.58610  Biso   1.000  F
  F41      1.0000 0.59710  0.26630  0.98840  Biso   1.000  F
  F42      1.0000 0.90290  0.76630  0.51160  Biso   1.000  F
  F43      1.0000 0.40290  0.73370  0.01160  Biso   1.000  F
  F44      1.0000 0.09710  0.23370  0.48840  Biso   1.000  F
  F45      1.0000 0.41540  0.29310  0.86410  Biso   1.000  F
  F46      1.0000 0.08460  0.79310  0.63590  Biso   1.000  F
  F47      1.0000 0.58460  0.70690  0.13590  Biso   1.000  F
  F48      1.0000 0.91540  0.20690  0.36410  Biso   1.000  F
  Cu1      1.0000 0.50000  0.50000  0.50000  Biso   1.000  Cu
  Cu2      1.0000 0.00000  0.00000  0.00000  Biso   1.000  Cu
  S1       1.0000 0.82043  0.44745  0.95310  Biso   1.000  S
  S2       1.0000 0.67957  0.94745  0.54690  Biso   1.000  S
  S3       1.0000 0.17957  0.55255  0.04690  Biso   1.000  S
  S4       1.0000 0.32043  0.05255  0.45310  Biso   1.000  S
  O1       1.0000 0.66900  0.49735  0.43570  Biso   1.000  O
  O2       1.0000 0.83100  0.99735  0.06430  Biso   1.000  O
  O3       1.0000 0.33100  0.50265  0.56430  Biso   1.000  O
  O4       1.0000 0.16900  0.00265  0.93570  Biso   1.000  O
  N1       1.0000 0.59920  0.58584  0.59765  Biso   1.000  N
  N2       1.0000 0.90080  0.08584  0.90235  Biso   1.000  N
  N3       1.0000 0.40080  0.41416  0.40235  Biso   1.000  N
  N4       1.0000 0.09920  0.91416  0.09765  Biso   1.000  N
  N5       1.0000 0.91470  0.90486  0.90916  Biso   1.000  N
  N6       1.0000 0.58530  0.40486  0.59084  Biso   1.000  N
  N7       1.0000 0.08530  0.09514  0.09084  Biso   1.000  N
  N8       1.0000 0.41470  0.59514  0.40916  Biso   1.000  N
  N9       1.0000 0.02620  0.41980  0.67530  Biso   1.000  N
  N10      1.0000 0.47380  0.91980  0.82470  Biso   1.000  N
  N11      1.0000 0.97380  0.58020  0.32470  Biso   1.000  N
  N12      1.0000 0.52620  0.08020  0.17530  Biso   1.000  N
  N13      1.0000 0.68880  0.43960  0.26850  Biso   1.000  N
  N14      1.0000 0.81120  0.93960  0.23150  Biso   1.000  N
  N15      1.0000 0.31120  0.56040  0.73150  Biso   1.000  N
  N16      1.0000 0.18880  0.06040  0.76850  Biso   1.000  N
  N17      1.0000 0.99940  0.34420  0.99650  Biso   1.000  N
  N18      1.0000 0.50060  0.84420  0.50350  Biso   1.000  N
  N19      1.0000 0.00060  0.65580  0.00350  Biso   1.000  N
  N20      1.0000 0.49940  0.15580  0.49650  Biso   1.000  N
  N21      1.0000 0.95570  0.34560  0.07170  Biso   1.000  N
  N22      1.0000 0.54430  0.84560  0.42830  Biso   1.000  N
  N23      1.0000 0.04430  0.65440  0.92830  Biso   1.000  N
  N24      1.0000 0.45570  0.15440  0.57170  Biso   1.000  N
  C1       1.0000 0.59940  0.58920  0.68730  Biso   1.000  C
  C2       1.0000 0.90060  0.08920  0.81270  Biso   1.000  C
  C3       1.0000 0.40060  0.41080  0.31270  Biso   1.000  C
  C4       1.0000 0.09940  0.91080  0.18730  Biso   1.000  C
  H1       1.0000 0.55430  0.54950  0.70720  Biso   1.000  H
  H2       1.0000 0.94570  0.04950  0.79280  Biso   1.000  H
  H3       1.0000 0.44570  0.45050  0.29280  Biso   1.000  H
  H4       1.0000 0.05430  0.95050  0.20720  Biso   1.000  H
  C5       1.0000 0.66240  0.64810  0.75120  Biso   1.000  C
  C6       1.0000 0.83760  0.14810  0.74880  Biso   1.000  C
  C7       1.0000 0.33760  0.35190  0.24880  Biso   1.000  C
  C8       1.0000 0.16240  0.85190  0.25120  Biso   1.000  C
  H5       1.0000 0.65930  0.64750  0.81240  Biso   1.000  H
  H6       1.0000 0.84070  0.14750  0.68760  Biso   1.000  H
  H7       1.0000 0.34070  0.35250  0.18760  Biso   1.000  H
  H8       1.0000 0.15930  0.85250  0.31240  Biso   1.000  H
  C9       1.0000 0.73060  0.70830  0.72460  Biso   1.000  C
  C10      1.0000 0.76940  0.20830  0.77540  Biso   1.000  C
  C11      1.0000 0.26940  0.29170  0.27540  Biso   1.000  C
  C12      1.0000 0.23060  0.79170  0.22460  Biso   1.000  C
  C13      1.0000 0.73120  0.70450  0.63200  Biso   1.000  C
  C14      1.0000 0.76880  0.20450  0.86800  Biso   1.000  C
  C15      1.0000 0.26880  0.29550  0.36800  Biso   1.000  C
  C16      1.0000 0.23120  0.79550  0.13200  Biso   1.000  C
  H9       1.0000 0.77630  0.74320  0.61070  Biso   1.000  H
  H10      1.0000 0.72370  0.24320  0.88930  Biso   1.000  H
  H11      1.0000 0.22370  0.25680  0.38930  Biso   1.000  H
  H12      1.0000 0.27630  0.75680  0.11070  Biso   1.000  H
  C17      1.0000 0.66560  0.64400  0.57200  Biso   1.000  C
  C18      1.0000 0.83440  0.14400  0.92800  Biso   1.000  C
  C19      1.0000 0.33440  0.35600  0.42800  Biso   1.000  C
  C20      1.0000 0.16560  0.85600  0.07200  Biso   1.000  C
  H13      1.0000 0.66740  0.64340  0.51040  Biso   1.000  H
  H14      1.0000 0.83260  0.14340  0.98960  Biso   1.000  H
  H15      1.0000 0.33260  0.35660  0.48960  Biso   1.000  H
  H16      1.0000 0.16740  0.85660  0.01040  Biso   1.000  H
  C21      1.0000 0.79710  0.77512  0.78950  Biso   1.000  C
  C22      1.0000 0.70290  0.27512  0.71050  Biso   1.000  C
  C23      1.0000 0.20290  0.22488  0.21050  Biso   1.000  C
  C24      1.0000 0.29710  0.72488  0.28950  Biso   1.000  C
  C25      1.0000 0.76250  0.79620  0.86700  Biso   1.000  C
  C26      1.0000 0.73750  0.29620  0.63300  Biso   1.000  C
  C27      1.0000 0.23750  0.20380  0.13300  Biso   1.000  C
  C28      1.0000 0.26250  0.70380  0.36700  Biso   1.000  C
  H17      1.0000 0.69950  0.76670  0.88090  Biso   1.000  H
  H18      1.0000 0.80050  0.26670  0.61910  Biso   1.000  H
  H19      1.0000 0.30050  0.23330  0.11910  Biso   1.000  H
  H20      1.0000 0.19950  0.73330  0.38090  Biso   1.000  H
  C29      1.0000 0.82140  0.86090  0.92370  Biso   1.000  C
  C30      1.0000 0.67860  0.36090  0.57630  Biso   1.000  C
  C31      1.0000 0.17860  0.13910  0.07630  Biso   1.000  C
  C32      1.0000 0.32140  0.63910  0.42370  Biso   1.000  C
  H21      1.0000 0.79510  0.87460  0.97450  Biso   1.000  H
  H22      1.0000 0.70490  0.37460  0.52550  Biso   1.000  H
  H23      1.0000 0.20490  0.12540  0.02550  Biso   1.000  H
  H24      1.0000 0.29510  0.62540  0.47450  Biso   1.000  H
  C33      1.0000 0.95040  0.88270  0.83550  Biso   1.000  C
  C34      1.0000 0.54960  0.38270  0.66450  Biso   1.000  C
  C35      1.0000 0.04960  0.11730  0.16450  Biso   1.000  C
  C36      1.0000 0.45040  0.61730  0.33550  Biso   1.000  C
  H25      1.0000 0.01660  0.91130  0.82480  Biso   1.000  H
  H26      1.0000 0.48340  0.41130  0.67520  Biso   1.000  H
  H27      1.0000 0.98340  0.08870  0.17520  Biso   1.000  H
  H28      1.0000 0.51660  0.58870  0.32480  Biso   1.000  H
  C37      1.0000 0.89430  0.82000  0.77490  Biso   1.000  C
  C38      1.0000 0.60570  0.32000  0.72510  Biso   1.000  C
  C39      1.0000 0.10570  0.18000  0.22510  Biso   1.000  C
  C40      1.0000 0.39430  0.68000  0.27490  Biso   1.000  C
  H29      1.0000 0.92170  0.80780  0.72430  Biso   1.000  H
  H30      1.0000 0.57830  0.30780  0.77570  Biso   1.000  H
  H31      1.0000 0.07830  0.19220  0.27570  Biso   1.000  H
  H32      1.0000 0.42170  0.69220  0.22430  Biso   1.000  H
  C41      1.0000 0.07330  0.35880  0.73530  Biso   1.000  C
  C42      1.0000 0.42670  0.85880  0.76470  Biso   1.000  C
  C43      1.0000 0.92670  0.64120  0.26470  Biso   1.000  C
  C44      1.0000 0.57330  0.14120  0.23530  Biso   1.000  C
  H33      1.0000 0.12690  0.32170  0.72060  Biso   1.000  H
  H34      1.0000 0.37310  0.82170  0.77940  Biso   1.000  H
  H35      1.0000 0.87310  0.67830  0.27940  Biso   1.000  H
  H36      1.0000 0.62690  0.17830  0.22060  Biso   1.000  H
  C45      1.0000 0.04710  0.34740  0.81880  Biso   1.000  C
  C46      1.0000 0.45290  0.84740  0.68120  Biso   1.000  C
  C47      1.0000 0.95290  0.65260  0.18120  Biso   1.000  C
  C48      1.0000 0.54710  0.15260  0.31880  Biso   1.000  C
  H37      1.0000 0.08130  0.30350  0.85830  Biso   1.000  H
  H38      1.0000 0.41870  0.80350  0.64170  Biso   1.000  H
  H39      1.0000 0.91870  0.69650  0.14170  Biso   1.000  H
  H40      1.0000 0.58130  0.19650  0.35830  Biso   1.000  H
  C49      1.0000 0.96880  0.40310  0.84110  Biso   1.000  C
  C50      1.0000 0.53120  0.90310  0.65890  Biso   1.000  C
  C51      1.0000 0.03120  0.59690  0.15890  Biso   1.000  C
  C52      1.0000 0.46880  0.09690  0.34110  Biso   1.000  C
  C53      1.0000 0.91950  0.46660  0.77890  Biso   1.000  C
  C54      1.0000 0.58050  0.96660  0.72110  Biso   1.000  C
  C55      1.0000 0.08050  0.53340  0.22110  Biso   1.000  C
  C56      1.0000 0.41950  0.03340  0.27890  Biso   1.000  C
  H41      1.0000 0.86570  0.50480  0.79170  Biso   1.000  H
  H42      1.0000 0.63430  0.00480  0.70830  Biso   1.000  H
  H43      1.0000 0.13430  0.49520  0.20830  Biso   1.000  H
  H44      1.0000 0.36570  0.99520  0.29170  Biso   1.000  H
  C57      1.0000 0.95080  0.47260  0.69790  Biso   1.000  C
  C58      1.0000 0.54920  0.97260  0.80210  Biso   1.000  C
  C59      1.0000 0.04920  0.52740  0.30210  Biso   1.000  C
  C60      1.0000 0.45080  0.02740  0.19790  Biso   1.000  C
  H45      1.0000 0.91740  0.51580  0.65690  Biso   1.000  H
  H46      1.0000 0.58260  0.01580  0.84310  Biso   1.000  H
  H47      1.0000 0.08260  0.48420  0.34310  Biso   1.000  H
  H48      1.0000 0.41740  0.98420  0.15690  Biso   1.000  H
  C61      1.0000 0.93870  0.39370  0.92950  Biso   1.000  C
  C62      1.0000 0.56130  0.89370  0.57050  Biso   1.000  C
  C63      1.0000 0.06130  0.60630  0.07050  Biso   1.000  C
  C64      1.0000 0.43870  0.10630  0.42950  Biso   1.000  C
  C65      1.0000 0.86210  0.39680  0.05970  Biso   1.000  C
  C66      1.0000 0.63790  0.89680  0.44030  Biso   1.000  C
  C67      1.0000 0.13790  0.60320  0.94030  Biso   1.000  C
  C68      1.0000 0.36210  0.10320  0.55970  Biso   1.000  C
  C69      1.0000 0.80020  0.41130  0.13040  Biso   1.000  C
  C70      1.0000 0.69980  0.91130  0.36960  Biso   1.000  C
  C71      1.0000 0.19980  0.58870  0.86960  Biso   1.000  C
  C72      1.0000 0.30020  0.08870  0.63040  Biso   1.000  C
  C73      1.0000 0.82480  0.36060  0.20830  Biso   1.000  C
  C74      1.0000 0.67520  0.86060  0.29170  Biso   1.000  C
  C75      1.0000 0.17520  0.63940  0.79170  Biso   1.000  C
  C76      1.0000 0.32480  0.13940  0.70830  Biso   1.000  C
  H49      1.0000 0.87940  0.31620  0.21600  Biso   1.000  H
  H50      1.0000 0.62060  0.81620  0.28400  Biso   1.000  H
  H51      1.0000 0.12060  0.68380  0.78400  Biso   1.000  H
  H52      1.0000 0.37940  0.18380  0.71600  Biso   1.000  H
  C77      1.0000 0.76650  0.37730  0.27410  Biso   1.000  C
  C78      1.0000 0.73350  0.87730  0.22590  Biso   1.000  C
  C79      1.0000 0.23350  0.62270  0.72590  Biso   1.000  C
  C80      1.0000 0.26650  0.12270  0.77410  Biso   1.000  C
  H53      1.0000 0.78290  0.34250  0.32580  Biso   1.000  H
  H54      1.0000 0.71710  0.84250  0.17420  Biso   1.000  H
  H55      1.0000 0.21710  0.65750  0.67420  Biso   1.000  H
  H56      1.0000 0.28290  0.15750  0.82580  Biso   1.000  H
  C81      1.0000 0.66580  0.48730  0.19330  Biso   1.000  C
  C82      1.0000 0.83420  0.98730  0.30670  Biso   1.000  C
  C83      1.0000 0.33420  0.51270  0.80670  Biso   1.000  C
  C84      1.0000 0.16580  0.01270  0.69330  Biso   1.000  C
  H57      1.0000 0.61060  0.53120  0.18750  Biso   1.000  H
  H58      1.0000 0.88940  0.03120  0.31250  Biso   1.000  H
  H59      1.0000 0.38940  0.46880  0.81250  Biso   1.000  H
  H60      1.0000 0.11060  0.96880  0.68750  Biso   1.000  H
  C85      1.0000 0.71870  0.47600  0.12320  Biso   1.000  C
  C86      1.0000 0.78130  0.97600  0.37680  Biso   1.000  C
  C87      1.0000 0.28130  0.52400  0.87680  Biso   1.000  C
  C88      1.0000 0.21870  0.02400  0.62320  Biso   1.000  C
  H61      1.0000 0.69970  0.51140  0.07190  Biso   1.000  H
  H62      1.0000 0.80030  0.01140  0.42810  Biso   1.000  H
  H63      1.0000 0.30030  0.48860  0.92810  Biso   1.000  H
  H64      1.0000 0.19970  0.98860  0.57190  Biso   1.000  H
  H65      1.0000 0.66700  0.47400  0.38610  Biso   1.000  H
  H66      1.0000 0.83300  0.97400  0.11390  Biso   1.000  H
  H67      1.0000 0.33300  0.52600  0.61390  Biso   1.000  H
  H68      1.0000 0.16700  0.02600  0.88610  Biso   1.000  H
  H69      1.0000 0.73300  0.52700  0.45500  Biso   1.000  H
  H70      1.0000 0.76700  0.02700  0.04500  Biso   1.000  H
  H71      1.0000 0.26700  0.47300  0.54500  Biso   1.000  H
  H72      1.0000 0.23300  0.97300  0.95500  Biso   1.000  H
  O5       1.0000 0.89920  0.57670  0.48900  Biso   1.000  O
  O6       1.0000 0.60080  0.07670  0.01100  Biso   1.000  O
  O7       1.0000 0.10080  0.42330  0.51100  Biso   1.000  O
  O8       1.0000 0.39920  0.92330  0.98900  Biso   1.000  O
  H73      1.0000 0.91860  0.57440  0.44010  Biso   1.000  H
  H74      1.0000 0.58140  0.07440  0.05990  Biso   1.000  H
  H75      1.0000 0.08140  0.42560  0.55990  Biso   1.000  H
  H76      1.0000 0.41860  0.92560  0.94010  Biso   1.000  H
  H77      1.0000 0.90900  0.62340  0.51150  Biso   1.000  H
  H78      1.0000 0.59100  0.12340  0.98850  Biso   1.000  H
  H79      1.0000 0.09100  0.37660  0.48850  Biso   1.000  H
  H80      1.0000 0.40900  0.87660  0.01150  Biso   1.000  H
