data_image0
_cell_length_a       8.8885
_cell_length_b       13.849
_cell_length_c       17.692
_cell_angle_alpha    90
_cell_angle_beta     90
_cell_angle_gamma    90

_symmetry_space_group_name_H-M    "P 1"
_symmetry_int_tables_number       1

loop_
  _symmetry_equiv_pos_as_xyz
  'x, y, z'

loop_
  _atom_site_label
  _atom_site_occupancy
  _atom_site_fract_x
  _atom_site_fract_y
  _atom_site_fract_z
  _atom_site_thermal_displace_type
  _atom_site_B_iso_or_equiv
  _atom_site_type_symbol
  Cu1      1.0000 0.70156  0.38417  0.43739  Biso   1.000  Cu
  Cu2      1.0000 0.79844  0.61583  0.93739  Biso   1.000  Cu
  Cu3      1.0000 0.29844  0.88417  0.06261  Biso   1.000  Cu
  Cu4      1.0000 0.20156  0.11583  0.56261  Biso   1.000  Cu
  Cl1      1.0000 0.64848  0.40765  0.31678  Biso   1.000  Cl
  Cl2      1.0000 0.85152  0.59235  0.81678  Biso   1.000  Cl
  Cl3      1.0000 0.35152  0.90765  0.18322  Biso   1.000  Cl
  Cl4      1.0000 0.14848  0.09235  0.68322  Biso   1.000  Cl
  N1       1.0000 0.82710  0.26397  0.43431  Biso   1.000  N
  N2       1.0000 0.67290  0.73603  0.93431  Biso   1.000  N
  N3       1.0000 0.17290  0.76397  0.06569  Biso   1.000  N
  N4       1.0000 0.32710  0.23603  0.56569  Biso   1.000  N
  C1       1.0000 0.88440  0.23580  0.50060  Biso   1.000  C
  C2       1.0000 0.61560  0.76420  0.00060  Biso   1.000  C
  C3       1.0000 0.11560  0.73580  0.99940  Biso   1.000  C
  C4       1.0000 0.38440  0.26420  0.49940  Biso   1.000  C
  O1       1.0000 0.96950  0.16547  0.51295  Biso   1.000  O
  O2       1.0000 0.53050  0.83453  0.01295  Biso   1.000  O
  O3       1.0000 0.03050  0.66547  0.98705  Biso   1.000  O
  O4       1.0000 0.46950  0.33453  0.48705  Biso   1.000  O
  N5       1.0000 0.76470  0.37830  0.54191  Biso   1.000  N
  N6       1.0000 0.73530  0.62170  0.04191  Biso   1.000  N
  N7       1.0000 0.23530  0.87830  0.95809  Biso   1.000  N
  N8       1.0000 0.26470  0.12170  0.45809  Biso   1.000  N
  C5       1.0000 0.64780  0.53030  0.55100  Biso   1.000  C
  C6       1.0000 0.85220  0.46970  0.05100  Biso   1.000  C
  C7       1.0000 0.35220  0.03030  0.94900  Biso   1.000  C
  C8       1.0000 0.14780  0.96970  0.44900  Biso   1.000  C
  C9       1.0000 0.84380  0.30190  0.56460  Biso   1.000  C
  C10      1.0000 0.65620  0.69810  0.06460  Biso   1.000  C
  C11      1.0000 0.15620  0.80190  0.93540  Biso   1.000  C
  C12      1.0000 0.34380  0.19810  0.43540  Biso   1.000  C
  N9       1.0000 0.63950  0.52306  0.47873  Biso   1.000  N
  N10      1.0000 0.86050  0.47694  0.97873  Biso   1.000  N
  N11      1.0000 0.36050  0.02306  0.02127  Biso   1.000  N
  N12      1.0000 0.13950  0.97694  0.52127  Biso   1.000  N
  C13      1.0000 0.88520  0.29170  0.63950  Biso   1.000  C
  C14      1.0000 0.61480  0.70830  0.13950  Biso   1.000  C
  C15      1.0000 0.11480  0.79170  0.86050  Biso   1.000  C
  C16      1.0000 0.38520  0.20830  0.36050  Biso   1.000  C
  H1       1.0000 0.94050  0.23860  0.65570  Biso   1.000  H
  H2       1.0000 0.55950  0.76140  0.15570  Biso   1.000  H
  H3       1.0000 0.05950  0.73860  0.84430  Biso   1.000  H
  H4       1.0000 0.44050  0.26140  0.34430  Biso   1.000  H
  C17      1.0000 0.84140  0.36360  0.68980  Biso   1.000  C
  C18      1.0000 0.65860  0.63640  0.18980  Biso   1.000  C
  C19      1.0000 0.15860  0.86360  0.81020  Biso   1.000  C
  C20      1.0000 0.34140  0.13640  0.31020  Biso   1.000  C
  H5       1.0000 0.86720  0.35850  0.74060  Biso   1.000  H
  H6       1.0000 0.63280  0.64150  0.24060  Biso   1.000  H
  H7       1.0000 0.13280  0.85850  0.75940  Biso   1.000  H
  H8       1.0000 0.36720  0.14150  0.25940  Biso   1.000  H
  C21      1.0000 0.76000  0.44260  0.66520  Biso   1.000  C
  C22      1.0000 0.74000  0.55740  0.16520  Biso   1.000  C
  C23      1.0000 0.24000  0.94260  0.83480  Biso   1.000  C
  C24      1.0000 0.26000  0.05740  0.33480  Biso   1.000  C
  H9       1.0000 0.73130  0.49090  0.69880  Biso   1.000  H
  H10      1.0000 0.76870  0.50910  0.19880  Biso   1.000  H
  H11      1.0000 0.26870  0.99090  0.80120  Biso   1.000  H
  H12      1.0000 0.23130  0.00910  0.30120  Biso   1.000  H
  C25      1.0000 0.72220  0.44820  0.59002  Biso   1.000  C
  C26      1.0000 0.77780  0.55180  0.09002  Biso   1.000  C
  C27      1.0000 0.27780  0.94820  0.90998  Biso   1.000  C
  C28      1.0000 0.22220  0.05180  0.40998  Biso   1.000  C
  C29      1.0000 0.59650  0.61290  0.59820  Biso   1.000  C
  C30      1.0000 0.90350  0.38710  0.09820  Biso   1.000  C
  C31      1.0000 0.40350  0.11290  0.90180  Biso   1.000  C
  C32      1.0000 0.09650  0.88710  0.40180  Biso   1.000  C
  H13      1.0000 0.55150  0.66110  0.56630  Biso   1.000  H
  H14      1.0000 0.94850  0.33890  0.06630  Biso   1.000  H
  H15      1.0000 0.44850  0.16110  0.93370  Biso   1.000  H
  H16      1.0000 0.05150  0.83890  0.43370  Biso   1.000  H
  H17      1.0000 0.68100  0.64030  0.62420  Biso   1.000  H
  H18      1.0000 0.81900  0.35970  0.12420  Biso   1.000  H
  H19      1.0000 0.31900  0.14030  0.87580  Biso   1.000  H
  H20      1.0000 0.18100  0.85970  0.37580  Biso   1.000  H
  H21      1.0000 0.52380  0.59070  0.63430  Biso   1.000  H
  H22      1.0000 0.97620  0.40930  0.13430  Biso   1.000  H
  H23      1.0000 0.47620  0.09070  0.86570  Biso   1.000  H
  H24      1.0000 0.02380  0.90930  0.36570  Biso   1.000  H
  C33      1.0000 0.86530  0.20940  0.36880  Biso   1.000  C
  C34      1.0000 0.63470  0.79060  0.86880  Biso   1.000  C
  C35      1.0000 0.13470  0.70940  0.13120  Biso   1.000  C
  C36      1.0000 0.36530  0.29060  0.63120  Biso   1.000  C
  C37      1.0000 0.96840  0.24960  0.31790  Biso   1.000  C
  C38      1.0000 0.53160  0.75040  0.81790  Biso   1.000  C
  C39      1.0000 0.03160  0.74960  0.18210  Biso   1.000  C
  C40      1.0000 0.46840  0.25040  0.68210  Biso   1.000  C
  C41      1.0000 0.00160  0.19980  0.25210  Biso   1.000  C
  C42      1.0000 0.49840  0.80020  0.75210  Biso   1.000  C
  C43      1.0000 0.99840  0.69980  0.24790  Biso   1.000  C
  C44      1.0000 0.50160  0.30020  0.74790  Biso   1.000  C
  H25      1.0000 0.06750  0.22690  0.21720  Biso   1.000  H
  H26      1.0000 0.43250  0.77310  0.71720  Biso   1.000  H
  H27      1.0000 0.93250  0.72690  0.28280  Biso   1.000  H
  H28      1.0000 0.56750  0.27310  0.78280  Biso   1.000  H
  C45      1.0000 0.93840  0.11050  0.23740  Biso   1.000  C
  C46      1.0000 0.56160  0.88950  0.73740  Biso   1.000  C
  C47      1.0000 0.06160  0.61050  0.26260  Biso   1.000  C
  C48      1.0000 0.43840  0.38950  0.76260  Biso   1.000  C
  H29      1.0000 0.96250  0.07730  0.19340  Biso   1.000  H
  H30      1.0000 0.53750  0.92270  0.69340  Biso   1.000  H
  H31      1.0000 0.03750  0.57730  0.30660  Biso   1.000  H
  H32      1.0000 0.46250  0.42270  0.80660  Biso   1.000  H
  C49      1.0000 0.84000  0.07180  0.28850  Biso   1.000  C
  C50      1.0000 0.66000  0.92820  0.78850  Biso   1.000  C
  C51      1.0000 0.16000  0.57180  0.21150  Biso   1.000  C
  C52      1.0000 0.34000  0.42820  0.71150  Biso   1.000  C
  H33      1.0000 0.79750  0.01180  0.27860  Biso   1.000  H
  H34      1.0000 0.70250  0.98820  0.77860  Biso   1.000  H
  H35      1.0000 0.20250  0.51180  0.22140  Biso   1.000  H
  H36      1.0000 0.29750  0.48820  0.72140  Biso   1.000  H
  C53      1.0000 0.80160  0.11950  0.35498  Biso   1.000  C
  C54      1.0000 0.69840  0.88050  0.85498  Biso   1.000  C
  C55      1.0000 0.19840  0.61950  0.14502  Biso   1.000  C
  C56      1.0000 0.30160  0.38050  0.64502  Biso   1.000  C
  C57      1.0000 0.69660  0.07250  0.41020  Biso   1.000  C
  C58      1.0000 0.80340  0.92750  0.91020  Biso   1.000  C
  C59      1.0000 0.30340  0.57250  0.08980  Biso   1.000  C
  C60      1.0000 0.19660  0.42750  0.58980  Biso   1.000  C
  H37      1.0000 0.68120  0.11470  0.45260  Biso   1.000  H
  H38      1.0000 0.81880  0.88530  0.95260  Biso   1.000  H
  H39      1.0000 0.31880  0.61470  0.04740  Biso   1.000  H
  H40      1.0000 0.18120  0.38530  0.54740  Biso   1.000  H
  H41      1.0000 0.73930  0.01280  0.42740  Biso   1.000  H
  H42      1.0000 0.76070  0.98720  0.92740  Biso   1.000  H
  H43      1.0000 0.26070  0.51280  0.07260  Biso   1.000  H
  H44      1.0000 0.23930  0.48720  0.57260  Biso   1.000  H
  H45      1.0000 0.60190  0.06000  0.38600  Biso   1.000  H
  H46      1.0000 0.89810  0.94000  0.88600  Biso   1.000  H
  H47      1.0000 0.39810  0.56000  0.11400  Biso   1.000  H
  H48      1.0000 0.10190  0.44000  0.61400  Biso   1.000  H
  C61      1.0000 0.04370  0.34490  0.33410  Biso   1.000  C
  C62      1.0000 0.45630  0.65510  0.83410  Biso   1.000  C
  C63      1.0000 0.95630  0.84490  0.16590  Biso   1.000  C
  C64      1.0000 0.54370  0.15510  0.66590  Biso   1.000  C
  H49      1.0000 0.11030  0.36100  0.29330  Biso   1.000  H
  H50      1.0000 0.38970  0.63900  0.79330  Biso   1.000  H
  H51      1.0000 0.88970  0.86100  0.20670  Biso   1.000  H
  H52      1.0000 0.61030  0.13900  0.70670  Biso   1.000  H
  H53      1.0000 0.10020  0.34020  0.38020  Biso   1.000  H
  H54      1.0000 0.39980  0.65980  0.88020  Biso   1.000  H
  H55      1.0000 0.89980  0.84020  0.11980  Biso   1.000  H
  H56      1.0000 0.60020  0.15980  0.61980  Biso   1.000  H
  H57      1.0000 0.96860  0.39430  0.33920  Biso   1.000  H
  H58      1.0000 0.53140  0.60570  0.83920  Biso   1.000  H
  H59      1.0000 0.03140  0.89430  0.16080  Biso   1.000  H
  H60      1.0000 0.46860  0.10570  0.66080  Biso   1.000  H
  C65      1.0000 0.59820  0.60770  0.43443  Biso   1.000  C
  C66      1.0000 0.90180  0.39230  0.93443  Biso   1.000  C
  C67      1.0000 0.40180  0.10770  0.06557  Biso   1.000  C
  C68      1.0000 0.09820  0.89230  0.56557  Biso   1.000  C
  C69      1.0000 0.45820  0.61500  0.40110  Biso   1.000  C
  C70      1.0000 0.04180  0.38500  0.90110  Biso   1.000  C
  C71      1.0000 0.54180  0.11500  0.09890  Biso   1.000  C
  C72      1.0000 0.95820  0.88500  0.59890  Biso   1.000  C
  C73      1.0000 0.42670  0.69740  0.35850  Biso   1.000  C
  C74      1.0000 0.07330  0.30260  0.85850  Biso   1.000  C
  C75      1.0000 0.57330  0.19740  0.14150  Biso   1.000  C
  C76      1.0000 0.92670  0.80260  0.64150  Biso   1.000  C
  H61      1.0000 0.33330  0.70390  0.33540  Biso   1.000  H
  H62      1.0000 0.16670  0.29610  0.83540  Biso   1.000  H
  H63      1.0000 0.66670  0.20390  0.16460  Biso   1.000  H
  H64      1.0000 0.83330  0.79610  0.66460  Biso   1.000  H
  C77      1.0000 0.53240  0.76930  0.35040  Biso   1.000  C
  C78      1.0000 0.96760  0.23070  0.85040  Biso   1.000  C
  C79      1.0000 0.46760  0.26930  0.14960  Biso   1.000  C
  C80      1.0000 0.03240  0.73070  0.64960  Biso   1.000  C
  H65      1.0000 0.50940  0.82460  0.32290  Biso   1.000  H
  H66      1.0000 0.99060  0.17540  0.82290  Biso   1.000  H
  H67      1.0000 0.49060  0.32460  0.17710  Biso   1.000  H
  H68      1.0000 0.00940  0.67540  0.67710  Biso   1.000  H
  C81      1.0000 0.67230  0.75930  0.38290  Biso   1.000  C
  C82      1.0000 0.82770  0.24070  0.88290  Biso   1.000  C
  C83      1.0000 0.32770  0.25930  0.11710  Biso   1.000  C
  C84      1.0000 0.17230  0.74070  0.61710  Biso   1.000  C
  H69      1.0000 0.74300  0.80820  0.37690  Biso   1.000  H
  H70      1.0000 0.75700  0.19180  0.87690  Biso   1.000  H
  H71      1.0000 0.25700  0.30820  0.12310  Biso   1.000  H
  H72      1.0000 0.24300  0.69180  0.62310  Biso   1.000  H
  C85      1.0000 0.70980  0.67780  0.42450  Biso   1.000  C
  C86      1.0000 0.79020  0.32220  0.92450  Biso   1.000  C
  C87      1.0000 0.29020  0.17780  0.07550  Biso   1.000  C
  C88      1.0000 0.20980  0.82220  0.57550  Biso   1.000  C
  C89      1.0000 0.86660  0.66350  0.45540  Biso   1.000  C
  C90      1.0000 0.63340  0.33650  0.95540  Biso   1.000  C
  C91      1.0000 0.13340  0.16350  0.04460  Biso   1.000  C
  C92      1.0000 0.36660  0.83650  0.54460  Biso   1.000  C
  H73      1.0000 0.87160  0.60310  0.48200  Biso   1.000  H
  H74      1.0000 0.62840  0.39690  0.98200  Biso   1.000  H
  H75      1.0000 0.12840  0.10310  0.01800  Biso   1.000  H
  H76      1.0000 0.37160  0.89690  0.51800  Biso   1.000  H
  H77      1.0000 0.89050  0.71530  0.48950  Biso   1.000  H
  H78      1.0000 0.60950  0.28470  0.98950  Biso   1.000  H
  H79      1.0000 0.10950  0.21530  0.01050  Biso   1.000  H
  H80      1.0000 0.39050  0.78470  0.51050  Biso   1.000  H
  H81      1.0000 0.93750  0.66300  0.41450  Biso   1.000  H
  H82      1.0000 0.56250  0.33700  0.91450  Biso   1.000  H
  H83      1.0000 0.06250  0.16300  0.08550  Biso   1.000  H
  H84      1.0000 0.43750  0.83700  0.58550  Biso   1.000  H
  C93      1.0000 0.34170  0.53750  0.40920  Biso   1.000  C
  C94      1.0000 0.15830  0.46250  0.90920  Biso   1.000  C
  C95      1.0000 0.65830  0.03750  0.09080  Biso   1.000  C
  C96      1.0000 0.84170  0.96250  0.59080  Biso   1.000  C
  H85      1.0000 0.38080  0.48630  0.44010  Biso   1.000  H
  H86      1.0000 0.11920  0.51370  0.94010  Biso   1.000  H
  H87      1.0000 0.61920  0.98630  0.05990  Biso   1.000  H
  H88      1.0000 0.88080  0.01370  0.55990  Biso   1.000  H
  H89      1.0000 0.31650  0.51250  0.36020  Biso   1.000  H
  H90      1.0000 0.18350  0.48750  0.86020  Biso   1.000  H
  H91      1.0000 0.68350  0.01250  0.13980  Biso   1.000  H
  H92      1.0000 0.81650  0.98750  0.63980  Biso   1.000  H
  H93      1.0000 0.25330  0.56390  0.43250  Biso   1.000  H
  H94      1.0000 0.24670  0.43610  0.93250  Biso   1.000  H
  H95      1.0000 0.74670  0.06390  0.06750  Biso   1.000  H
  H96      1.0000 0.75330  0.93610  0.56750  Biso   1.000  H
