data_image0
_cell_length_a       7.1274
_cell_length_b       18.0919
_cell_length_c       6.3711
_cell_angle_alpha    90
_cell_angle_beta     107.121
_cell_angle_gamma    90

_symmetry_space_group_name_H-M    "P 1"
_symmetry_int_tables_number       1

loop_
  _symmetry_equiv_pos_as_xyz
  'x, y, z'

loop_
  _atom_site_label
  _atom_site_occupancy
  _atom_site_fract_x
  _atom_site_fract_y
  _atom_site_fract_z
  _atom_site_thermal_displace_type
  _atom_site_B_iso_or_equiv
  _atom_site_type_symbol
  Cu1      1.0000 0.09783  0.30789  0.71726  Biso   1.000  Cu
  Cu2      1.0000 0.90217  0.80789  0.78274  Biso   1.000  Cu
  Cu3      1.0000 0.90217  0.69211  0.28274  Biso   1.000  Cu
  Cu4      1.0000 0.09783  0.19211  0.21726  Biso   1.000  Cu
  O1       1.0000 0.32340  0.24320  0.79310  Biso   1.000  O
  O2       1.0000 0.67660  0.74320  0.70690  Biso   1.000  O
  O3       1.0000 0.67660  0.75680  0.20690  Biso   1.000  O
  O4       1.0000 0.32340  0.25680  0.29310  Biso   1.000  O
  H1       1.0000 0.28500  0.20680  0.85700  Biso   1.000  H
  H2       1.0000 0.71500  0.70680  0.64300  Biso   1.000  H
  H3       1.0000 0.71500  0.79320  0.14300  Biso   1.000  H
  H4       1.0000 0.28500  0.29320  0.35700  Biso   1.000  H
  H5       1.0000 0.43400  0.25790  0.87700  Biso   1.000  H
  H6       1.0000 0.56600  0.75790  0.62300  Biso   1.000  H
  H7       1.0000 0.56600  0.74210  0.12300  Biso   1.000  H
  H8       1.0000 0.43400  0.24210  0.37700  Biso   1.000  H
  N1       1.0000 0.87740  0.37110  0.62880  Biso   1.000  N
  N2       1.0000 0.12260  0.87110  0.87120  Biso   1.000  N
  N3       1.0000 0.12260  0.62890  0.37120  Biso   1.000  N
  N4       1.0000 0.87740  0.12890  0.12880  Biso   1.000  N
  C1       1.0000 0.85970  0.41566  0.45950  Biso   1.000  C
  C2       1.0000 0.14030  0.91566  0.04050  Biso   1.000  C
  C3       1.0000 0.14030  0.58434  0.54050  Biso   1.000  C
  C4       1.0000 0.85970  0.08434  0.95950  Biso   1.000  C
  O5       1.0000 0.67530  0.30013  0.02330  Biso   1.000  O
  O6       1.0000 0.32470  0.80013  0.47670  Biso   1.000  O
  O7       1.0000 0.32470  0.69987  0.97670  Biso   1.000  O
  O8       1.0000 0.67530  0.19987  0.52330  Biso   1.000  O
  O9       1.0000 0.96040  0.28099  0.95130  Biso   1.000  O
  O10      1.0000 0.03960  0.78099  0.54870  Biso   1.000  O
  O11      1.0000 0.03960  0.71901  0.04870  Biso   1.000  O
  O12      1.0000 0.96040  0.21901  0.45130  Biso   1.000  O
  O13      1.0000 0.29030  0.39866  0.98030  Biso   1.000  O
  O14      1.0000 0.70970  0.89866  0.51970  Biso   1.000  O
  O15      1.0000 0.70970  0.60134  0.01970  Biso   1.000  O
  O16      1.0000 0.29030  0.10134  0.48030  Biso   1.000  O
  H9       1.0000 0.37700  0.37200  0.07500  Biso   1.000  H
  H10      1.0000 0.62300  0.87200  0.42500  Biso   1.000  H
  H11      1.0000 0.62300  0.62800  0.92500  Biso   1.000  H
  H12      1.0000 0.37700  0.12800  0.57500  Biso   1.000  H
  H13      1.0000 0.20900  0.41200  0.05300  Biso   1.000  H
  H14      1.0000 0.79100  0.91200  0.44700  Biso   1.000  H
  H15      1.0000 0.79100  0.58800  0.94700  Biso   1.000  H
  H16      1.0000 0.20900  0.08800  0.55300  Biso   1.000  H
  C5       1.0000 0.70900  0.46615  0.39970  Biso   1.000  C
  C6       1.0000 0.29100  0.96615  0.10030  Biso   1.000  C
  C7       1.0000 0.29100  0.53385  0.60030  Biso   1.000  C
  C8       1.0000 0.70900  0.03385  0.89970  Biso   1.000  C
  H17      1.0000 0.69470  0.49640  0.27800  Biso   1.000  H
  H18      1.0000 0.30530  0.99640  0.22200  Biso   1.000  H
  H19      1.0000 0.30530  0.50360  0.72200  Biso   1.000  H
  H20      1.0000 0.69470  0.00360  0.77800  Biso   1.000  H
  C9       1.0000 0.57790  0.47128  0.52430  Biso   1.000  C
  C10      1.0000 0.42210  0.97128  0.97570  Biso   1.000  C
  C11      1.0000 0.42210  0.52872  0.47570  Biso   1.000  C
  C12      1.0000 0.57790  0.02872  0.02430  Biso   1.000  C
  O17      1.0000 0.01780  0.43890  0.18820  Biso   1.000  O
  O18      1.0000 0.98220  0.93890  0.31180  Biso   1.000  O
  O19      1.0000 0.98220  0.56110  0.81180  Biso   1.000  O
  O20      1.0000 0.01780  0.06110  0.68820  Biso   1.000  O
  O21      1.0000 0.16060  0.36227  0.46310  Biso   1.000  O
  O22      1.0000 0.83940  0.86227  0.03690  Biso   1.000  O
  O23      1.0000 0.83940  0.63773  0.53690  Biso   1.000  O
  O24      1.0000 0.16060  0.13773  0.96310  Biso   1.000  O
  C13      1.0000 0.59670  0.42108  0.69520  Biso   1.000  C
  C14      1.0000 0.40330  0.92108  0.80480  Biso   1.000  C
  C15      1.0000 0.40330  0.57892  0.30480  Biso   1.000  C
  C16      1.0000 0.59670  0.07892  0.19520  Biso   1.000  C
  H21      1.0000 0.50760  0.42150  0.77640  Biso   1.000  H
  H22      1.0000 0.49240  0.92150  0.72360  Biso   1.000  H
  H23      1.0000 0.49240  0.57850  0.22360  Biso   1.000  H
  H24      1.0000 0.50760  0.07850  0.27640  Biso   1.000  H
  C17      1.0000 0.74820  0.37109  0.74220  Biso   1.000  C
  C18      1.0000 0.25180  0.87109  0.75780  Biso   1.000  C
  C19      1.0000 0.25180  0.62891  0.25780  Biso   1.000  C
  C20      1.0000 0.74820  0.12891  0.24220  Biso   1.000  C
  C21      1.0000 0.02360  0.40604  0.35590  Biso   1.000  C
  C22      1.0000 0.97640  0.90604  0.14410  Biso   1.000  C
  C23      1.0000 0.97640  0.59396  0.64410  Biso   1.000  C
  C24      1.0000 0.02360  0.09396  0.85590  Biso   1.000  C
  C25      1.0000 0.79370  0.31246  0.92100  Biso   1.000  C
  C26      1.0000 0.20630  0.81246  0.57900  Biso   1.000  C
  C27      1.0000 0.20630  0.68754  0.07900  Biso   1.000  C
  C28      1.0000 0.79370  0.18754  0.42100  Biso   1.000  C
