data_image0
_cell_length_a       7.1533
_cell_length_b       18.168
_cell_length_c       6.3974
_cell_angle_alpha    90
_cell_angle_beta     107.124
_cell_angle_gamma    90

_symmetry_space_group_name_H-M    "P 1"
_symmetry_int_tables_number       1

loop_
  _symmetry_equiv_pos_as_xyz
  'x, y, z'

loop_
  _atom_site_label
  _atom_site_occupancy
  _atom_site_fract_x
  _atom_site_fract_y
  _atom_site_fract_z
  _atom_site_thermal_displace_type
  _atom_site_B_iso_or_equiv
  _atom_site_type_symbol
  Cu1      1.0000 0.09740  0.30787  0.21700  Biso   1.000  Cu
  Cu2      1.0000 0.90260  0.80787  0.28300  Biso   1.000  Cu
  Cu3      1.0000 0.90260  0.69213  0.78300  Biso   1.000  Cu
  Cu4      1.0000 0.09740  0.19213  0.71700  Biso   1.000  Cu
  N1       1.0000 0.87850  0.37140  0.12850  Biso   1.000  N
  N2       1.0000 0.12150  0.87140  0.37150  Biso   1.000  N
  N3       1.0000 0.12150  0.62860  0.87150  Biso   1.000  N
  N4       1.0000 0.87850  0.12860  0.62850  Biso   1.000  N
  O1       1.0000 0.67450  0.30030  0.52130  Biso   1.000  O
  O2       1.0000 0.32550  0.80030  0.97870  Biso   1.000  O
  O3       1.0000 0.32550  0.69970  0.47870  Biso   1.000  O
  O4       1.0000 0.67450  0.19970  0.02130  Biso   1.000  O
  O5       1.0000 0.96020  0.28080  0.44950  Biso   1.000  O
  O6       1.0000 0.03980  0.78080  0.05050  Biso   1.000  O
  O7       1.0000 0.03980  0.71920  0.55050  Biso   1.000  O
  O8       1.0000 0.96020  0.21920  0.94950  Biso   1.000  O
  O9       1.0000 0.16050  0.36260  0.96270  Biso   1.000  O
  O10      1.0000 0.83950  0.86260  0.53730  Biso   1.000  O
  O11      1.0000 0.83950  0.63740  0.03730  Biso   1.000  O
  O12      1.0000 0.16050  0.13740  0.46270  Biso   1.000  O
  C1       1.0000 0.79360  0.31310  0.42260  Biso   1.000  C
  C2       1.0000 0.20640  0.81310  0.07740  Biso   1.000  C
  C3       1.0000 0.20640  0.68690  0.57740  Biso   1.000  C
  C4       1.0000 0.79360  0.18690  0.92260  Biso   1.000  C
  O13      1.0000 0.01800  0.43860  0.68760  Biso   1.000  O
  O14      1.0000 0.98200  0.93860  0.81240  Biso   1.000  O
  O15      1.0000 0.98200  0.56140  0.31240  Biso   1.000  O
  O16      1.0000 0.01800  0.06140  0.18760  Biso   1.000  O
  O17      1.0000 0.32520  0.24350  0.29640  Biso   1.000  O
  O18      1.0000 0.67480  0.74350  0.20360  Biso   1.000  O
  O19      1.0000 0.67480  0.75650  0.70360  Biso   1.000  O
  O20      1.0000 0.32520  0.25650  0.79640  Biso   1.000  O
  H1       1.0000 0.33730  0.22500  0.17890  Biso   1.000  H
  H2       1.0000 0.66270  0.72500  0.32110  Biso   1.000  H
  H3       1.0000 0.66270  0.77500  0.82110  Biso   1.000  H
  H4       1.0000 0.33730  0.27500  0.67890  Biso   1.000  H
  H5       1.0000 0.30020  0.20820  0.37130  Biso   1.000  H
  H6       1.0000 0.69980  0.70820  0.12870  Biso   1.000  H
  H7       1.0000 0.69980  0.79180  0.62870  Biso   1.000  H
  H8       1.0000 0.30020  0.29180  0.87130  Biso   1.000  H
  C5       1.0000 0.59760  0.42150  0.19590  Biso   1.000  C
  C6       1.0000 0.40240  0.92150  0.30410  Biso   1.000  C
  C7       1.0000 0.40240  0.57850  0.80410  Biso   1.000  C
  C8       1.0000 0.59760  0.07850  0.69590  Biso   1.000  C
  H9       1.0000 0.51020  0.42260  0.27840  Biso   1.000  H
  H10      1.0000 0.48980  0.92260  0.22160  Biso   1.000  H
  H11      1.0000 0.48980  0.57740  0.72160  Biso   1.000  H
  H12      1.0000 0.51020  0.07740  0.77840  Biso   1.000  H
  C9       1.0000 0.86100  0.41630  0.96010  Biso   1.000  C
  C10      1.0000 0.13900  0.91630  0.53990  Biso   1.000  C
  C11      1.0000 0.13900  0.58370  0.03990  Biso   1.000  C
  C12      1.0000 0.86100  0.08370  0.46010  Biso   1.000  C
  C13      1.0000 0.70860  0.46670  0.89910  Biso   1.000  C
  C14      1.0000 0.29140  0.96670  0.60090  Biso   1.000  C
  C15      1.0000 0.29140  0.53330  0.10090  Biso   1.000  C
  C16      1.0000 0.70860  0.03330  0.39910  Biso   1.000  C
  H13      1.0000 0.69450  0.49700  0.77840  Biso   1.000  H
  H14      1.0000 0.30550  0.99700  0.72160  Biso   1.000  H
  H15      1.0000 0.30550  0.50300  0.22160  Biso   1.000  H
  H16      1.0000 0.69450  0.00300  0.27840  Biso   1.000  H
  C17      1.0000 0.74890  0.37120  0.24310  Biso   1.000  C
  C18      1.0000 0.25110  0.87120  0.25690  Biso   1.000  C
  C19      1.0000 0.25110  0.62880  0.75690  Biso   1.000  C
  C20      1.0000 0.74890  0.12880  0.74310  Biso   1.000  C
  C21      1.0000 0.02370  0.40590  0.85610  Biso   1.000  C
  C22      1.0000 0.97630  0.90590  0.64390  Biso   1.000  C
  C23      1.0000 0.97630  0.59410  0.14390  Biso   1.000  C
  C24      1.0000 0.02370  0.09410  0.35610  Biso   1.000  C
  C25      1.0000 0.57710  0.47090  0.02210  Biso   1.000  C
  C26      1.0000 0.42290  0.97090  0.47790  Biso   1.000  C
  C27      1.0000 0.42290  0.52910  0.97790  Biso   1.000  C
  C28      1.0000 0.57710  0.02910  0.52210  Biso   1.000  C
  O21      1.0000 0.29040  0.39840  0.48210  Biso   1.000  O
  O22      1.0000 0.70960  0.89840  0.01790  Biso   1.000  O
  O23      1.0000 0.70960  0.60160  0.51790  Biso   1.000  O
  O24      1.0000 0.29040  0.10160  0.98210  Biso   1.000  O
