data_image0
_cell_length_a       11.929
_cell_length_b       6.704
_cell_length_c       15.865
_cell_angle_alpha    90
_cell_angle_beta     91.411
_cell_angle_gamma    90

_symmetry_space_group_name_H-M    "P 1"
_symmetry_int_tables_number       1

loop_
  _symmetry_equiv_pos_as_xyz
  'x, y, z'

loop_
  _atom_site_label
  _atom_site_occupancy
  _atom_site_fract_x
  _atom_site_fract_y
  _atom_site_fract_z
  _atom_site_thermal_displace_type
  _atom_site_B_iso_or_equiv
  _atom_site_type_symbol
  C1       1.0000 0.75270  0.15960  0.15440  Biso   1.000  C
  C2       1.0000 0.24730  0.65960  0.34560  Biso   1.000  C
  C3       1.0000 0.24730  0.84040  0.84560  Biso   1.000  C
  C4       1.0000 0.75270  0.34040  0.65440  Biso   1.000  C
  C5       1.0000 0.86440  0.25530  0.14016  Biso   1.000  C
  C6       1.0000 0.13560  0.75530  0.35984  Biso   1.000  C
  C7       1.0000 0.13560  0.74470  0.85984  Biso   1.000  C
  C8       1.0000 0.86440  0.24470  0.64016  Biso   1.000  C
  C9       1.0000 0.87790  0.42540  0.18695  Biso   1.000  C
  C10      1.0000 0.12210  0.92540  0.31305  Biso   1.000  C
  C11      1.0000 0.12210  0.57460  0.81305  Biso   1.000  C
  C12      1.0000 0.87790  0.07460  0.68695  Biso   1.000  C
  C13      1.0000 0.97210  0.54390  0.18280  Biso   1.000  C
  C14      1.0000 0.02790  0.04390  0.31720  Biso   1.000  C
  C15      1.0000 0.02790  0.45610  0.81720  Biso   1.000  C
  C16      1.0000 0.97210  0.95610  0.68280  Biso   1.000  C
  H1       1.0000 0.97920  0.66090  0.21400  Biso   1.000  H
  H2       1.0000 0.02080  0.16090  0.28600  Biso   1.000  H
  H3       1.0000 0.02080  0.33910  0.78600  Biso   1.000  H
  H4       1.0000 0.97920  0.83910  0.71400  Biso   1.000  H
  C17      1.0000 0.05570  0.48020  0.13000  Biso   1.000  C
  C18      1.0000 0.94430  0.98020  0.37000  Biso   1.000  C
  C19      1.0000 0.94430  0.51980  0.87000  Biso   1.000  C
  C20      1.0000 0.05570  0.01980  0.63000  Biso   1.000  C
  H5       1.0000 0.12060  0.55580  0.12540  Biso   1.000  H
  H6       1.0000 0.87940  0.05580  0.37460  Biso   1.000  H
  H7       1.0000 0.87940  0.44420  0.87460  Biso   1.000  H
  H8       1.0000 0.12060  0.94420  0.62540  Biso   1.000  H
  C21      1.0000 0.04410  0.30710  0.08450  Biso   1.000  C
  C22      1.0000 0.95590  0.80710  0.41550  Biso   1.000  C
  C23      1.0000 0.95590  0.69290  0.91550  Biso   1.000  C
  C24      1.0000 0.04410  0.19290  0.58450  Biso   1.000  C
  H9       1.0000 0.10230  0.26570  0.05060  Biso   1.000  H
  H10      1.0000 0.89770  0.76570  0.44940  Biso   1.000  H
  H11      1.0000 0.89770  0.73430  0.94940  Biso   1.000  H
  H12      1.0000 0.10230  0.23430  0.55060  Biso   1.000  H
  C25      1.0000 0.94810  0.19320  0.08780  Biso   1.000  C
  C26      1.0000 0.05190  0.69320  0.41220  Biso   1.000  C
  C27      1.0000 0.05190  0.80680  0.91220  Biso   1.000  C
  C28      1.0000 0.94810  0.30680  0.58780  Biso   1.000  C
  H13      1.0000 0.94000  0.07790  0.05560  Biso   1.000  H
  H14      1.0000 0.06000  0.57790  0.44440  Biso   1.000  H
  H15      1.0000 0.06000  0.92210  0.94440  Biso   1.000  H
  H16      1.0000 0.94000  0.42210  0.55560  Biso   1.000  H
  C29      1.0000 0.61260  0.12850  0.41924  Biso   1.000  C
  C30      1.0000 0.38740  0.62850  0.08076  Biso   1.000  C
  C31      1.0000 0.38740  0.87150  0.58076  Biso   1.000  C
  C32      1.0000 0.61260  0.37150  0.91924  Biso   1.000  C
  H17      1.0000 0.61710  0.26680  0.41630  Biso   1.000  H
  H18      1.0000 0.38290  0.76680  0.08370  Biso   1.000  H
  H19      1.0000 0.38290  0.73320  0.58370  Biso   1.000  H
  H20      1.0000 0.61710  0.23320  0.91630  Biso   1.000  H
  C33      1.0000 0.65900  0.03290  0.48931  Biso   1.000  C
  C34      1.0000 0.34100  0.53290  0.01069  Biso   1.000  C
  C35      1.0000 0.34100  0.96710  0.51069  Biso   1.000  C
  C36      1.0000 0.65900  0.46710  0.98931  Biso   1.000  C
  C37      1.0000 0.59960  0.73710  0.42490  Biso   1.000  C
  C38      1.0000 0.40040  0.23710  0.07510  Biso   1.000  C
  C39      1.0000 0.40040  0.26290  0.57510  Biso   1.000  C
  C40      1.0000 0.59960  0.76290  0.92490  Biso   1.000  C
  H21      1.0000 0.59430  0.59870  0.42600  Biso   1.000  H
  H22      1.0000 0.40570  0.09870  0.07400  Biso   1.000  H
  H23      1.0000 0.40570  0.40130  0.57400  Biso   1.000  H
  H24      1.0000 0.59430  0.90130  0.92600  Biso   1.000  H
  C41      1.0000 0.65240  0.83180  0.49270  Biso   1.000  C
  C42      1.0000 0.34760  0.33180  0.00730  Biso   1.000  C
  C43      1.0000 0.34760  0.16820  0.50730  Biso   1.000  C
  C44      1.0000 0.65240  0.66820  0.99270  Biso   1.000  C
  Cu1      1.0000 0.50904  0.18391  0.24763  Biso   1.000  Cu
  Cu2      1.0000 0.49096  0.68391  0.25237  Biso   1.000  Cu
  Cu3      1.0000 0.49096  0.81609  0.75237  Biso   1.000  Cu
  Cu4      1.0000 0.50904  0.31609  0.74763  Biso   1.000  Cu
  N1       1.0000 0.69279  0.25600  0.21308  Biso   1.000  N
  N2       1.0000 0.30721  0.75600  0.28692  Biso   1.000  N
  N3       1.0000 0.30721  0.74400  0.78692  Biso   1.000  N
  N4       1.0000 0.69279  0.24400  0.71308  Biso   1.000  N
  N5       1.0000 0.56232  0.03110  0.35646  Biso   1.000  N
  N6       1.0000 0.43768  0.53110  0.14354  Biso   1.000  N
  N7       1.0000 0.43768  0.96890  0.64354  Biso   1.000  N
  N8       1.0000 0.56232  0.46890  0.85646  Biso   1.000  N
  N9       1.0000 0.55654  0.83220  0.35896  Biso   1.000  N
  N10      1.0000 0.44346  0.33220  0.14104  Biso   1.000  N
  N11      1.0000 0.44346  0.16780  0.64104  Biso   1.000  N
  N12      1.0000 0.55654  0.66780  0.85896  Biso   1.000  N
  O1       1.0000 0.71888  0.01460  0.11388  Biso   1.000  O
  O2       1.0000 0.28112  0.51460  0.38612  Biso   1.000  O
  O3       1.0000 0.28112  0.98540  0.88612  Biso   1.000  O
  O4       1.0000 0.71888  0.48540  0.61388  Biso   1.000  O
  O5       1.0000 0.69649  0.62840  0.22300  Biso   1.000  O
  O6       1.0000 0.30351  0.12840  0.27700  Biso   1.000  O
  O7       1.0000 0.30351  0.37160  0.77700  Biso   1.000  O
  O8       1.0000 0.69649  0.87160  0.72300  Biso   1.000  O
  O9       1.0000 0.50944  0.92920  0.19046  Biso   1.000  O
  O10      1.0000 0.49056  0.42920  0.30954  Biso   1.000  O
  O11      1.0000 0.49056  0.07080  0.80954  Biso   1.000  O
  O12      1.0000 0.50944  0.57080  0.69046  Biso   1.000  O
  O13      1.0000 0.78421  0.43530  0.33621  Biso   1.000  O
  O14      1.0000 0.21579  0.93530  0.16379  Biso   1.000  O
  O15      1.0000 0.21579  0.56470  0.66379  Biso   1.000  O
  O16      1.0000 0.78421  0.06470  0.83621  Biso   1.000  O
  S1       1.0000 0.75709  0.45184  0.24796  Biso   1.000  S
  S2       1.0000 0.24291  0.95184  0.25204  Biso   1.000  S
  S3       1.0000 0.24291  0.54816  0.75204  Biso   1.000  S
  S4       1.0000 0.75709  0.04816  0.74796  Biso   1.000  S
  H25      1.0000 0.69600  0.10900  0.52970  Biso   1.000  H
  H26      1.0000 0.30400  0.60900  0.97030  Biso   1.000  H
  H27      1.0000 0.30400  0.89100  0.47030  Biso   1.000  H
  H28      1.0000 0.69600  0.39100  0.02970  Biso   1.000  H
  H29      1.0000 0.68700  0.75900  0.53490  Biso   1.000  H
  H30      1.0000 0.31300  0.25900  0.96510  Biso   1.000  H
  H31      1.0000 0.31300  0.24100  0.46510  Biso   1.000  H
  H32      1.0000 0.68700  0.74100  0.03490  Biso   1.000  H
  H33      1.0000 0.57550  0.92400  0.16950  Biso   1.000  H
  H34      1.0000 0.42450  0.42400  0.33050  Biso   1.000  H
  H35      1.0000 0.42450  0.07600  0.83050  Biso   1.000  H
  H36      1.0000 0.57550  0.57600  0.66950  Biso   1.000  H
