data_image0
_cell_length_a       12.2645
_cell_length_b       10.9252
_cell_length_c       15.3261
_cell_angle_alpha    90
_cell_angle_beta     109.134
_cell_angle_gamma    90

_symmetry_space_group_name_H-M    "P 1"
_symmetry_int_tables_number       1

loop_
  _symmetry_equiv_pos_as_xyz
  'x, y, z'

loop_
  _atom_site_label
  _atom_site_occupancy
  _atom_site_fract_x
  _atom_site_fract_y
  _atom_site_fract_z
  _atom_site_thermal_displace_type
  _atom_site_B_iso_or_equiv
  _atom_site_type_symbol
  Cu1      1.0000 0.85446  0.61708  0.12209  Biso   1.000  Cu
  Cu2      1.0000 0.64554  0.11708  0.37791  Biso   1.000  Cu
  Cu3      1.0000 0.14554  0.38292  0.87791  Biso   1.000  Cu
  Cu4      1.0000 0.35446  0.88292  0.62209  Biso   1.000  Cu
  Cu5      1.0000 0.49009  0.85494  0.47560  Biso   1.000  Cu
  Cu6      1.0000 0.00991  0.35494  0.02440  Biso   1.000  Cu
  Cu7      1.0000 0.50991  0.14506  0.52440  Biso   1.000  Cu
  Cu8      1.0000 0.99009  0.64506  0.97560  Biso   1.000  Cu
  C1       1.0000 0.12000  0.61130  0.36650  Biso   1.000  C
  C2       1.0000 0.38000  0.11130  0.13350  Biso   1.000  C
  C3       1.0000 0.88000  0.38870  0.63350  Biso   1.000  C
  C4       1.0000 0.62000  0.88870  0.86650  Biso   1.000  C
  H1       1.0000 0.19630  0.59720  0.40240  Biso   1.000  H
  H2       1.0000 0.30370  0.09720  0.09760  Biso   1.000  H
  H3       1.0000 0.80370  0.40280  0.59760  Biso   1.000  H
  H4       1.0000 0.69630  0.90280  0.90240  Biso   1.000  H
  C5       1.0000 0.93900  0.65740  0.32570  Biso   1.000  C
  C6       1.0000 0.56100  0.15740  0.17430  Biso   1.000  C
  C7       1.0000 0.06100  0.34260  0.67430  Biso   1.000  C
  C8       1.0000 0.43900  0.84260  0.82570  Biso   1.000  C
  H5       1.0000 0.86650  0.68050  0.32680  Biso   1.000  H
  H6       1.0000 0.63350  0.18050  0.17320  Biso   1.000  H
  H7       1.0000 0.13350  0.31950  0.67320  Biso   1.000  H
  H8       1.0000 0.36650  0.81950  0.82680  Biso   1.000  H
  C9       1.0000 0.03690  0.65200  0.49500  Biso   1.000  C
  C10      1.0000 0.46310  0.15200  0.00500  Biso   1.000  C
  C11      1.0000 0.96310  0.34800  0.50500  Biso   1.000  C
  C12      1.0000 0.53690  0.84800  0.99500  Biso   1.000  C
  C13      1.0000 0.13500  0.62780  0.56750  Biso   1.000  C
  C14      1.0000 0.36500  0.12780  0.93250  Biso   1.000  C
  C15      1.0000 0.86500  0.37220  0.43250  Biso   1.000  C
  C16      1.0000 0.63500  0.87220  0.06750  Biso   1.000  C
  H9       1.0000 0.20450  0.60950  0.55820  Biso   1.000  H
  H10      1.0000 0.29550  0.10950  0.94180  Biso   1.000  H
  H11      1.0000 0.79550  0.39050  0.44180  Biso   1.000  H
  H12      1.0000 0.70450  0.89050  0.05820  Biso   1.000  H
  C17      1.0000 0.12620  0.63180  0.65480  Biso   1.000  C
  C18      1.0000 0.37380  0.13180  0.84520  Biso   1.000  C
  C19      1.0000 0.87380  0.36820  0.34520  Biso   1.000  C
  C20      1.0000 0.62620  0.86820  0.15480  Biso   1.000  C
  H13      1.0000 0.19090  0.61640  0.70600  Biso   1.000  H
  H14      1.0000 0.30910  0.11640  0.79400  Biso   1.000  H
  H15      1.0000 0.80910  0.38360  0.29400  Biso   1.000  H
  H16      1.0000 0.69090  0.88360  0.20600  Biso   1.000  H
  C21      1.0000 0.02220  0.65870  0.66680  Biso   1.000  C
  C22      1.0000 0.47780  0.15870  0.83320  Biso   1.000  C
  C23      1.0000 0.97780  0.34130  0.33320  Biso   1.000  C
  C24      1.0000 0.52220  0.84130  0.16680  Biso   1.000  C
  H17      1.0000 0.01410  0.66030  0.72510  Biso   1.000  H
  H18      1.0000 0.48590  0.16030  0.77490  Biso   1.000  H
  H19      1.0000 0.98590  0.33970  0.27490  Biso   1.000  H
  H20      1.0000 0.51410  0.83970  0.22510  Biso   1.000  H
  C25      1.0000 0.93080  0.68290  0.58790  Biso   1.000  C
  C26      1.0000 0.56920  0.18290  0.91210  Biso   1.000  C
  C27      1.0000 0.06920  0.31710  0.41210  Biso   1.000  C
  C28      1.0000 0.43080  0.81710  0.08790  Biso   1.000  C
  C29      1.0000 0.73600  0.77610  0.52530  Biso   1.000  C
  C30      1.0000 0.76400  0.27610  0.97470  Biso   1.000  C
  C31      1.0000 0.26400  0.22390  0.47470  Biso   1.000  C
  C32      1.0000 0.23600  0.72390  0.02530  Biso   1.000  C
  H21      1.0000 0.74260  0.80470  0.47010  Biso   1.000  H
  H22      1.0000 0.75740  0.30470  0.02990  Biso   1.000  H
  H23      1.0000 0.25740  0.19530  0.52990  Biso   1.000  H
  H24      1.0000 0.24260  0.69530  0.97010  Biso   1.000  H
  C33      1.0000 0.77210  0.69160  0.65960  Biso   1.000  C
  C34      1.0000 0.72790  0.19160  0.84040  Biso   1.000  C
  C35      1.0000 0.22790  0.30840  0.34040  Biso   1.000  C
  C36      1.0000 0.27210  0.80840  0.15960  Biso   1.000  C
  H25      1.0000 0.80990  0.65110  0.71450  Biso   1.000  H
  H26      1.0000 0.69010  0.15110  0.78550  Biso   1.000  H
  H27      1.0000 0.19010  0.34890  0.28550  Biso   1.000  H
  H28      1.0000 0.30990  0.84890  0.21450  Biso   1.000  H
  C37      1.0000 0.56230  0.51780  0.18090  Biso   1.000  C
  C38      1.0000 0.93770  0.01780  0.31910  Biso   1.000  C
  C39      1.0000 0.43770  0.48220  0.81910  Biso   1.000  C
  C40      1.0000 0.06230  0.98220  0.68090  Biso   1.000  C
  C41      1.0000 0.55600  0.58160  0.25790  Biso   1.000  C
  C42      1.0000 0.94400  0.08160  0.24210  Biso   1.000  C
  C43      1.0000 0.44400  0.41840  0.74210  Biso   1.000  C
  C44      1.0000 0.05600  0.91840  0.75790  Biso   1.000  C
  H29      1.0000 0.61980  0.62530  0.29430  Biso   1.000  H
  H30      1.0000 0.88020  0.12530  0.20570  Biso   1.000  H
  H31      1.0000 0.38020  0.37470  0.70570  Biso   1.000  H
  H32      1.0000 0.11980  0.87470  0.79430  Biso   1.000  H
  C45      1.0000 0.45510  0.58060  0.28080  Biso   1.000  C
  C46      1.0000 0.04490  0.08060  0.21920  Biso   1.000  C
  C47      1.0000 0.54490  0.41940  0.71920  Biso   1.000  C
  C48      1.0000 0.95510  0.91940  0.78080  Biso   1.000  C
  C49      1.0000 0.35920  0.51900  0.22450  Biso   1.000  C
  C50      1.0000 0.14080  0.01900  0.27550  Biso   1.000  C
  C51      1.0000 0.64080  0.48100  0.77550  Biso   1.000  C
  C52      1.0000 0.85920  0.98100  0.72450  Biso   1.000  C
  H33      1.0000 0.29190  0.51730  0.23980  Biso   1.000  H
  H34      1.0000 0.20810  0.01730  0.26020  Biso   1.000  H
  H35      1.0000 0.70810  0.48270  0.76020  Biso   1.000  H
  H36      1.0000 0.79190  0.98270  0.73980  Biso   1.000  H
  C53      1.0000 0.36300  0.45980  0.14560  Biso   1.000  C
  C54      1.0000 0.13700  0.95980  0.35440  Biso   1.000  C
  C55      1.0000 0.63700  0.54020  0.85440  Biso   1.000  C
  C56      1.0000 0.86300  0.04020  0.64560  Biso   1.000  C
  C57      1.0000 0.46500  0.45850  0.12470  Biso   1.000  C
  C58      1.0000 0.03500  0.95850  0.37530  Biso   1.000  C
  C59      1.0000 0.53500  0.54150  0.87530  Biso   1.000  C
  C60      1.0000 0.96500  0.04150  0.62470  Biso   1.000  C
  H37      1.0000 0.46790  0.41730  0.07240  Biso   1.000  H
  H38      1.0000 0.03210  0.91730  0.42760  Biso   1.000  H
  H39      1.0000 0.53210  0.58270  0.92760  Biso   1.000  H
  H40      1.0000 0.96790  0.08270  0.57240  Biso   1.000  H
  C61      1.0000 0.67160  0.51870  0.15620  Biso   1.000  C
  C62      1.0000 0.82840  0.01870  0.34380  Biso   1.000  C
  C63      1.0000 0.32840  0.48130  0.84380  Biso   1.000  C
  C64      1.0000 0.17160  0.98130  0.65620  Biso   1.000  C
  C65      1.0000 0.44730  0.65340  0.36210  Biso   1.000  C
  C66      1.0000 0.05270  0.15340  0.13790  Biso   1.000  C
  C67      1.0000 0.55270  0.34660  0.63790  Biso   1.000  C
  C68      1.0000 0.94730  0.84660  0.86210  Biso   1.000  C
  C69      1.0000 0.25460  0.40600  0.07840  Biso   1.000  C
  C70      1.0000 0.24540  0.90600  0.42160  Biso   1.000  C
  C71      1.0000 0.74540  0.59400  0.92160  Biso   1.000  C
  C72      1.0000 0.75460  0.09400  0.57840  Biso   1.000  C
  N1       1.0000 0.96440  0.63110  0.25105  Biso   1.000  N
  N2       1.0000 0.53560  0.13110  0.24895  Biso   1.000  N
  N3       1.0000 0.03560  0.36890  0.74895  Biso   1.000  N
  N4       1.0000 0.46440  0.86890  0.75105  Biso   1.000  N
  N5       1.0000 0.08060  0.60110  0.27740  Biso   1.000  N
  N6       1.0000 0.41940  0.10110  0.22260  Biso   1.000  N
  N7       1.0000 0.91940  0.39890  0.72260  Biso   1.000  N
  N8       1.0000 0.58060  0.89890  0.77740  Biso   1.000  N
  N9       1.0000 0.03470  0.64560  0.40105  Biso   1.000  N
  N10      1.0000 0.46530  0.14560  0.09895  Biso   1.000  N
  N11      1.0000 0.96530  0.35440  0.59895  Biso   1.000  N
  N12      1.0000 0.53470  0.85440  0.90105  Biso   1.000  N
  N13      1.0000 0.93530  0.67950  0.50247  Biso   1.000  N
  N14      1.0000 0.56470  0.17950  0.99753  Biso   1.000  N
  N15      1.0000 0.06470  0.32050  0.49753  Biso   1.000  N
  N16      1.0000 0.43530  0.82050  0.00247  Biso   1.000  N
  N17      1.0000 0.81930  0.71560  0.59177  Biso   1.000  N
  N18      1.0000 0.68070  0.21560  0.90823  Biso   1.000  N
  N19      1.0000 0.18070  0.28440  0.40823  Biso   1.000  N
  N20      1.0000 0.31930  0.78440  0.09177  Biso   1.000  N
  N21      1.0000 0.64520  0.78770  0.55064  Biso   1.000  N
  N22      1.0000 0.85480  0.28770  0.94936  Biso   1.000  N
  N23      1.0000 0.35480  0.21230  0.44936  Biso   1.000  N
  N24      1.0000 0.14520  0.71230  0.05064  Biso   1.000  N
  N25      1.0000 0.66710  0.73330  0.63645  Biso   1.000  N
  N26      1.0000 0.83290  0.23330  0.86355  Biso   1.000  N
  N27      1.0000 0.33290  0.26670  0.36355  Biso   1.000  N
  N28      1.0000 0.16710  0.76670  0.13645  Biso   1.000  N
  O1       1.0000 0.72858  0.61890  0.17307  Biso   1.000  O
  O2       1.0000 0.77142  0.11890  0.32693  Biso   1.000  O
  O3       1.0000 0.27142  0.38110  0.82693  Biso   1.000  O
  O4       1.0000 0.22858  0.88110  0.67307  Biso   1.000  O
  O5       1.0000 0.70020  0.42640  0.12370  Biso   1.000  O
  O6       1.0000 0.79980  0.92640  0.37630  Biso   1.000  O
  O7       1.0000 0.29980  0.57360  0.87630  Biso   1.000  O
  O8       1.0000 0.20020  0.07360  0.62370  Biso   1.000  O
  O9       1.0000 0.50075  0.75560  0.37378  Biso   1.000  O
  O10      1.0000 0.99925  0.25560  0.12622  Biso   1.000  O
  O11      1.0000 0.49925  0.24440  0.62622  Biso   1.000  O
  O12      1.0000 0.00075  0.74440  0.87378  Biso   1.000  O
  O13      1.0000 0.39180  0.61310  0.40953  Biso   1.000  O
  O14      1.0000 0.10820  0.11310  0.09047  Biso   1.000  O
  O15      1.0000 0.60820  0.38690  0.59047  Biso   1.000  O
  O16      1.0000 0.89180  0.88690  0.90953  Biso   1.000  O
  O17      1.0000 0.16650  0.40340  0.10314  Biso   1.000  O
  O18      1.0000 0.33350  0.90340  0.39686  Biso   1.000  O
  O19      1.0000 0.83350  0.59660  0.89686  Biso   1.000  O
  O20      1.0000 0.66650  0.09660  0.60314  Biso   1.000  O
  O21      1.0000 0.26060  0.37010  0.00235  Biso   1.000  O
  O22      1.0000 0.23940  0.87010  0.49765  Biso   1.000  O
  O23      1.0000 0.73940  0.62990  0.99765  Biso   1.000  O
  O24      1.0000 0.76060  0.12990  0.50235  Biso   1.000  O
  O25      1.0000 0.97200  0.55290  0.07772  Biso   1.000  O
  O26      1.0000 0.52800  0.05290  0.42228  Biso   1.000  O
  O27      1.0000 0.02800  0.44710  0.92228  Biso   1.000  O
  O28      1.0000 0.47200  0.94710  0.57772  Biso   1.000  O
  O29      1.0000 0.91120  0.83060  0.09338  Biso   1.000  O
  O30      1.0000 0.58880  0.33060  0.40662  Biso   1.000  O
  O31      1.0000 0.08880  0.16940  0.90662  Biso   1.000  O
  O32      1.0000 0.41120  0.66940  0.59338  Biso   1.000  O
  H41      1.0000 0.91200  0.85410  0.04020  Biso   1.000  H
  H42      1.0000 0.58800  0.35410  0.45980  Biso   1.000  H
  H43      1.0000 0.08800  0.14590  0.95980  Biso   1.000  H
  H44      1.0000 0.41200  0.64590  0.54020  Biso   1.000  H
  H45      1.0000 0.97270  0.83590  0.12350  Biso   1.000  H
  H46      1.0000 0.52730  0.33590  0.37650  Biso   1.000  H
  H47      1.0000 0.02730  0.16410  0.87650  Biso   1.000  H
  H48      1.0000 0.47270  0.66410  0.62350  Biso   1.000  H
  H49      1.0000 0.02500  0.55700  0.11300  Biso   1.000  H
  H50      1.0000 0.47500  0.05700  0.38700  Biso   1.000  H
  H51      1.0000 0.97500  0.44300  0.88700  Biso   1.000  H
  H52      1.0000 0.52500  0.94300  0.61300  Biso   1.000  H
