data_image0
_cell_length_a       9.128
_cell_length_b       9.128
_cell_length_c       36.718
_cell_angle_alpha    90
_cell_angle_beta     90
_cell_angle_gamma    120

_symmetry_space_group_name_H-M    "P 1"
_symmetry_int_tables_number       1

loop_
  _symmetry_equiv_pos_as_xyz
  'x, y, z'

loop_
  _atom_site_label
  _atom_site_occupancy
  _atom_site_fract_x
  _atom_site_fract_y
  _atom_site_fract_z
  _atom_site_thermal_displace_type
  _atom_site_B_iso_or_equiv
  _atom_site_type_symbol
  C1       1.0000 0.27360  0.33860  0.98513  Biso   1.000  C
  C2       1.0000 0.66140  0.93500  0.31846  Biso   1.000  C
  C3       1.0000 0.06500  0.72640  0.65180  Biso   1.000  C
  C4       1.0000 0.93500  0.66140  0.68154  Biso   1.000  C
  C5       1.0000 0.72640  0.06500  0.34820  Biso   1.000  C
  C6       1.0000 0.33860  0.27360  0.01487  Biso   1.000  C
  C7       1.0000 0.18120  0.23190  0.95655  Biso   1.000  C
  C8       1.0000 0.76810  0.94930  0.28988  Biso   1.000  C
  C9       1.0000 0.05070  0.81880  0.62322  Biso   1.000  C
  C10      1.0000 0.94930  0.76810  0.71012  Biso   1.000  C
  C11      1.0000 0.81880  0.05070  0.37678  Biso   1.000  C
  C12      1.0000 0.23190  0.18120  0.04345  Biso   1.000  C
  C13      1.0000 0.11670  0.28780  0.92881  Biso   1.000  C
  C14      1.0000 0.71220  0.82890  0.26214  Biso   1.000  C
  C15      1.0000 0.17110  0.88330  0.59548  Biso   1.000  C
  C16      1.0000 0.82890  0.71220  0.73786  Biso   1.000  C
  C17      1.0000 0.88330  0.17110  0.40452  Biso   1.000  C
  C18      1.0000 0.28780  0.11670  0.07119  Biso   1.000  C
  C19      1.0000 0.14880  0.45430  0.93056  Biso   1.000  C
  C20      1.0000 0.54570  0.69450  0.26389  Biso   1.000  C
  C21      1.0000 0.30550  0.85120  0.59723  Biso   1.000  C
  C22      1.0000 0.69450  0.54570  0.73611  Biso   1.000  C
  C23      1.0000 0.85120  0.30550  0.40277  Biso   1.000  C
  C24      1.0000 0.45430  0.14880  0.06944  Biso   1.000  C
  H1       1.0000 0.10540  0.49290  0.91240  Biso   1.000  H
  H2       1.0000 0.50710  0.61250  0.24573  Biso   1.000  H
  H3       1.0000 0.38750  0.89460  0.57907  Biso   1.000  H
  H4       1.0000 0.61250  0.50710  0.75427  Biso   1.000  H
  H5       1.0000 0.89460  0.38750  0.42093  Biso   1.000  H
  H6       1.0000 0.49290  0.10540  0.08760  Biso   1.000  H
  C25      1.0000 0.27280  0.74170  0.95858  Biso   1.000  C
  C26      1.0000 0.25830  0.53110  0.29191  Biso   1.000  C
  C27      1.0000 0.46890  0.72720  0.62525  Biso   1.000  C
  C28      1.0000 0.53110  0.25830  0.70809  Biso   1.000  C
  C29      1.0000 0.72720  0.46890  0.37475  Biso   1.000  C
  C30      1.0000 0.74170  0.27280  0.04142  Biso   1.000  C
  H7       1.0000 0.34840  0.80390  0.93870  Biso   1.000  H
  H8       1.0000 0.19610  0.54450  0.27203  Biso   1.000  H
  H9       1.0000 0.45550  0.65160  0.60537  Biso   1.000  H
  H10      1.0000 0.54450  0.19610  0.72797  Biso   1.000  H
  H11      1.0000 0.65160  0.45550  0.39463  Biso   1.000  H
  H12      1.0000 0.80390  0.34840  0.06130  Biso   1.000  H
  H13      1.0000 0.16610  0.73760  0.95410  Biso   1.000  H
  H14      1.0000 0.26240  0.42850  0.28743  Biso   1.000  H
  H15      1.0000 0.57150  0.83390  0.62077  Biso   1.000  H
  H16      1.0000 0.42850  0.26240  0.71257  Biso   1.000  H
  H17      1.0000 0.83390  0.57150  0.37923  Biso   1.000  H
  H18      1.0000 0.73760  0.16610  0.04590  Biso   1.000  H
  C31      1.0000 0.34260  0.83250  0.99130  Biso   1.000  C
  C32      1.0000 0.16750  0.51010  0.32463  Biso   1.000  C
  C33      1.0000 0.48990  0.65740  0.65797  Biso   1.000  C
  C34      1.0000 0.51010  0.16750  0.67537  Biso   1.000  C
  C35      1.0000 0.65740  0.48990  0.34203  Biso   1.000  C
  C36      1.0000 0.83250  0.34260  0.00870  Biso   1.000  C
  H19      1.0000 0.42000  0.94860  0.98430  Biso   1.000  H
  H20      1.0000 0.05140  0.47140  0.31763  Biso   1.000  H
  H21      1.0000 0.52860  0.58000  0.65097  Biso   1.000  H
  H22      1.0000 0.47140  0.05140  0.68237  Biso   1.000  H
  H23      1.0000 0.58000  0.52860  0.34903  Biso   1.000  H
  H24      1.0000 0.94860  0.42000  0.01570  Biso   1.000  H
  H25      1.0000 0.25030  0.83330  0.00420  Biso   1.000  H
  H26      1.0000 0.16670  0.41700  0.33753  Biso   1.000  H
  H27      1.0000 0.58300  0.74970  0.67087  Biso   1.000  H
  H28      1.0000 0.41700  0.16670  0.66247  Biso   1.000  H
  H29      1.0000 0.74970  0.58300  0.32913  Biso   1.000  H
  H30      1.0000 0.83330  0.25030  0.99580  Biso   1.000  H
  C37      1.0000 0.42390  0.79140  0.01565  Biso   1.000  C
  C38      1.0000 0.20860  0.63250  0.34898  Biso   1.000  C
  C39      1.0000 0.36750  0.57610  0.68232  Biso   1.000  C
  C40      1.0000 0.63250  0.20860  0.65102  Biso   1.000  C
  C41      1.0000 0.57610  0.36750  0.31768  Biso   1.000  C
  C42      1.0000 0.79140  0.42390  0.98435  Biso   1.000  C
  H31      1.0000 0.39730  0.81790  0.03950  Biso   1.000  H
  H32      1.0000 0.18210  0.57940  0.37283  Biso   1.000  H
  H33      1.0000 0.42060  0.60270  0.70617  Biso   1.000  H
  H34      1.0000 0.57940  0.18210  0.62717  Biso   1.000  H
  H35      1.0000 0.60270  0.42060  0.29383  Biso   1.000  H
  H36      1.0000 0.81790  0.39730  0.96050  Biso   1.000  H
  H37      1.0000 0.54390  0.86740  0.01180  Biso   1.000  H
  H38      1.0000 0.13260  0.67650  0.34513  Biso   1.000  H
  H39      1.0000 0.32350  0.45610  0.67847  Biso   1.000  H
  H40      1.0000 0.67650  0.13260  0.65487  Biso   1.000  H
  H41      1.0000 0.45610  0.32350  0.32153  Biso   1.000  H
  H42      1.0000 0.86740  0.54390  0.98820  Biso   1.000  H
  C43      1.0000 0.39830  0.61870  0.01786  Biso   1.000  C
  C44      1.0000 0.38130  0.77960  0.35119  Biso   1.000  C
  C45      1.0000 0.22040  0.60170  0.68453  Biso   1.000  C
  C46      1.0000 0.77960  0.38130  0.64881  Biso   1.000  C
  C47      1.0000 0.60170  0.22040  0.31547  Biso   1.000  C
  C48      1.0000 0.61870  0.39830  0.98214  Biso   1.000  C
  H43      1.0000 0.33620  0.56600  0.04000  Biso   1.000  H
  H44      1.0000 0.43400  0.77020  0.37333  Biso   1.000  H
  H45      1.0000 0.22980  0.66380  0.70667  Biso   1.000  H
  H46      1.0000 0.77020  0.43400  0.62667  Biso   1.000  H
  H47      1.0000 0.66380  0.22980  0.29333  Biso   1.000  H
  H48      1.0000 0.56600  0.33620  0.96000  Biso   1.000  H
  H49      1.0000 0.50800  0.62660  0.01980  Biso   1.000  H
  H50      1.0000 0.37340  0.88140  0.35313  Biso   1.000  H
  H51      1.0000 0.11860  0.49200  0.68647  Biso   1.000  H
  H52      1.0000 0.88140  0.37340  0.64687  Biso   1.000  H
  H53      1.0000 0.49200  0.11860  0.31353  Biso   1.000  H
  H54      1.0000 0.62660  0.50800  0.98020  Biso   1.000  H
  C49      1.0000 0.30450  0.50530  0.98609  Biso   1.000  C
  C50      1.0000 0.49470  0.79920  0.31942  Biso   1.000  C
  C51      1.0000 0.20080  0.69550  0.65276  Biso   1.000  C
  C52      1.0000 0.79920  0.49470  0.68058  Biso   1.000  C
  C53      1.0000 0.69550  0.20080  0.34724  Biso   1.000  C
  C54      1.0000 0.50530  0.30450  0.01391  Biso   1.000  C
  C55      1.0000 0.24230  0.56320  0.95811  Biso   1.000  C
  C56      1.0000 0.43680  0.67910  0.29144  Biso   1.000  C
  C57      1.0000 0.32090  0.75770  0.62478  Biso   1.000  C
  C58      1.0000 0.67910  0.43680  0.70856  Biso   1.000  C
  C59      1.0000 0.75770  0.32090  0.37522  Biso   1.000  C
  C60      1.0000 0.56320  0.24230  0.04189  Biso   1.000  C
  C61      1.0000 0.99300  0.93290  0.95360  Biso   1.000  C
  C62      1.0000 0.06710  0.06010  0.28693  Biso   1.000  C
  C63      1.0000 0.93990  0.00700  0.62027  Biso   1.000  C
  C64      1.0000 0.06010  0.06710  0.71307  Biso   1.000  C
  C65      1.0000 0.00700  0.93990  0.37973  Biso   1.000  C
  C66      1.0000 0.93290  0.99300  0.04640  Biso   1.000  C
  H55      1.0000 0.99510  0.82900  0.95480  Biso   1.000  H
  H56      1.0000 0.17100  0.16610  0.28813  Biso   1.000  H
  H57      1.0000 0.83390  0.00490  0.62147  Biso   1.000  H
  H58      1.0000 0.16610  0.17100  0.71187  Biso   1.000  H
  H59      1.0000 0.00490  0.83390  0.37853  Biso   1.000  H
  H60      1.0000 0.82900  0.99510  0.04520  Biso   1.000  H
  H61      1.0000 0.94830  0.94070  0.93050  Biso   1.000  H
  H62      1.0000 0.05930  0.00760  0.26383  Biso   1.000  H
  H63      1.0000 0.99240  0.05170  0.59717  Biso   1.000  H
  H64      1.0000 0.00760  0.05930  0.73617  Biso   1.000  H
  H65      1.0000 0.05170  0.99240  0.40283  Biso   1.000  H
  H66      1.0000 0.94070  0.94830  0.06950  Biso   1.000  H
  H67      1.0000 0.92280  0.93550  0.97280  Biso   1.000  H
  H68      1.0000 0.06450  0.98730  0.30613  Biso   1.000  H
  H69      1.0000 0.01270  0.07720  0.63947  Biso   1.000  H
  H70      1.0000 0.98730  0.06450  0.69387  Biso   1.000  H
  H71      1.0000 0.07720  0.01270  0.36053  Biso   1.000  H
  H72      1.0000 0.93550  0.92280  0.02720  Biso   1.000  H
  C67      1.0000 0.02250  0.18440  0.89593  Biso   1.000  C
  C68      1.0000 0.81560  0.83810  0.22926  Biso   1.000  C
  C69      1.0000 0.16190  0.97750  0.56260  Biso   1.000  C
  C70      1.0000 0.83810  0.81560  0.77074  Biso   1.000  C
  C71      1.0000 0.97750  0.16190  0.43740  Biso   1.000  C
  C72      1.0000 0.18440  0.02250  0.10407  Biso   1.000  C
  C73      1.0000 0.97780  0.25100  0.78994  Biso   1.000  C
  C74      1.0000 0.74900  0.72680  0.12327  Biso   1.000  C
  C75      1.0000 0.27320  0.02220  0.45661  Biso   1.000  C
  C76      1.0000 0.72680  0.74900  0.87673  Biso   1.000  C
  C77      1.0000 0.02220  0.27320  0.54339  Biso   1.000  C
  C78      1.0000 0.25100  0.97780  0.21006  Biso   1.000  C
  H73      1.0000 0.87180  0.15790  0.78540  Biso   1.000  H
  H74      1.0000 0.84210  0.71390  0.11873  Biso   1.000  H
  H75      1.0000 0.28610  0.12820  0.45207  Biso   1.000  H
  H76      1.0000 0.71390  0.84210  0.88127  Biso   1.000  H
  H77      1.0000 0.12820  0.28610  0.54793  Biso   1.000  H
  H78      1.0000 0.15790  0.87180  0.21460  Biso   1.000  H
  C79      1.0000 0.01460  0.40560  0.77635  Biso   1.000  C
  C80      1.0000 0.59440  0.60900  0.10968  Biso   1.000  C
  C81      1.0000 0.39100  0.98540  0.44302  Biso   1.000  C
  C82      1.0000 0.60900  0.59440  0.89032  Biso   1.000  C
  C83      1.0000 0.98540  0.39100  0.55698  Biso   1.000  C
  C84      1.0000 0.40560  0.01460  0.22365  Biso   1.000  C
  H79      1.0000 0.93410  0.41690  0.76310  Biso   1.000  H
  H80      1.0000 0.58310  0.51720  0.09643  Biso   1.000  H
  H81      1.0000 0.48280  0.06590  0.42977  Biso   1.000  H
  H82      1.0000 0.51720  0.58310  0.90357  Biso   1.000  H
  H83      1.0000 0.06590  0.48280  0.57023  Biso   1.000  H
  H84      1.0000 0.41690  0.93410  0.23690  Biso   1.000  H
  C85      1.0000 0.17100  0.54290  0.78250  Biso   1.000  C
  C86      1.0000 0.45710  0.62810  0.11583  Biso   1.000  C
  C87      1.0000 0.37190  0.82900  0.44917  Biso   1.000  C
  C88      1.0000 0.62810  0.45710  0.88417  Biso   1.000  C
  C89      1.0000 0.82900  0.37190  0.55083  Biso   1.000  C
  C90      1.0000 0.54290  0.17100  0.21750  Biso   1.000  C
  H85      1.0000 0.19850  0.64950  0.77390  Biso   1.000  H
  H86      1.0000 0.35050  0.54900  0.10723  Biso   1.000  H
  H87      1.0000 0.45100  0.80150  0.44057  Biso   1.000  H
  H88      1.0000 0.54900  0.35050  0.89277  Biso   1.000  H
  H89      1.0000 0.80150  0.45100  0.55943  Biso   1.000  H
  H90      1.0000 0.64950  0.19850  0.22610  Biso   1.000  H
  C91      1.0000 0.28710  0.51870  0.80195  Biso   1.000  C
  C92      1.0000 0.48130  0.76840  0.13528  Biso   1.000  C
  C93      1.0000 0.23160  0.71290  0.46862  Biso   1.000  C
  C94      1.0000 0.76840  0.48130  0.86472  Biso   1.000  C
  C95      1.0000 0.71290  0.23160  0.53138  Biso   1.000  C
  C96      1.0000 0.51870  0.28710  0.19805  Biso   1.000  C
  H91      1.0000 0.39640  0.60780  0.80580  Biso   1.000  H
  H92      1.0000 0.39220  0.78860  0.13913  Biso   1.000  H
  H93      1.0000 0.21140  0.60360  0.47247  Biso   1.000  H
  H94      1.0000 0.78860  0.39220  0.86087  Biso   1.000  H
  H95      1.0000 0.60360  0.21140  0.52753  Biso   1.000  H
  H96      1.0000 0.60780  0.39640  0.19420  Biso   1.000  H
  C97      1.0000 0.23830  0.36260  0.81533  Biso   1.000  C
  C98      1.0000 0.63740  0.87570  0.14866  Biso   1.000  C
  C99      1.0000 0.12430  0.76170  0.48200  Biso   1.000  C
  C100     1.0000 0.87570  0.63740  0.85134  Biso   1.000  C
  C101     1.0000 0.76170  0.12430  0.51800  Biso   1.000  C
  C102     1.0000 0.36260  0.23830  0.18467  Biso   1.000  C
  H97      1.0000 0.31520  0.34900  0.82950  Biso   1.000  H
  H98      1.0000 0.65100  0.96620  0.16283  Biso   1.000  H
  H99      1.0000 0.03380  0.68480  0.49617  Biso   1.000  H
  H100     1.0000 0.96620  0.65100  0.83717  Biso   1.000  H
  H101     1.0000 0.68480  0.03380  0.50383  Biso   1.000  H
  H102     1.0000 0.34900  0.31520  0.17050  Biso   1.000  H
  C103     1.0000 0.33970  0.99390  0.80256  Biso   1.000  C
  C104     1.0000 0.00610  0.34580  0.13589  Biso   1.000  C
  C105     1.0000 0.65420  0.66030  0.46923  Biso   1.000  C
  C106     1.0000 0.34580  0.00610  0.86411  Biso   1.000  C
  C107     1.0000 0.66030  0.65420  0.53077  Biso   1.000  C
  C108     1.0000 0.99390  0.33970  0.19744  Biso   1.000  C
  H103     1.0000 0.28660  0.99070  0.78070  Biso   1.000  H
  H104     1.0000 0.00930  0.29590  0.11403  Biso   1.000  H
  H105     1.0000 0.70410  0.71340  0.44737  Biso   1.000  H
  H106     1.0000 0.29590  0.00930  0.88597  Biso   1.000  H
  H107     1.0000 0.71340  0.70410  0.55263  Biso   1.000  H
  H108     1.0000 0.99070  0.28660  0.21930  Biso   1.000  H
  C109     1.0000 0.48850  0.99200  0.80113  Biso   1.000  C
  C110     1.0000 0.00800  0.49650  0.13446  Biso   1.000  C
  C111     1.0000 0.50350  0.51150  0.46780  Biso   1.000  C
  C112     1.0000 0.49650  0.00800  0.86554  Biso   1.000  C
  C113     1.0000 0.51150  0.50350  0.53220  Biso   1.000  C
  C114     1.0000 0.99200  0.48850  0.19887  Biso   1.000  C
  H109     1.0000 0.53400  0.98550  0.77890  Biso   1.000  H
  H110     1.0000 0.01450  0.54850  0.11223  Biso   1.000  H
  H111     1.0000 0.45150  0.46600  0.44557  Biso   1.000  H
  H112     1.0000 0.54850  0.01450  0.88777  Biso   1.000  H
  H113     1.0000 0.46600  0.45150  0.55443  Biso   1.000  H
  H114     1.0000 0.98550  0.53400  0.22110  Biso   1.000  H
  C115     1.0000 0.56930  0.00000  0.83330  Biso   1.000  C
  C116     1.0000 0.00000  0.56930  0.16663  Biso   1.000  C
  C117     1.0000 0.43070  0.43070  0.49997  Biso   1.000  C
  H115     1.0000 0.67120  0.00000  0.83330  Biso   1.000  H
  H116     1.0000 0.00000  0.67120  0.16663  Biso   1.000  H
  H117     1.0000 0.32880  0.32880  0.49997  Biso   1.000  H
  Cu1      1.0000 0.02175  0.00000  0.83330  Biso   1.000  Cu
  Cu2      1.0000 0.00000  0.02175  0.16663  Biso   1.000  Cu
  Cu3      1.0000 0.97825  0.97825  0.49997  Biso   1.000  Cu
  N1       1.0000 0.08890  0.22920  0.80955  Biso   1.000  N
  N2       1.0000 0.77080  0.85970  0.14288  Biso   1.000  N
  N3       1.0000 0.14030  0.91110  0.47622  Biso   1.000  N
  N4       1.0000 0.85970  0.77080  0.85712  Biso   1.000  N
  N5       1.0000 0.91110  0.14030  0.52378  Biso   1.000  N
  N6       1.0000 0.22920  0.08890  0.19045  Biso   1.000  N
  N7       1.0000 0.26660  0.00000  0.83330  Biso   1.000  N
  N8       1.0000 0.00000  0.26660  0.16663  Biso   1.000  N
  N9       1.0000 0.73340  0.73340  0.49997  Biso   1.000  N
  O1       1.0000 0.09150  0.11010  0.88028  Biso   1.000  O
  O2       1.0000 0.88990  0.98140  0.21361  Biso   1.000  O
  O3       1.0000 0.01860  0.90850  0.54695  Biso   1.000  O
  O4       1.0000 0.98140  0.88990  0.78639  Biso   1.000  O
  O5       1.0000 0.90850  0.01860  0.45305  Biso   1.000  O
  O6       1.0000 0.11010  0.09150  0.11972  Biso   1.000  O
  O7       1.0000 0.89250  0.17930  0.88603  Biso   1.000  O
  O8       1.0000 0.82070  0.71320  0.21936  Biso   1.000  O
  O9       1.0000 0.28680  0.10750  0.55270  Biso   1.000  O
  O10      1.0000 0.71320  0.82070  0.78064  Biso   1.000  O
  O11      1.0000 0.10750  0.28680  0.44730  Biso   1.000  O
  O12      1.0000 0.17930  0.89250  0.11397  Biso   1.000  O
  O13      1.0000 0.16060  0.07220  0.95768  Biso   1.000  O
  O14      1.0000 0.92780  0.08840  0.29101  Biso   1.000  O
  O15      1.0000 0.91160  0.83940  0.62435  Biso   1.000  O
  O16      1.0000 0.08840  0.92780  0.70899  Biso   1.000  O
  O17      1.0000 0.83940  0.91160  0.37565  Biso   1.000  O
  O18      1.0000 0.07220  0.16060  0.04232  Biso   1.000  O
