data_image0
_cell_length_a       10.9868
_cell_length_b       11.1631
_cell_length_c       15.9021
_cell_angle_alpha    103.393
_cell_angle_beta     100.277
_cell_angle_gamma    104.714

_symmetry_space_group_name_H-M    "P 1"
_symmetry_int_tables_number       1

loop_
  _symmetry_equiv_pos_as_xyz
  'x, y, z'

loop_
  _atom_site_label
  _atom_site_occupancy
  _atom_site_fract_x
  _atom_site_fract_y
  _atom_site_fract_z
  _atom_site_thermal_displace_type
  _atom_site_B_iso_or_equiv
  _atom_site_type_symbol
  C1       1.0000 0.30850  0.91480  0.16490  Biso   1.000  C
  C2       1.0000 0.69150  0.08520  0.83510  Biso   1.000  C
  H1       1.0000 0.38190  0.97850  0.16140  Biso   1.000  H
  H2       1.0000 0.61810  0.02150  0.83860  Biso   1.000  H
  C3       1.0000 0.11500  0.78170  0.13600  Biso   1.000  C
  C4       1.0000 0.88500  0.21830  0.86400  Biso   1.000  C
  H3       1.0000 0.02630  0.73430  0.10770  Biso   1.000  H
  H4       1.0000 0.97370  0.26570  0.89230  Biso   1.000  H
  C5       1.0000 0.18390  0.77120  0.21110  Biso   1.000  C
  C6       1.0000 0.81610  0.22880  0.78890  Biso   1.000  C
  H5       1.0000 0.15330  0.71580  0.24510  Biso   1.000  H
  H6       1.0000 0.84670  0.28420  0.75490  Biso   1.000  H
  C7       1.0000 0.41510  0.87860  0.30430  Biso   1.000  C
  C8       1.0000 0.58490  0.12140  0.69570  Biso   1.000  C
  C9       1.0000 0.39760  0.81590  0.36750  Biso   1.000  C
  C10      1.0000 0.60240  0.18410  0.63250  Biso   1.000  C
  H7       1.0000 0.31490  0.75720  0.36170  Biso   1.000  H
  H8       1.0000 0.68510  0.24280  0.63830  Biso   1.000  H
  C11      1.0000 0.53520  0.96290  0.31400  Biso   1.000  C
  C12      1.0000 0.46480  0.03710  0.68600  Biso   1.000  C
  H9       1.0000 0.54910  0.00630  0.27010  Biso   1.000  H
  H10      1.0000 0.45090  0.99370  0.72990  Biso   1.000  H
  C13      1.0000 0.49920  0.83700  0.43960  Biso   1.000  C
  C14      1.0000 0.50080  0.16300  0.56040  Biso   1.000  C
  H11      1.0000 0.48520  0.79080  0.48200  Biso   1.000  H
  H12      1.0000 0.51480  0.20920  0.51800  Biso   1.000  H
  C15      1.0000 0.62110  0.92350  0.45240  Biso   1.000  C
  C16      1.0000 0.37890  0.07650  0.54760  Biso   1.000  C
  C17      1.0000 0.63640  0.98540  0.38730  Biso   1.000  C
  C18      1.0000 0.36360  0.01460  0.61270  Biso   1.000  C
  H13      1.0000 0.71850  0.04500  0.39310  Biso   1.000  H
  H14      1.0000 0.28150  0.95500  0.60690  Biso   1.000  H
  C19      1.0000 0.72710  0.94400  0.53150  Biso   1.000  C
  C20      1.0000 0.27290  0.05600  0.46850  Biso   1.000  C
  C21      1.0000 0.01460  0.93490  0.82270  Biso   1.000  C
  C22      1.0000 0.98540  0.06510  0.17730  Biso   1.000  C
  H15      1.0000 0.93350  0.88850  0.82960  Biso   1.000  H
  H16      1.0000 0.06650  0.11150  0.17040  Biso   1.000  H
  C23      1.0000 0.16130  0.04640  0.76840  Biso   1.000  C
  C24      1.0000 0.83870  0.95360  0.23160  Biso   1.000  C
  H17      1.0000 0.20200  0.09140  0.73190  Biso   1.000  H
  H18      1.0000 0.79800  0.90860  0.26810  Biso   1.000  H
  C25      1.0000 0.22090  0.02730  0.84420  Biso   1.000  C
  C26      1.0000 0.77910  0.97270  0.15580  Biso   1.000  C
  H19      1.0000 0.31200  0.05740  0.87020  Biso   1.000  H
  H20      1.0000 0.68800  0.94260  0.12980  Biso   1.000  H
  C27      1.0000 0.92750  0.97690  0.68100  Biso   1.000  C
  C28      1.0000 0.07250  0.02310  0.31900  Biso   1.000  C
  C29      1.0000 0.95230  0.04030  0.61770  Biso   1.000  C
  C30      1.0000 0.04770  0.95970  0.38230  Biso   1.000  C
  H21      1.0000 0.03740  0.09510  0.62450  Biso   1.000  H
  H22      1.0000 0.96260  0.90490  0.37550  Biso   1.000  H
  C31      1.0000 0.85380  0.02400  0.54470  Biso   1.000  C
  C32      1.0000 0.14620  0.97600  0.45530  Biso   1.000  C
  H23      1.0000 0.87260  0.06850  0.50220  Biso   1.000  H
  H24      1.0000 0.12740  0.93150  0.49780  Biso   1.000  H
  C33      1.0000 0.80210  0.89900  0.67040  Biso   1.000  C
  C34      1.0000 0.19790  0.10100  0.32960  Biso   1.000  C
  H25      1.0000 0.78280  0.85580  0.71360  Biso   1.000  H
  H26      1.0000 0.21720  0.14420  0.28640  Biso   1.000  H
  C35      1.0000 0.70550  0.88470  0.59680  Biso   1.000  C
  C36      1.0000 0.29450  0.11530  0.40320  Biso   1.000  C
  H27      1.0000 0.62000  0.83150  0.59100  Biso   1.000  H
  H28      1.0000 0.38000  0.16850  0.40900  Biso   1.000  H
  C37      1.0000 0.68220  0.40460  0.94410  Biso   1.000  C
  C38      1.0000 0.31780  0.59540  0.05590  Biso   1.000  C
  H29      1.0000 0.77350  0.42080  0.96240  Biso   1.000  H
  H30      1.0000 0.22650  0.57920  0.03760  Biso   1.000  H
  C39      1.0000 0.61960  0.42400  0.87020  Biso   1.000  C
  C40      1.0000 0.38040  0.57600  0.12980  Biso   1.000  C
  H31      1.0000 0.65790  0.45660  0.82770  Biso   1.000  H
  H32      1.0000 0.34210  0.54340  0.17230  Biso   1.000  H
  C41      1.0000 0.47730  0.34860  0.94140  Biso   1.000  C
  C42      1.0000 0.52270  0.65140  0.05860  Biso   1.000  C
  H33      1.0000 0.39750  0.31920  0.95670  Biso   1.000  H
  H34      1.0000 0.60250  0.68080  0.04330  Biso   1.000  H
  C43      1.0000 0.38470  0.38440  0.79870  Biso   1.000  C
  C44      1.0000 0.61530  0.61560  0.20130  Biso   1.000  C
  C45      1.0000 0.40320  0.37990  0.71440  Biso   1.000  C
  C46      1.0000 0.59680  0.62010  0.28560  Biso   1.000  C
  H35      1.0000 0.48620  0.38280  0.70390  Biso   1.000  H
  H36      1.0000 0.51380  0.61720  0.29610  Biso   1.000  H
  C47      1.0000 0.26220  0.38390  0.81410  Biso   1.000  C
  C48      1.0000 0.73780  0.61610  0.18590  Biso   1.000  C
  H37      1.0000 0.24890  0.39100  0.87230  Biso   1.000  H
  H38      1.0000 0.75110  0.60900  0.12770  Biso   1.000  H
  C49      1.0000 0.77240  0.30760  0.27900  Biso   1.000  C
  C50      1.0000 0.22760  0.69240  0.72100  Biso   1.000  C
  H39      1.0000 0.84920  0.30910  0.25920  Biso   1.000  H
  H40      1.0000 0.15080  0.69090  0.74080  Biso   1.000  H
  C51      1.0000 0.63670  0.30900  0.36570  Biso   1.000  C
  C52      1.0000 0.36330  0.69100  0.63430  Biso   1.000  C
  H41      1.0000 0.60100  0.31170  0.41610  Biso   1.000  H
  H42      1.0000 0.39900  0.68830  0.58390  Biso   1.000  H
  C53      1.0000 0.57390  0.30060  0.28260  Biso   1.000  C
  C54      1.0000 0.42610  0.69940  0.71740  Biso   1.000  C
  H43      1.0000 0.48520  0.29590  0.26440  Biso   1.000  H
  H44      1.0000 0.51480  0.70410  0.73560  Biso   1.000  H
  C55      1.0000 0.86610  0.32490  0.43740  Biso   1.000  C
  C56      1.0000 0.13390  0.67510  0.56260  Biso   1.000  C
  C57      1.0000 0.97020  0.28100  0.42260  Biso   1.000  C
  C58      1.0000 0.02980  0.71900  0.57740  Biso   1.000  C
  H45      1.0000 0.97290  0.24180  0.36350  Biso   1.000  H
  H46      1.0000 0.02710  0.75820  0.63650  Biso   1.000  H
  C59      1.0000 0.07000  0.29470  0.49450  Biso   1.000  C
  C60      1.0000 0.93000  0.70530  0.50550  Biso   1.000  C
  H47      1.0000 0.14110  0.26490  0.48380  Biso   1.000  H
  H48      1.0000 0.85890  0.73510  0.51620  Biso   1.000  H
  C61      1.0000 0.06900  0.35080  0.58180  Biso   1.000  C
  C62      1.0000 0.93100  0.64920  0.41820  Biso   1.000  C
  C63      1.0000 0.96260  0.39310  0.59540  Biso   1.000  C
  C64      1.0000 0.03740  0.60690  0.40460  Biso   1.000  C
  H49      1.0000 0.95880  0.43070  0.65450  Biso   1.000  H
  H50      1.0000 0.04120  0.56930  0.34550  Biso   1.000  H
  C65      1.0000 0.86200  0.38110  0.52370  Biso   1.000  C
  C66      1.0000 0.13800  0.61890  0.47630  Biso   1.000  C
  H51      1.0000 0.79110  0.41130  0.53400  Biso   1.000  H
  H52      1.0000 0.20890  0.58870  0.46600  Biso   1.000  H
  C67      1.0000 0.17780  0.36540  0.65830  Biso   1.000  C
  C68      1.0000 0.82220  0.63460  0.34170  Biso   1.000  C
  C69      1.0000 0.30200  0.37110  0.64520  Biso   1.000  C
  C70      1.0000 0.69800  0.62890  0.35480  Biso   1.000  C
  H53      1.0000 0.31670  0.36880  0.58780  Biso   1.000  H
  H54      1.0000 0.68330  0.63120  0.41220  Biso   1.000  H
  C71      1.0000 0.16200  0.37300  0.74450  Biso   1.000  C
  C72      1.0000 0.83800  0.62700  0.25550  Biso   1.000  C
  H55      1.0000 0.07920  0.37050  0.75520  Biso   1.000  H
  H56      1.0000 0.92080  0.62950  0.24480  Biso   1.000  H
  N1       1.0000 0.19360  0.87270  0.10610  Biso   1.000  N
  N2       1.0000 0.80640  0.12730  0.89390  Biso   1.000  N
  N3       1.0000 0.30840  0.85650  0.22970  Biso   1.000  N
  N4       1.0000 0.69160  0.14350  0.77030  Biso   1.000  N
  N5       1.0000 0.12820  0.95700  0.87800  Biso   1.000  N
  N6       1.0000 0.87180  0.04300  0.12200  Biso   1.000  N
  N7       1.0000 0.02870  0.98720  0.75450  Biso   1.000  N
  N8       1.0000 0.97130  0.01280  0.24550  Biso   1.000  N
  N9       1.0000 0.65950  0.30000  0.22750  Biso   1.000  N
  N10      1.0000 0.34050  0.70000  0.77250  Biso   1.000  N
  N11      1.0000 0.76310  0.31300  0.36360  Biso   1.000  N
  N12      1.0000 0.23690  0.68700  0.63640  Biso   1.000  N
  N13      1.0000 0.59330  0.35730  0.98940  Biso   1.000  N
  N14      1.0000 0.40670  0.64270  0.01060  Biso   1.000  N
  N15      1.0000 0.48860  0.38740  0.86790  Biso   1.000  N
  N16      1.0000 0.51140  0.61260  0.13210  Biso   1.000  N
  O1       1.0000 0.44710  0.29720  0.10315  Biso   1.000  O
  O2       1.0000 0.55290  0.70280  0.89685  Biso   1.000  O
  O3       1.0000 0.30970  0.06650  0.03946  Biso   1.000  O
  O4       1.0000 0.69030  0.93350  0.96054  Biso   1.000  O
  O5       1.0000 0.26380  0.21120  0.17020  Biso   1.000  O
  O6       1.0000 0.73620  0.78880  0.82980  Biso   1.000  O
  O7       1.0000 0.21820  0.24540  0.01730  Biso   1.000  O
  O8       1.0000 0.78180  0.75460  0.98270  Biso   1.000  O
  H57      1.0000 0.14780  0.24090  0.03200  Biso   1.000  H
  H58      1.0000 0.85220  0.75910  0.96800  Biso   1.000  H
  O9       1.0000 0.01020  0.75210  0.94320  Biso   1.000  O
  O10      1.0000 0.98980  0.24790  0.05680  Biso   1.000  O
  O11      1.0000 0.19810  0.68850  0.90468  Biso   1.000  O
  O12      1.0000 0.80190  0.31150  0.09532  Biso   1.000  O
  O13      1.0000 0.01280  0.52190  0.92870  Biso   1.000  O
  O14      1.0000 0.98720  0.47810  0.07130  Biso   1.000  O
  H59      1.0000 0.93060  0.48780  0.91940  Biso   1.000  H
  H60      1.0000 0.06940  0.51220  0.08060  Biso   1.000  H
  O15      1.0000 0.98680  0.59640  0.79268  Biso   1.000  O
  O16      1.0000 0.01320  0.40360  0.20732  Biso   1.000  O
  H61      1.0000 0.90800  0.59060  0.77980  Biso   1.000  H
  H62      1.0000 0.09200  0.40940  0.22020  Biso   1.000  H
  O17      1.0000 0.55320  0.07510  0.04380  Biso   1.000  O
  O18      1.0000 0.44680  0.92490  0.95620  Biso   1.000  O
  H63      1.0000 0.46600  0.02400  0.01200  Biso   1.000  H
  H64      1.0000 0.53400  0.97600  0.98800  Biso   1.000  H
  P1       1.0000 0.31220  0.20444  0.08684  Biso   1.000  P
  P2       1.0000 0.68780  0.79556  0.91316  Biso   1.000  P
  P3       1.0000 0.05357  0.63975  0.89608  Biso   1.000  P
  P4       1.0000 0.94643  0.36025  0.10392  Biso   1.000  P
  Cu1      1.0000 0.16035  0.91267  0.99138  Biso   1.000  Cu
  Cu2      1.0000 0.83965  0.08733  0.00862  Biso   1.000  Cu
  Cu3      1.0000 0.62540  0.31002  0.10246  Biso   1.000  Cu
  Cu4      1.0000 0.37460  0.68998  0.89754  Biso   1.000  Cu
  N17      1.0000 0.50000  0.50000  0.50000  Biso   1.000  N
  O19      1.0000 0.41090  0.39700  0.45710  Biso   1.000  O
  O20      1.0000 0.58910  0.60300  0.54290  Biso   1.000  O
  O21      1.0000 0.46010  0.57790  0.46570  Biso   1.000  O
  O22      1.0000 0.53990  0.42210  0.53430  Biso   1.000  O
  O23      1.0000 0.60280  0.51950  0.55710  Biso   1.000  O
  O24      1.0000 0.39720  0.48050  0.44290  Biso   1.000  O
  O25      1.0000 0.74080  0.56830  0.72704  Biso   1.000  O
  O26      1.0000 0.25920  0.43170  0.27296  Biso   1.000  O
  H65      1.0000 0.72900  0.63500  0.75800  Biso   1.000  H
  H66      1.0000 0.27100  0.36500  0.24200  Biso   1.000  H
  H67      1.0000 0.69900  0.54800  0.67320  Biso   1.000  H
  H68      1.0000 0.30100  0.45200  0.32680  Biso   1.000  H
