data_image0
_cell_length_a       9.2722
_cell_length_b       21.357
_cell_length_c       8.9798
_cell_angle_alpha    90
_cell_angle_beta     115.498
_cell_angle_gamma    90

_symmetry_space_group_name_H-M    "P 1"
_symmetry_int_tables_number       1

loop_
  _symmetry_equiv_pos_as_xyz
  'x, y, z'

loop_
  _atom_site_label
  _atom_site_occupancy
  _atom_site_fract_x
  _atom_site_fract_y
  _atom_site_fract_z
  _atom_site_thermal_displace_type
  _atom_site_B_iso_or_equiv
  _atom_site_type_symbol
  Cu1      1.0000 0.81877  0.15864  0.11967  Biso   1.000  Cu
  Cu2      1.0000 0.18123  0.65864  0.38033  Biso   1.000  Cu
  Cu3      1.0000 0.18123  0.84136  0.88033  Biso   1.000  Cu
  Cu4      1.0000 0.81877  0.34136  0.61967  Biso   1.000  Cu
  O1       1.0000 0.55170  0.19270  0.99780  Biso   1.000  O
  O2       1.0000 0.44830  0.69270  0.50220  Biso   1.000  O
  O3       1.0000 0.44830  0.80730  0.00220  Biso   1.000  O
  O4       1.0000 0.55170  0.30730  0.49780  Biso   1.000  O
  H1       1.0000 0.57900  0.21600  0.93500  Biso   1.000  H
  H2       1.0000 0.42100  0.71600  0.56500  Biso   1.000  H
  H3       1.0000 0.42100  0.78400  0.06500  Biso   1.000  H
  H4       1.0000 0.57900  0.28400  0.43500  Biso   1.000  H
  H5       1.0000 0.58100  0.21600  0.10500  Biso   1.000  H
  H6       1.0000 0.41900  0.71600  0.39500  Biso   1.000  H
  H7       1.0000 0.41900  0.78400  0.89500  Biso   1.000  H
  H8       1.0000 0.58100  0.28400  0.60500  Biso   1.000  H
  N1       1.0000 0.90200  0.26570  0.54910  Biso   1.000  N
  N2       1.0000 0.09800  0.76570  0.95090  Biso   1.000  N
  N3       1.0000 0.09800  0.73430  0.45090  Biso   1.000  N
  N4       1.0000 0.90200  0.23430  0.04910  Biso   1.000  N
  C1       1.0000 0.82030  0.23630  0.39930  Biso   1.000  C
  C2       1.0000 0.17970  0.73630  0.10070  Biso   1.000  C
  C3       1.0000 0.17970  0.76370  0.60070  Biso   1.000  C
  C4       1.0000 0.82030  0.26370  0.89930  Biso   1.000  C
  O5       1.0000 0.68120  0.25270  0.30830  Biso   1.000  O
  O6       1.0000 0.31880  0.75270  0.19170  Biso   1.000  O
  O7       1.0000 0.31880  0.74730  0.69170  Biso   1.000  O
  O8       1.0000 0.68120  0.24730  0.80830  Biso   1.000  O
  N5       1.0000 0.89440  0.19090  0.35110  Biso   1.000  N
  N6       1.0000 0.10560  0.69090  0.14890  Biso   1.000  N
  N7       1.0000 0.10560  0.80910  0.64890  Biso   1.000  N
  N8       1.0000 0.89440  0.30910  0.85110  Biso   1.000  N
  C5       1.0000 0.04400  0.16980  0.44830  Biso   1.000  C
  C6       1.0000 0.95600  0.66980  0.05170  Biso   1.000  C
  C7       1.0000 0.95600  0.83020  0.55170  Biso   1.000  C
  C8       1.0000 0.04400  0.33020  0.94830  Biso   1.000  C
  O9       1.0000 0.10340  0.12880  0.39160  Biso   1.000  O
  O10      1.0000 0.89660  0.62880  0.10840  Biso   1.000  O
  O11      1.0000 0.89660  0.87120  0.60840  Biso   1.000  O
  O12      1.0000 0.10340  0.37120  0.89160  Biso   1.000  O
  C9       1.0000 0.12330  0.19840  0.60420  Biso   1.000  C
  C10      1.0000 0.87670  0.69840  0.89580  Biso   1.000  C
  C11      1.0000 0.87670  0.80160  0.39580  Biso   1.000  C
  C12      1.0000 0.12330  0.30160  0.10420  Biso   1.000  C
  C13      1.0000 0.05070  0.24520  0.64440  Biso   1.000  C
  C14      1.0000 0.94930  0.74520  0.85560  Biso   1.000  C
  C15      1.0000 0.94930  0.75480  0.35560  Biso   1.000  C
  C16      1.0000 0.05070  0.25480  0.14440  Biso   1.000  C
  N9       1.0000 0.83180  0.10170  0.94090  Biso   1.000  N
  N10      1.0000 0.16820  0.60170  0.55910  Biso   1.000  N
  N11      1.0000 0.16820  0.89830  0.05910  Biso   1.000  N
  N12      1.0000 0.83180  0.39830  0.44090  Biso   1.000  N
  N13      1.0000 0.73570  0.07840  0.17170  Biso   1.000  N
  N14      1.0000 0.26430  0.57840  0.32830  Biso   1.000  N
  N15      1.0000 0.26430  0.92160  0.82830  Biso   1.000  N
  N16      1.0000 0.73570  0.42160  0.67170  Biso   1.000  N
  C17      1.0000 0.88250  0.11460  0.82580  Biso   1.000  C
  C18      1.0000 0.11750  0.61460  0.67420  Biso   1.000  C
  C19      1.0000 0.11750  0.88540  0.17420  Biso   1.000  C
  C20      1.0000 0.88250  0.38540  0.32580  Biso   1.000  C
  H9       1.0000 0.90750  0.15570  0.81230  Biso   1.000  H
  H10      1.0000 0.09250  0.65570  0.68770  Biso   1.000  H
  H11      1.0000 0.09250  0.84430  0.18770  Biso   1.000  H
  H12      1.0000 0.90750  0.34430  0.31230  Biso   1.000  H
  C21      1.0000 0.89900  0.06860  0.72610  Biso   1.000  C
  C22      1.0000 0.10100  0.56860  0.77390  Biso   1.000  C
  C23      1.0000 0.10100  0.93140  0.27390  Biso   1.000  C
  C24      1.0000 0.89900  0.43140  0.22610  Biso   1.000  C
  H13      1.0000 0.93730  0.07920  0.64920  Biso   1.000  H
  H14      1.0000 0.06270  0.57920  0.85080  Biso   1.000  H
  H15      1.0000 0.06270  0.92080  0.35080  Biso   1.000  H
  H16      1.0000 0.93730  0.42080  0.14920  Biso   1.000  H
  C25      1.0000 0.86100  0.00900  0.73790  Biso   1.000  C
  C26      1.0000 0.13900  0.50900  0.76210  Biso   1.000  C
  C27      1.0000 0.13900  0.99100  0.26210  Biso   1.000  C
  C28      1.0000 0.86100  0.49100  0.23790  Biso   1.000  C
  H17      1.0000 0.87160  0.97850  0.66930  Biso   1.000  H
  H18      1.0000 0.12840  0.47850  0.83070  Biso   1.000  H
  H19      1.0000 0.12840  0.02150  0.33070  Biso   1.000  H
  H20      1.0000 0.87160  0.52150  0.16930  Biso   1.000  H
  C29      1.0000 0.80380  0.99270  0.85740  Biso   1.000  C
  C30      1.0000 0.19620  0.49270  0.64260  Biso   1.000  C
  C31      1.0000 0.19620  0.00730  0.14260  Biso   1.000  C
  C32      1.0000 0.80380  0.50730  0.35740  Biso   1.000  C
  C33      1.0000 0.75990  0.93080  0.88150  Biso   1.000  C
  C34      1.0000 0.24010  0.43080  0.61850  Biso   1.000  C
  C35      1.0000 0.24010  0.06920  0.11850  Biso   1.000  C
  C36      1.0000 0.75990  0.56920  0.38150  Biso   1.000  C
  H21      1.0000 0.76790  0.89810  0.81730  Biso   1.000  H
  H22      1.0000 0.23210  0.39810  0.68270  Biso   1.000  H
  H23      1.0000 0.23210  0.10190  0.18270  Biso   1.000  H
  H24      1.0000 0.76790  0.60190  0.31730  Biso   1.000  H
  C37      1.0000 0.70660  0.91980  0.99780  Biso   1.000  C
  C38      1.0000 0.29340  0.41980  0.50220  Biso   1.000  C
  C39      1.0000 0.29340  0.08020  0.00220  Biso   1.000  C
  C40      1.0000 0.70660  0.58020  0.49780  Biso   1.000  C
  H25      1.0000 0.67900  0.87920  0.01260  Biso   1.000  H
  H26      1.0000 0.32100  0.37920  0.48740  Biso   1.000  H
  H27      1.0000 0.32100  0.12080  0.98740  Biso   1.000  H
  H28      1.0000 0.67900  0.62080  0.51260  Biso   1.000  H
  C41      1.0000 0.69190  0.96840  0.09730  Biso   1.000  C
  C42      1.0000 0.30810  0.46840  0.40270  Biso   1.000  C
  C43      1.0000 0.30810  0.03160  0.90270  Biso   1.000  C
  C44      1.0000 0.69190  0.53160  0.59730  Biso   1.000  C
  C45      1.0000 0.63560  0.96000  0.21860  Biso   1.000  C
  C46      1.0000 0.36440  0.46000  0.28140  Biso   1.000  C
  C47      1.0000 0.36440  0.04000  0.78140  Biso   1.000  C
  C48      1.0000 0.63560  0.54000  0.71860  Biso   1.000  C
  H29      1.0000 0.60510  0.92050  0.23790  Biso   1.000  H
  H30      1.0000 0.39490  0.42050  0.26210  Biso   1.000  H
  H31      1.0000 0.39490  0.07950  0.76210  Biso   1.000  H
  H32      1.0000 0.60510  0.57950  0.73790  Biso   1.000  H
  C49      1.0000 0.62600  0.00990  0.30720  Biso   1.000  C
  C50      1.0000 0.37400  0.50990  0.19280  Biso   1.000  C
  C51      1.0000 0.37400  0.99010  0.69280  Biso   1.000  C
  C52      1.0000 0.62600  0.49010  0.80720  Biso   1.000  C
  H33      1.0000 0.58340  0.00510  0.38330  Biso   1.000  H
  H34      1.0000 0.41660  0.50510  0.11670  Biso   1.000  H
  H35      1.0000 0.41660  0.99490  0.61670  Biso   1.000  H
  H36      1.0000 0.58340  0.49490  0.88330  Biso   1.000  H
  C53      1.0000 0.67950  0.06840  0.28480  Biso   1.000  C
  C54      1.0000 0.32050  0.56840  0.21520  Biso   1.000  C
  C55      1.0000 0.32050  0.93160  0.71520  Biso   1.000  C
  C56      1.0000 0.67950  0.43160  0.78480  Biso   1.000  C
  H37      1.0000 0.67630  0.10160  0.35020  Biso   1.000  H
  H38      1.0000 0.32370  0.60160  0.14980  Biso   1.000  H
  H39      1.0000 0.32370  0.89840  0.64980  Biso   1.000  H
  H40      1.0000 0.67630  0.39840  0.85020  Biso   1.000  H
  C57      1.0000 0.73770  0.02910  0.07860  Biso   1.000  C
  C58      1.0000 0.26230  0.52910  0.42140  Biso   1.000  C
  C59      1.0000 0.26230  0.97090  0.92140  Biso   1.000  C
  C60      1.0000 0.73770  0.47090  0.57860  Biso   1.000  C
  C61      1.0000 0.79280  0.04200  0.95400  Biso   1.000  C
  C62      1.0000 0.20720  0.54200  0.54600  Biso   1.000  C
  C63      1.0000 0.20720  0.95800  0.04600  Biso   1.000  C
  C64      1.0000 0.79280  0.45800  0.45400  Biso   1.000  C
  H41      1.0000 0.10500  0.26800  0.74400  Biso   1.000  H
  H42      1.0000 0.89500  0.76800  0.75600  Biso   1.000  H
  H43      1.0000 0.89500  0.73200  0.25600  Biso   1.000  H
  H44      1.0000 0.10500  0.23200  0.24400  Biso   1.000  H
  H45      1.0000 0.22500  0.18700  0.67300  Biso   1.000  H
  H46      1.0000 0.77500  0.68700  0.82700  Biso   1.000  H
  H47      1.0000 0.77500  0.81300  0.32700  Biso   1.000  H
  H48      1.0000 0.22500  0.31300  0.17300  Biso   1.000  H
  C65      1.0000 0.50800  0.83990  0.48300  Biso   1.000  C
  C66      1.0000 0.49200  0.33990  0.01700  Biso   1.000  C
  C67      1.0000 0.49200  0.16010  0.51700  Biso   1.000  C
  C68      1.0000 0.50800  0.66010  0.98300  Biso   1.000  C
  O13      1.0000 0.56480  0.88620  0.48700  Biso   1.000  O
  O14      1.0000 0.43520  0.38620  0.01300  Biso   1.000  O
  O15      1.0000 0.43520  0.11380  0.51300  Biso   1.000  O
  O16      1.0000 0.56480  0.61380  0.98700  Biso   1.000  O
