data_image0
_cell_length_a       9.15
_cell_length_b       21.086
_cell_length_c       9.066
_cell_angle_alpha    90
_cell_angle_beta     118.607
_cell_angle_gamma    90

_symmetry_space_group_name_H-M    "P 1"
_symmetry_int_tables_number       1

loop_
  _symmetry_equiv_pos_as_xyz
  'x, y, z'

loop_
  _atom_site_label
  _atom_site_occupancy
  _atom_site_fract_x
  _atom_site_fract_y
  _atom_site_fract_z
  _atom_site_thermal_displace_type
  _atom_site_B_iso_or_equiv
  _atom_site_type_symbol
  C1       1.0000 0.19180  0.23800  0.61500  Biso   1.000  C
  C2       1.0000 0.80820  0.73800  0.88500  Biso   1.000  C
  C3       1.0000 0.80820  0.76200  0.38500  Biso   1.000  C
  C4       1.0000 0.19180  0.26200  0.11500  Biso   1.000  C
  C5       1.0000 0.95680  0.17190  0.55480  Biso   1.000  C
  C6       1.0000 0.04320  0.67190  0.94520  Biso   1.000  C
  C7       1.0000 0.04320  0.82810  0.44520  Biso   1.000  C
  C8       1.0000 0.95680  0.32810  0.05480  Biso   1.000  C
  C9       1.0000 0.87080  0.19940  0.39160  Biso   1.000  C
  C10      1.0000 0.12920  0.69940  0.10840  Biso   1.000  C
  C11      1.0000 0.12920  0.80060  0.60840  Biso   1.000  C
  C12      1.0000 0.87080  0.30060  0.89160  Biso   1.000  C
  C13      1.0000 0.95020  0.24560  0.35600  Biso   1.000  C
  C14      1.0000 0.04980  0.74560  0.14400  Biso   1.000  C
  C15      1.0000 0.04980  0.75440  0.64400  Biso   1.000  C
  C16      1.0000 0.95020  0.25440  0.85600  Biso   1.000  C
  C17      1.0000 0.32220  0.06550  0.72520  Biso   1.000  C
  C18      1.0000 0.67780  0.56550  0.77480  Biso   1.000  C
  C19      1.0000 0.67780  0.93450  0.27480  Biso   1.000  C
  C20      1.0000 0.32220  0.43450  0.22520  Biso   1.000  C
  H1       1.0000 0.32860  0.09970  0.66380  Biso   1.000  H
  H2       1.0000 0.67140  0.59970  0.83620  Biso   1.000  H
  H3       1.0000 0.67140  0.90030  0.33620  Biso   1.000  H
  H4       1.0000 0.32860  0.40030  0.16380  Biso   1.000  H
  C21      1.0000 0.36830  0.00470  0.69720  Biso   1.000  C
  C22      1.0000 0.63170  0.50470  0.80280  Biso   1.000  C
  C23      1.0000 0.63170  0.99530  0.30280  Biso   1.000  C
  C24      1.0000 0.36830  0.49530  0.19720  Biso   1.000  C
  H5       1.0000 0.40430  0.99930  0.61800  Biso   1.000  H
  H6       1.0000 0.59570  0.49930  0.88200  Biso   1.000  H
  H7       1.0000 0.59570  0.00070  0.38200  Biso   1.000  H
  H8       1.0000 0.40430  0.50070  0.11800  Biso   1.000  H
  C25      1.0000 0.36010  0.95400  0.78590  Biso   1.000  C
  C26      1.0000 0.63990  0.45400  0.71410  Biso   1.000  C
  C27      1.0000 0.63990  0.04600  0.21410  Biso   1.000  C
  C28      1.0000 0.36010  0.54600  0.28590  Biso   1.000  C
  H9       1.0000 0.39000  0.91390  0.76730  Biso   1.000  H
  H10      1.0000 0.61000  0.41390  0.73270  Biso   1.000  H
  H11      1.0000 0.61000  0.08610  0.23270  Biso   1.000  H
  H12      1.0000 0.39000  0.58610  0.26730  Biso   1.000  H
  C29      1.0000 0.30530  0.96310  0.90740  Biso   1.000  C
  C30      1.0000 0.69470  0.46310  0.59260  Biso   1.000  C
  C31      1.0000 0.69470  0.03690  0.09260  Biso   1.000  C
  C32      1.0000 0.30530  0.53690  0.40740  Biso   1.000  C
  C33      1.0000 0.29310  0.91330  0.00840  Biso   1.000  C
  C34      1.0000 0.70690  0.41330  0.49160  Biso   1.000  C
  C35      1.0000 0.70690  0.08670  0.99160  Biso   1.000  C
  C36      1.0000 0.29310  0.58670  0.50840  Biso   1.000  C
  H13      1.0000 0.32050  0.87200  0.99510  Biso   1.000  H
  H14      1.0000 0.67950  0.37200  0.50490  Biso   1.000  H
  H15      1.0000 0.67950  0.12800  0.00490  Biso   1.000  H
  H16      1.0000 0.32050  0.62800  0.49510  Biso   1.000  H
  C37      1.0000 0.24200  0.92570  0.12350  Biso   1.000  C
  C38      1.0000 0.75800  0.42570  0.37650  Biso   1.000  C
  C39      1.0000 0.75800  0.07430  0.87650  Biso   1.000  C
  C40      1.0000 0.24200  0.57430  0.62350  Biso   1.000  C
  H17      1.0000 0.23230  0.89250  0.18570  Biso   1.000  H
  H18      1.0000 0.76770  0.39250  0.31430  Biso   1.000  H
  H19      1.0000 0.76770  0.10750  0.81430  Biso   1.000  H
  H20      1.0000 0.23230  0.60750  0.68570  Biso   1.000  H
  C41      1.0000 0.20270  0.98880  0.15090  Biso   1.000  C
  C42      1.0000 0.79730  0.48880  0.34910  Biso   1.000  C
  C43      1.0000 0.79730  0.01120  0.84910  Biso   1.000  C
  C44      1.0000 0.20270  0.51120  0.65090  Biso   1.000  C
  C45      1.0000 0.14780  0.00500  0.26830  Biso   1.000  C
  C46      1.0000 0.85220  0.50500  0.23170  Biso   1.000  C
  C47      1.0000 0.85220  0.99500  0.73170  Biso   1.000  C
  C48      1.0000 0.14780  0.49500  0.76830  Biso   1.000  C
  H21      1.0000 0.13580  0.97390  0.33440  Biso   1.000  H
  H22      1.0000 0.86420  0.47390  0.16560  Biso   1.000  H
  H23      1.0000 0.86420  0.02610  0.66560  Biso   1.000  H
  H24      1.0000 0.13580  0.52610  0.83440  Biso   1.000  H
  C49      1.0000 0.11270  0.06710  0.28280  Biso   1.000  C
  C50      1.0000 0.88730  0.56710  0.21720  Biso   1.000  C
  C51      1.0000 0.88730  0.93290  0.71720  Biso   1.000  C
  C52      1.0000 0.11270  0.43290  0.78280  Biso   1.000  C
  H25      1.0000 0.07720  0.07850  0.35950  Biso   1.000  H
  H26      1.0000 0.92280  0.57850  0.14050  Biso   1.000  H
  H27      1.0000 0.92280  0.92150  0.64050  Biso   1.000  H
  H28      1.0000 0.07720  0.42150  0.85950  Biso   1.000  H
  C53      1.0000 0.13040  0.11350  0.18200  Biso   1.000  C
  C54      1.0000 0.86960  0.61350  0.31800  Biso   1.000  C
  C55      1.0000 0.86960  0.88650  0.81800  Biso   1.000  C
  C56      1.0000 0.13040  0.38650  0.68200  Biso   1.000  C
  H29      1.0000 0.10620  0.15540  0.19420  Biso   1.000  H
  H30      1.0000 0.89380  0.65540  0.30580  Biso   1.000  H
  H31      1.0000 0.89380  0.84460  0.80580  Biso   1.000  H
  H32      1.0000 0.10620  0.34460  0.69420  Biso   1.000  H
  C57      1.0000 0.21470  0.03850  0.05340  Biso   1.000  C
  C58      1.0000 0.78530  0.53850  0.44660  Biso   1.000  C
  C59      1.0000 0.78530  0.96150  0.94660  Biso   1.000  C
  C60      1.0000 0.21470  0.46150  0.55340  Biso   1.000  C
  C61      1.0000 0.26560  0.02480  0.92950  Biso   1.000  C
  C62      1.0000 0.73440  0.52480  0.57050  Biso   1.000  C
  C63      1.0000 0.73440  0.97520  0.07050  Biso   1.000  C
  C64      1.0000 0.26560  0.47520  0.42950  Biso   1.000  C
  Cu1      1.0000 0.19358  0.15772  0.89361  Biso   1.000  Cu
  Cu2      1.0000 0.80642  0.65772  0.60639  Biso   1.000  Cu
  Cu3      1.0000 0.80642  0.84228  0.10639  Biso   1.000  Cu
  Cu4      1.0000 0.19358  0.34228  0.39361  Biso   1.000  Cu
  N1       1.0000 0.10710  0.26650  0.45950  Biso   1.000  N
  N2       1.0000 0.89290  0.76650  0.04050  Biso   1.000  N
  N3       1.0000 0.89290  0.73350  0.54050  Biso   1.000  N
  N4       1.0000 0.10710  0.23350  0.95950  Biso   1.000  N
  N5       1.0000 0.11580  0.19160  0.66140  Biso   1.000  N
  N6       1.0000 0.88420  0.69160  0.83860  Biso   1.000  N
  N7       1.0000 0.88420  0.80840  0.33860  Biso   1.000  N
  N8       1.0000 0.11580  0.30840  0.16140  Biso   1.000  N
  N9       1.0000 0.26960  0.07520  0.83750  Biso   1.000  N
  N10      1.0000 0.73040  0.57520  0.66250  Biso   1.000  N
  N11      1.0000 0.73040  0.92480  0.16250  Biso   1.000  N
  N12      1.0000 0.26960  0.42480  0.33750  Biso   1.000  N
  N13      1.0000 0.18010  0.10040  0.06990  Biso   1.000  N
  N14      1.0000 0.81990  0.60040  0.43010  Biso   1.000  N
  N15      1.0000 0.81990  0.89960  0.93010  Biso   1.000  N
  N16      1.0000 0.18010  0.39960  0.56990  Biso   1.000  N
  O1       1.0000 0.33850  0.25471  0.71640  Biso   1.000  O
  O2       1.0000 0.66150  0.75471  0.78360  Biso   1.000  O
  O3       1.0000 0.66150  0.74529  0.28360  Biso   1.000  O
  O4       1.0000 0.33850  0.24529  0.21640  Biso   1.000  O
  O5       1.0000 0.89030  0.13151  0.60860  Biso   1.000  O
  O6       1.0000 0.10970  0.63151  0.89140  Biso   1.000  O
  O7       1.0000 0.10970  0.86849  0.39140  Biso   1.000  O
  O8       1.0000 0.89030  0.36849  0.10860  Biso   1.000  O
  O9       1.0000 0.46460  0.19520  0.02490  Biso   1.000  O
  O10      1.0000 0.53540  0.69520  0.47510  Biso   1.000  O
  O11      1.0000 0.53540  0.80480  0.97510  Biso   1.000  O
  O12      1.0000 0.46460  0.30480  0.52490  Biso   1.000  O
  H33      1.0000 0.75000  0.19000  0.30900  Biso   1.000  H
  H34      1.0000 0.25000  0.69000  0.19100  Biso   1.000  H
  H35      1.0000 0.25000  0.81000  0.69100  Biso   1.000  H
  H36      1.0000 0.75000  0.31000  0.80900  Biso   1.000  H
  H37      1.0000 0.89300  0.26600  0.25300  Biso   1.000  H
  H38      1.0000 0.10700  0.76600  0.24700  Biso   1.000  H
  H39      1.0000 0.10700  0.73400  0.74700  Biso   1.000  H
  H40      1.0000 0.89300  0.23400  0.75300  Biso   1.000  H
  H41      1.0000 0.44800  0.21500  0.09300  Biso   1.000  H
  H42      1.0000 0.55200  0.71500  0.40700  Biso   1.000  H
  H43      1.0000 0.55200  0.78500  0.90700  Biso   1.000  H
  H44      1.0000 0.44800  0.28500  0.59300  Biso   1.000  H
  H45      1.0000 0.44800  0.22200  0.94800  Biso   1.000  H
  H46      1.0000 0.55200  0.72200  0.55200  Biso   1.000  H
  H47      1.0000 0.55200  0.77800  0.05200  Biso   1.000  H
  H48      1.0000 0.44800  0.27800  0.44800  Biso   1.000  H
  O13      1.0000 0.52780  0.13010  0.45750  Biso   1.000  O
  O14      1.0000 0.47220  0.63010  0.04250  Biso   1.000  O
  O15      1.0000 0.47220  0.86990  0.54250  Biso   1.000  O
  O16      1.0000 0.52780  0.36990  0.95750  Biso   1.000  O
