data_image0
_cell_length_a       13.468
_cell_length_b       7.593
_cell_length_c       14.86
_cell_angle_alpha    90
_cell_angle_beta     104.71
_cell_angle_gamma    90

_symmetry_space_group_name_H-M    "P 1"
_symmetry_int_tables_number       1

loop_
  _symmetry_equiv_pos_as_xyz
  'x, y, z'

loop_
  _atom_site_label
  _atom_site_occupancy
  _atom_site_fract_x
  _atom_site_fract_y
  _atom_site_fract_z
  _atom_site_thermal_displace_type
  _atom_site_B_iso_or_equiv
  _atom_site_type_symbol
  Cu1      1.0000 0.21103  0.53476  0.59251  Biso   1.000  Cu
  Cu2      1.0000 0.28897  0.03476  0.90749  Biso   1.000  Cu
  Cu3      1.0000 0.78897  0.46524  0.40749  Biso   1.000  Cu
  Cu4      1.0000 0.71103  0.96524  0.09251  Biso   1.000  Cu
  N1       1.0000 0.17540  0.71200  0.67740  Biso   1.000  N
  N2       1.0000 0.32460  0.21200  0.82260  Biso   1.000  N
  N3       1.0000 0.82460  0.28800  0.32260  Biso   1.000  N
  N4       1.0000 0.67540  0.78800  0.17740  Biso   1.000  N
  N5       1.0000 0.20720  0.89910  0.79900  Biso   1.000  N
  N6       1.0000 0.29280  0.39910  0.70100  Biso   1.000  N
  N7       1.0000 0.79280  0.10090  0.20100  Biso   1.000  N
  N8       1.0000 0.70720  0.60090  0.29900  Biso   1.000  N
  N9       1.0000 0.21780  0.32040  0.51200  Biso   1.000  N
  N10      1.0000 0.28220  0.82040  0.98800  Biso   1.000  N
  N11      1.0000 0.78220  0.67960  0.48800  Biso   1.000  N
  N12      1.0000 0.71780  0.17960  0.01200  Biso   1.000  N
  N13      1.0000 0.22260  0.34280  0.42200  Biso   1.000  N
  N14      1.0000 0.27740  0.84280  0.07800  Biso   1.000  N
  N15      1.0000 0.77740  0.65720  0.57800  Biso   1.000  N
  N16      1.0000 0.72260  0.15720  0.92200  Biso   1.000  N
  N17      1.0000 0.11300  0.64620  0.47970  Biso   1.000  N
  N18      1.0000 0.38700  0.14620  0.02030  Biso   1.000  N
  N19      1.0000 0.88700  0.35380  0.52030  Biso   1.000  N
  N20      1.0000 0.61300  0.85380  0.97970  Biso   1.000  N
  N21      1.0000 0.13270  0.63280  0.39500  Biso   1.000  N
  N22      1.0000 0.36730  0.13280  0.10500  Biso   1.000  N
  N23      1.0000 0.86730  0.36720  0.60500  Biso   1.000  N
  N24      1.0000 0.63270  0.86720  0.89500  Biso   1.000  N
  N25      1.0000 0.34010  0.64860  0.53430  Biso   1.000  N
  N26      1.0000 0.15990  0.14860  0.96570  Biso   1.000  N
  N27      1.0000 0.65990  0.35140  0.46570  Biso   1.000  N
  N28      1.0000 0.84010  0.85140  0.03430  Biso   1.000  N
  N29      1.0000 0.32520  0.62290  0.44070  Biso   1.000  N
  N30      1.0000 0.17480  0.12290  0.05930  Biso   1.000  N
  N31      1.0000 0.67480  0.37710  0.55930  Biso   1.000  N
  N32      1.0000 0.82520  0.87710  0.94070  Biso   1.000  N
  C1       1.0000 0.24120  0.82590  0.73030  Biso   1.000  C
  C2       1.0000 0.25880  0.32590  0.76970  Biso   1.000  C
  C3       1.0000 0.75880  0.17410  0.26970  Biso   1.000  C
  C4       1.0000 0.74120  0.67410  0.23030  Biso   1.000  C
  C5       1.0000 0.09180  0.71170  0.71770  Biso   1.000  C
  C6       1.0000 0.40820  0.21170  0.78230  Biso   1.000  C
  C7       1.0000 0.90820  0.28830  0.28230  Biso   1.000  C
  C8       1.0000 0.59180  0.78830  0.21770  Biso   1.000  C
  C9       1.0000 0.11200  0.82590  0.79000  Biso   1.000  C
  C10      1.0000 0.38800  0.32590  0.71000  Biso   1.000  C
  C11      1.0000 0.88800  0.17410  0.21000  Biso   1.000  C
  C12      1.0000 0.61200  0.67410  0.29000  Biso   1.000  C
  C13      1.0000 0.22610  0.14700  0.52870  Biso   1.000  C
  C14      1.0000 0.27390  0.64700  0.97130  Biso   1.000  C
  C15      1.0000 0.77390  0.85300  0.47130  Biso   1.000  C
  C16      1.0000 0.72610  0.35300  0.02870  Biso   1.000  C
  C17      1.0000 0.23580  0.05680  0.45020  Biso   1.000  C
  C18      1.0000 0.26420  0.55680  0.04980  Biso   1.000  C
  C19      1.0000 0.76420  0.94320  0.54980  Biso   1.000  C
  C20      1.0000 0.73580  0.44320  0.95020  Biso   1.000  C
  C21      1.0000 0.23410  0.18430  0.38460  Biso   1.000  C
  C22      1.0000 0.26590  0.68430  0.11540  Biso   1.000  C
  C23      1.0000 0.76590  0.81570  0.61540  Biso   1.000  C
  C24      1.0000 0.73410  0.31570  0.88460  Biso   1.000  C
  C25      1.0000 0.02990  0.75200  0.46950  Biso   1.000  C
  C26      1.0000 0.47010  0.25200  0.03050  Biso   1.000  C
  C27      1.0000 0.97010  0.24800  0.53050  Biso   1.000  C
  C28      1.0000 0.52990  0.74800  0.96950  Biso   1.000  C
  C29      1.0000 0.99750  0.80630  0.37610  Biso   1.000  C
  C30      1.0000 0.50250  0.30630  0.12390  Biso   1.000  C
  C31      1.0000 0.00250  0.19370  0.62390  Biso   1.000  C
  C32      1.0000 0.49750  0.69370  0.87610  Biso   1.000  C
  C33      1.0000 0.06490  0.73000  0.33220  Biso   1.000  C
  C34      1.0000 0.43510  0.23000  0.16780  Biso   1.000  C
  C35      1.0000 0.93510  0.27000  0.66780  Biso   1.000  C
  C36      1.0000 0.56490  0.77000  0.83220  Biso   1.000  C
  C37      1.0000 0.43010  0.73240  0.56200  Biso   1.000  C
  C38      1.0000 0.06990  0.23240  0.93800  Biso   1.000  C
  C39      1.0000 0.56990  0.26760  0.43800  Biso   1.000  C
  C40      1.0000 0.93010  0.76760  0.06200  Biso   1.000  C
  C41      1.0000 0.47450  0.76040  0.48830  Biso   1.000  C
  C42      1.0000 0.02550  0.26040  0.01170  Biso   1.000  C
  C43      1.0000 0.52550  0.23960  0.51170  Biso   1.000  C
  C44      1.0000 0.97450  0.73960  0.98830  Biso   1.000  C
  C45      1.0000 0.40500  0.68940  0.41250  Biso   1.000  C
  C46      1.0000 0.09500  0.18940  0.08750  Biso   1.000  C
  C47      1.0000 0.59500  0.31060  0.58750  Biso   1.000  C
  C48      1.0000 0.90500  0.81060  0.91250  Biso   1.000  C
  B1       1.0000 0.22690  0.52920  0.38200  Biso   1.000  B
  B2       1.0000 0.27310  0.02920  0.11800  Biso   1.000  B
  B3       1.0000 0.77310  0.47080  0.61800  Biso   1.000  B
  B4       1.0000 0.72690  0.97080  0.88200  Biso   1.000  B
  H1       1.0000 0.30500  0.85190  0.72020  Biso   1.000  H
  H2       1.0000 0.19500  0.35190  0.77980  Biso   1.000  H
  H3       1.0000 0.69500  0.14810  0.27980  Biso   1.000  H
  H4       1.0000 0.80500  0.64810  0.22020  Biso   1.000  H
  H5       1.0000 0.03260  0.64450  0.69810  Biso   1.000  H
  H6       1.0000 0.46740  0.14450  0.80190  Biso   1.000  H
  H7       1.0000 0.96740  0.35550  0.30190  Biso   1.000  H
  H8       1.0000 0.53260  0.85550  0.19810  Biso   1.000  H
  H9       1.0000 0.06830  0.85080  0.82770  Biso   1.000  H
  H10      1.0000 0.43170  0.35080  0.67230  Biso   1.000  H
  H11      1.0000 0.93170  0.14920  0.17230  Biso   1.000  H
  H12      1.0000 0.56830  0.64920  0.32770  Biso   1.000  H
  H13      1.0000 0.22540  0.09440  0.58500  Biso   1.000  H
  H14      1.0000 0.27460  0.59440  0.91500  Biso   1.000  H
  H15      1.0000 0.77460  0.90560  0.41500  Biso   1.000  H
  H16      1.0000 0.72540  0.40560  0.08500  Biso   1.000  H
  H17      1.0000 0.24210  0.93590  0.44350  Biso   1.000  H
  H18      1.0000 0.25790  0.43590  0.05650  Biso   1.000  H
  H19      1.0000 0.75790  0.06410  0.55650  Biso   1.000  H
  H20      1.0000 0.74210  0.56410  0.94350  Biso   1.000  H
  H21      1.0000 0.24000  0.16500  0.32440  Biso   1.000  H
  H22      1.0000 0.26000  0.66500  0.17560  Biso   1.000  H
  H23      1.0000 0.76000  0.83500  0.67560  Biso   1.000  H
  H24      1.0000 0.74000  0.33500  0.82440  Biso   1.000  H
  H25      1.0000 0.99920  0.78360  0.51650  Biso   1.000  H
  H26      1.0000 0.50080  0.28360  0.98350  Biso   1.000  H
  H27      1.0000 0.00080  0.21640  0.48350  Biso   1.000  H
  H28      1.0000 0.49920  0.71640  0.01650  Biso   1.000  H
  H29      1.0000 0.94210  0.87870  0.34970  Biso   1.000  H
  H30      1.0000 0.55790  0.37870  0.15030  Biso   1.000  H
  H31      1.0000 0.05790  0.12130  0.65030  Biso   1.000  H
  H32      1.0000 0.44210  0.62130  0.84970  Biso   1.000  H
  H33      1.0000 0.06390  0.74330  0.26980  Biso   1.000  H
  H34      1.0000 0.43610  0.24330  0.23020  Biso   1.000  H
  H35      1.0000 0.93610  0.25670  0.73020  Biso   1.000  H
  H36      1.0000 0.56390  0.75670  0.76980  Biso   1.000  H
  H37      1.0000 0.45930  0.76760  0.62290  Biso   1.000  H
  H38      1.0000 0.04070  0.26760  0.87710  Biso   1.000  H
  H39      1.0000 0.54070  0.23240  0.37710  Biso   1.000  H
  H40      1.0000 0.95930  0.73240  0.12290  Biso   1.000  H
  H41      1.0000 0.53690  0.81440  0.48980  Biso   1.000  H
  H42      1.0000 0.96310  0.31440  0.01020  Biso   1.000  H
  H43      1.0000 0.46310  0.18560  0.51020  Biso   1.000  H
  H44      1.0000 0.03690  0.68560  0.98980  Biso   1.000  H
  H45      1.0000 0.41200  0.68790  0.35190  Biso   1.000  H
  H46      1.0000 0.08800  0.18790  0.14810  Biso   1.000  H
  H47      1.0000 0.58800  0.31210  0.64810  Biso   1.000  H
  H48      1.0000 0.91200  0.81210  0.85190  Biso   1.000  H
  H49      1.0000 0.22730  0.52390  0.31620  Biso   1.000  H
  H50      1.0000 0.27270  0.02390  0.18380  Biso   1.000  H
  H51      1.0000 0.77270  0.47610  0.68380  Biso   1.000  H
  H52      1.0000 0.72730  0.97610  0.81620  Biso   1.000  H
