data_image0
_cell_length_a       7.2605
_cell_length_b       15.855
_cell_length_c       28.785
_cell_angle_alpha    90
_cell_angle_beta     90
_cell_angle_gamma    90

_symmetry_space_group_name_H-M    "P 1"
_symmetry_int_tables_number       1

loop_
  _symmetry_equiv_pos_as_xyz
  'x, y, z'

loop_
  _atom_site_label
  _atom_site_occupancy
  _atom_site_fract_x
  _atom_site_fract_y
  _atom_site_fract_z
  _atom_site_thermal_displace_type
  _atom_site_B_iso_or_equiv
  _atom_site_type_symbol
  C1       1.0000 0.99950  0.53340  0.25230  Biso   1.000  C
  C2       1.0000 0.50050  0.46660  0.75230  Biso   1.000  C
  C3       1.0000 0.00050  0.03340  0.24770  Biso   1.000  C
  C4       1.0000 0.49950  0.96660  0.74770  Biso   1.000  C
  C5       1.0000 0.00050  0.46660  0.74770  Biso   1.000  C
  C6       1.0000 0.49950  0.53340  0.24770  Biso   1.000  C
  C7       1.0000 0.99950  0.96660  0.75230  Biso   1.000  C
  C8       1.0000 0.50050  0.03340  0.25230  Biso   1.000  C
  C9       1.0000 0.96540  0.59500  0.28535  Biso   1.000  C
  C10      1.0000 0.53460  0.40500  0.78535  Biso   1.000  C
  C11      1.0000 0.03460  0.09500  0.21465  Biso   1.000  C
  C12      1.0000 0.46540  0.90500  0.71465  Biso   1.000  C
  C13      1.0000 0.03460  0.40500  0.71465  Biso   1.000  C
  C14      1.0000 0.46540  0.59500  0.21465  Biso   1.000  C
  C15      1.0000 0.96540  0.90500  0.78535  Biso   1.000  C
  C16      1.0000 0.53460  0.09500  0.28535  Biso   1.000  C
  H1       1.0000 0.94150  0.65020  0.27620  Biso   1.000  H
  H2       1.0000 0.55850  0.34980  0.77620  Biso   1.000  H
  H3       1.0000 0.05850  0.15020  0.22380  Biso   1.000  H
  H4       1.0000 0.44150  0.84980  0.72380  Biso   1.000  H
  H5       1.0000 0.05850  0.34980  0.72380  Biso   1.000  H
  H6       1.0000 0.44150  0.65020  0.22380  Biso   1.000  H
  H7       1.0000 0.94150  0.84980  0.77620  Biso   1.000  H
  H8       1.0000 0.55850  0.15020  0.27620  Biso   1.000  H
  C17      1.0000 0.96690  0.57430  0.33154  Biso   1.000  C
  C18      1.0000 0.53310  0.42570  0.83154  Biso   1.000  C
  C19      1.0000 0.03310  0.07430  0.16846  Biso   1.000  C
  C20      1.0000 0.46690  0.92570  0.66846  Biso   1.000  C
  C21      1.0000 0.03310  0.42570  0.66846  Biso   1.000  C
  C22      1.0000 0.46690  0.57430  0.16846  Biso   1.000  C
  C23      1.0000 0.96690  0.92570  0.83154  Biso   1.000  C
  C24      1.0000 0.53310  0.07430  0.33154  Biso   1.000  C
  H9       1.0000 0.94150  0.61430  0.35430  Biso   1.000  H
  H10      1.0000 0.55850  0.38570  0.85430  Biso   1.000  H
  H11      1.0000 0.05850  0.11430  0.14570  Biso   1.000  H
  H12      1.0000 0.44150  0.88570  0.64570  Biso   1.000  H
  H13      1.0000 0.05850  0.38570  0.64570  Biso   1.000  H
  H14      1.0000 0.44150  0.61430  0.14570  Biso   1.000  H
  H15      1.0000 0.94150  0.88570  0.85430  Biso   1.000  H
  H16      1.0000 0.55850  0.11430  0.35430  Biso   1.000  H
  C25      1.0000 0.00970  0.48770  0.34363  Biso   1.000  C
  C26      1.0000 0.49030  0.51230  0.84363  Biso   1.000  C
  C27      1.0000 0.99030  0.98770  0.15637  Biso   1.000  C
  C28      1.0000 0.50970  0.01230  0.65637  Biso   1.000  C
  C29      1.0000 0.99030  0.51230  0.65637  Biso   1.000  C
  C30      1.0000 0.50970  0.48770  0.15637  Biso   1.000  C
  C31      1.0000 0.00970  0.01230  0.84363  Biso   1.000  C
  C32      1.0000 0.49030  0.98770  0.34363  Biso   1.000  C
  H17      1.0000 0.01640  0.47040  0.37440  Biso   1.000  H
  H18      1.0000 0.48360  0.52960  0.87440  Biso   1.000  H
  H19      1.0000 0.98360  0.97040  0.12560  Biso   1.000  H
  H20      1.0000 0.51640  0.02960  0.62560  Biso   1.000  H
  H21      1.0000 0.98360  0.52960  0.62560  Biso   1.000  H
  H22      1.0000 0.51640  0.47040  0.12560  Biso   1.000  H
  H23      1.0000 0.01640  0.02960  0.87440  Biso   1.000  H
  H24      1.0000 0.48360  0.97040  0.37440  Biso   1.000  H
  C33      1.0000 0.03950  0.43310  0.30814  Biso   1.000  C
  C34      1.0000 0.46050  0.56690  0.80814  Biso   1.000  C
  C35      1.0000 0.96050  0.93310  0.19186  Biso   1.000  C
  C36      1.0000 0.53950  0.06690  0.69186  Biso   1.000  C
  C37      1.0000 0.96050  0.56690  0.69186  Biso   1.000  C
  C38      1.0000 0.53950  0.43310  0.19186  Biso   1.000  C
  C39      1.0000 0.03950  0.06690  0.80814  Biso   1.000  C
  C40      1.0000 0.46050  0.93310  0.30814  Biso   1.000  C
  H25      1.0000 0.06470  0.37730  0.31580  Biso   1.000  H
  H26      1.0000 0.43530  0.62270  0.81580  Biso   1.000  H
  H27      1.0000 0.93530  0.87730  0.18420  Biso   1.000  H
  H28      1.0000 0.56470  0.12270  0.68420  Biso   1.000  H
  H29      1.0000 0.93530  0.62270  0.68420  Biso   1.000  H
  H30      1.0000 0.56470  0.37730  0.18420  Biso   1.000  H
  H31      1.0000 0.06470  0.12270  0.81580  Biso   1.000  H
  H32      1.0000 0.43530  0.87730  0.31580  Biso   1.000  H
  C41      1.0000 0.99070  0.55030  0.20126  Biso   1.000  C
  C42      1.0000 0.50930  0.44970  0.70126  Biso   1.000  C
  C43      1.0000 0.00930  0.05030  0.29874  Biso   1.000  C
  C44      1.0000 0.49070  0.94970  0.79874  Biso   1.000  C
  C45      1.0000 0.00930  0.44970  0.79874  Biso   1.000  C
  C46      1.0000 0.49070  0.55030  0.29874  Biso   1.000  C
  C47      1.0000 0.99070  0.94970  0.70126  Biso   1.000  C
  C48      1.0000 0.50930  0.05030  0.20126  Biso   1.000  C
  C49      1.0000 0.96890  0.63070  0.18143  Biso   1.000  C
  C50      1.0000 0.53110  0.36930  0.68143  Biso   1.000  C
  C51      1.0000 0.03110  0.13070  0.31857  Biso   1.000  C
  C52      1.0000 0.46890  0.86930  0.81857  Biso   1.000  C
  C53      1.0000 0.03110  0.36930  0.81857  Biso   1.000  C
  C54      1.0000 0.46890  0.63070  0.31857  Biso   1.000  C
  C55      1.0000 0.96890  0.86930  0.68143  Biso   1.000  C
  C56      1.0000 0.53110  0.13070  0.18143  Biso   1.000  C
  H33      1.0000 0.95780  0.67820  0.20020  Biso   1.000  H
  H34      1.0000 0.54220  0.32180  0.70020  Biso   1.000  H
  H35      1.0000 0.04220  0.17820  0.29980  Biso   1.000  H
  H36      1.0000 0.45780  0.82180  0.79980  Biso   1.000  H
  H37      1.0000 0.04220  0.32180  0.79980  Biso   1.000  H
  H38      1.0000 0.45780  0.67820  0.29980  Biso   1.000  H
  H39      1.0000 0.95780  0.82180  0.70020  Biso   1.000  H
  H40      1.0000 0.54220  0.17820  0.20020  Biso   1.000  H
  C57      1.0000 0.96430  0.63820  0.13486  Biso   1.000  C
  C58      1.0000 0.53570  0.36180  0.63486  Biso   1.000  C
  C59      1.0000 0.03570  0.13820  0.36514  Biso   1.000  C
  C60      1.0000 0.46430  0.86180  0.86514  Biso   1.000  C
  C61      1.0000 0.03570  0.36180  0.86514  Biso   1.000  C
  C62      1.0000 0.46430  0.63820  0.36514  Biso   1.000  C
  C63      1.0000 0.96430  0.86180  0.63486  Biso   1.000  C
  C64      1.0000 0.53570  0.13820  0.13486  Biso   1.000  C
  C65      1.0000 0.97320  0.56650  0.10742  Biso   1.000  C
  C66      1.0000 0.52680  0.43350  0.60742  Biso   1.000  C
  C67      1.0000 0.02680  0.06650  0.39258  Biso   1.000  C
  C68      1.0000 0.47320  0.93350  0.89258  Biso   1.000  C
  C69      1.0000 0.02680  0.43350  0.89258  Biso   1.000  C
  C70      1.0000 0.47320  0.56650  0.39258  Biso   1.000  C
  C71      1.0000 0.97320  0.93350  0.60742  Biso   1.000  C
  C72      1.0000 0.52680  0.06650  0.10742  Biso   1.000  C
  C73      1.0000 0.00070  0.49040  0.13003  Biso   1.000  C
  C74      1.0000 0.49930  0.50960  0.63003  Biso   1.000  C
  C75      1.0000 0.99930  0.99040  0.36997  Biso   1.000  C
  C76      1.0000 0.50070  0.00960  0.86997  Biso   1.000  C
  C77      1.0000 0.99930  0.50960  0.86997  Biso   1.000  C
  C78      1.0000 0.50070  0.49040  0.36997  Biso   1.000  C
  C79      1.0000 0.00070  0.00960  0.63003  Biso   1.000  C
  C80      1.0000 0.49930  0.99040  0.13003  Biso   1.000  C
  H41      1.0000 0.01390  0.44260  0.11170  Biso   1.000  H
  H42      1.0000 0.48610  0.55740  0.61170  Biso   1.000  H
  H43      1.0000 0.98610  0.94260  0.38830  Biso   1.000  H
  H44      1.0000 0.51390  0.05740  0.88830  Biso   1.000  H
  H45      1.0000 0.98610  0.55740  0.88830  Biso   1.000  H
  H46      1.0000 0.51390  0.44260  0.38830  Biso   1.000  H
  H47      1.0000 0.01390  0.05740  0.61170  Biso   1.000  H
  H48      1.0000 0.48610  0.94260  0.11170  Biso   1.000  H
  C81      1.0000 0.04220  0.58140  0.05880  Biso   1.000  C
  C82      1.0000 0.45780  0.41860  0.55880  Biso   1.000  C
  C83      1.0000 0.95780  0.08140  0.44120  Biso   1.000  C
  C84      1.0000 0.54220  0.91860  0.94120  Biso   1.000  C
  C85      1.0000 0.95780  0.41860  0.94120  Biso   1.000  C
  C86      1.0000 0.54220  0.58140  0.44120  Biso   1.000  C
  C87      1.0000 0.04220  0.91860  0.55880  Biso   1.000  C
  C88      1.0000 0.45780  0.08140  0.05880  Biso   1.000  C
  H49      1.0000 0.08240  0.53100  0.04180  Biso   1.000  H
  H50      1.0000 0.41760  0.46900  0.54180  Biso   1.000  H
  H51      1.0000 0.91760  0.03100  0.45820  Biso   1.000  H
  H52      1.0000 0.58240  0.96900  0.95820  Biso   1.000  H
  H53      1.0000 0.91760  0.46900  0.95820  Biso   1.000  H
  H54      1.0000 0.58240  0.53100  0.45820  Biso   1.000  H
  H55      1.0000 0.08240  0.96900  0.54180  Biso   1.000  H
  H56      1.0000 0.41760  0.03100  0.04180  Biso   1.000  H
  C89      1.0000 0.15510  0.65890  0.05120  Biso   1.000  C
  C90      1.0000 0.34490  0.34110  0.55120  Biso   1.000  C
  C91      1.0000 0.84490  0.15890  0.44880  Biso   1.000  C
  C92      1.0000 0.65510  0.84110  0.94880  Biso   1.000  C
  C93      1.0000 0.84490  0.34110  0.94880  Biso   1.000  C
  C94      1.0000 0.65510  0.65890  0.44880  Biso   1.000  C
  C95      1.0000 0.15510  0.84110  0.55120  Biso   1.000  C
  C96      1.0000 0.34490  0.15890  0.05120  Biso   1.000  C
  H57      1.0000 0.20960  0.66270  0.02040  Biso   1.000  H
  H58      1.0000 0.29040  0.33730  0.52040  Biso   1.000  H
  H59      1.0000 0.79040  0.16270  0.47960  Biso   1.000  H
  H60      1.0000 0.70960  0.83730  0.97960  Biso   1.000  H
  H61      1.0000 0.79040  0.33730  0.97960  Biso   1.000  H
  H62      1.0000 0.70960  0.66270  0.47960  Biso   1.000  H
  H63      1.0000 0.20960  0.83730  0.52040  Biso   1.000  H
  H64      1.0000 0.29040  0.16270  0.02040  Biso   1.000  H
  H65      1.0000 0.24590  0.66940  0.07520  Biso   1.000  H
  H66      1.0000 0.25410  0.33060  0.57520  Biso   1.000  H
  H67      1.0000 0.75410  0.16940  0.42480  Biso   1.000  H
  H68      1.0000 0.74590  0.83060  0.92480  Biso   1.000  H
  H69      1.0000 0.75410  0.33060  0.92480  Biso   1.000  H
  H70      1.0000 0.74590  0.66940  0.42480  Biso   1.000  H
  H71      1.0000 0.24590  0.83060  0.57520  Biso   1.000  H
  H72      1.0000 0.25410  0.16940  0.07520  Biso   1.000  H
  C97      1.0000 0.97540  0.70990  0.05680  Biso   1.000  C
  C98      1.0000 0.52460  0.29010  0.55680  Biso   1.000  C
  C99      1.0000 0.02460  0.20990  0.44320  Biso   1.000  C
  C100     1.0000 0.47540  0.79010  0.94320  Biso   1.000  C
  C101     1.0000 0.02460  0.29010  0.94320  Biso   1.000  C
  C102     1.0000 0.47540  0.70990  0.44320  Biso   1.000  C
  C103     1.0000 0.97540  0.79010  0.55680  Biso   1.000  C
  C104     1.0000 0.52460  0.20990  0.05680  Biso   1.000  C
  H73      1.0000 0.96840  0.76200  0.03870  Biso   1.000  H
  H74      1.0000 0.53160  0.23800  0.53870  Biso   1.000  H
  H75      1.0000 0.03160  0.26200  0.46130  Biso   1.000  H
  H76      1.0000 0.46840  0.73800  0.96130  Biso   1.000  H
  H77      1.0000 0.03160  0.23800  0.96130  Biso   1.000  H
  H78      1.0000 0.46840  0.76200  0.46130  Biso   1.000  H
  H79      1.0000 0.96840  0.73800  0.53870  Biso   1.000  H
  H80      1.0000 0.53160  0.26200  0.03870  Biso   1.000  H
  C105     1.0000 0.95630  0.71990  0.10620  Biso   1.000  C
  C106     1.0000 0.54370  0.28010  0.60620  Biso   1.000  C
  C107     1.0000 0.04370  0.21990  0.39380  Biso   1.000  C
  C108     1.0000 0.45630  0.78010  0.89380  Biso   1.000  C
  C109     1.0000 0.04370  0.28010  0.89380  Biso   1.000  C
  C110     1.0000 0.45630  0.71990  0.39380  Biso   1.000  C
  C111     1.0000 0.95630  0.78010  0.60620  Biso   1.000  C
  C112     1.0000 0.54370  0.21990  0.10620  Biso   1.000  C
  H81      1.0000 0.83960  0.74750  0.11240  Biso   1.000  H
  H82      1.0000 0.66040  0.25250  0.61240  Biso   1.000  H
  H83      1.0000 0.16040  0.24750  0.38760  Biso   1.000  H
  H84      1.0000 0.33960  0.75250  0.88760  Biso   1.000  H
  H85      1.0000 0.16040  0.25250  0.88760  Biso   1.000  H
  H86      1.0000 0.33960  0.74750  0.38760  Biso   1.000  H
  H87      1.0000 0.83960  0.75250  0.61240  Biso   1.000  H
  H88      1.0000 0.66040  0.24750  0.11240  Biso   1.000  H
  H89      1.0000 0.05320  0.75730  0.11700  Biso   1.000  H
  H90      1.0000 0.44680  0.24270  0.61700  Biso   1.000  H
  H91      1.0000 0.94680  0.25730  0.38300  Biso   1.000  H
  H92      1.0000 0.55320  0.74270  0.88300  Biso   1.000  H
  H93      1.0000 0.94680  0.24270  0.88300  Biso   1.000  H
  H94      1.0000 0.55320  0.75730  0.38300  Biso   1.000  H
  H95      1.0000 0.05320  0.74270  0.61700  Biso   1.000  H
  H96      1.0000 0.44680  0.25730  0.11700  Biso   1.000  H
  C113     1.0000 0.90090  0.63550  0.03440  Biso   1.000  C
  C114     1.0000 0.59910  0.36450  0.53440  Biso   1.000  C
  C115     1.0000 0.09910  0.13550  0.46560  Biso   1.000  C
  C116     1.0000 0.40090  0.86450  0.96560  Biso   1.000  C
  C117     1.0000 0.09910  0.36450  0.96560  Biso   1.000  C
  C118     1.0000 0.40090  0.63550  0.46560  Biso   1.000  C
  C119     1.0000 0.90090  0.86450  0.53440  Biso   1.000  C
  C120     1.0000 0.59910  0.13550  0.03440  Biso   1.000  C
  C121     1.0000 0.89910  0.63730  0.98130  Biso   1.000  C
  C122     1.0000 0.60090  0.36270  0.48130  Biso   1.000  C
  C123     1.0000 0.10090  0.13730  0.51870  Biso   1.000  C
  C124     1.0000 0.39910  0.86270  0.01870  Biso   1.000  C
  C125     1.0000 0.10090  0.36270  0.01870  Biso   1.000  C
  C126     1.0000 0.39910  0.63730  0.51870  Biso   1.000  C
  C127     1.0000 0.89910  0.86270  0.48130  Biso   1.000  C
  C128     1.0000 0.60090  0.13730  0.98130  Biso   1.000  C
  H97      1.0000 0.77720  0.62510  0.97030  Biso   1.000  H
  H98      1.0000 0.72280  0.37490  0.47030  Biso   1.000  H
  H99      1.0000 0.22280  0.12510  0.52970  Biso   1.000  H
  H100     1.0000 0.27720  0.87490  0.02970  Biso   1.000  H
  H101     1.0000 0.22280  0.37490  0.02970  Biso   1.000  H
  H102     1.0000 0.27720  0.62510  0.52970  Biso   1.000  H
  H103     1.0000 0.77720  0.87490  0.47030  Biso   1.000  H
  H104     1.0000 0.72280  0.12510  0.97030  Biso   1.000  H
  H105     1.0000 0.98340  0.59580  0.96960  Biso   1.000  H
  H106     1.0000 0.51660  0.40420  0.46960  Biso   1.000  H
  H107     1.0000 0.01660  0.09580  0.53040  Biso   1.000  H
  H108     1.0000 0.48340  0.90420  0.03040  Biso   1.000  H
  H109     1.0000 0.01660  0.40420  0.03040  Biso   1.000  H
  H110     1.0000 0.48340  0.59580  0.53040  Biso   1.000  H
  H111     1.0000 0.98340  0.90420  0.46960  Biso   1.000  H
  H112     1.0000 0.51660  0.09580  0.96960  Biso   1.000  H
  H113     1.0000 0.93570  0.69220  0.97070  Biso   1.000  H
  H114     1.0000 0.56430  0.30780  0.47070  Biso   1.000  H
  H115     1.0000 0.06430  0.19220  0.52930  Biso   1.000  H
  H116     1.0000 0.43570  0.80780  0.02930  Biso   1.000  H
  H117     1.0000 0.06430  0.30780  0.02930  Biso   1.000  H
  H118     1.0000 0.43570  0.69220  0.52930  Biso   1.000  H
  H119     1.0000 0.93570  0.80780  0.47070  Biso   1.000  H
  H120     1.0000 0.56430  0.19220  0.97070  Biso   1.000  H
  C129     1.0000 0.70300  0.61690  0.04870  Biso   1.000  C
  C130     1.0000 0.79700  0.38310  0.54870  Biso   1.000  C
  C131     1.0000 0.29700  0.11690  0.45130  Biso   1.000  C
  C132     1.0000 0.20300  0.88310  0.95130  Biso   1.000  C
  C133     1.0000 0.29700  0.38310  0.95130  Biso   1.000  C
  C134     1.0000 0.20300  0.61690  0.45130  Biso   1.000  C
  C135     1.0000 0.70300  0.88310  0.54870  Biso   1.000  C
  C136     1.0000 0.79700  0.11690  0.04870  Biso   1.000  C
  H121     1.0000 0.62920  0.60830  0.02140  Biso   1.000  H
  H122     1.0000 0.87080  0.39170  0.52140  Biso   1.000  H
  H123     1.0000 0.37080  0.10830  0.47860  Biso   1.000  H
  H124     1.0000 0.12920  0.89170  0.97860  Biso   1.000  H
  H125     1.0000 0.37080  0.39170  0.97860  Biso   1.000  H
  H126     1.0000 0.12920  0.60830  0.47860  Biso   1.000  H
  H127     1.0000 0.62920  0.89170  0.52140  Biso   1.000  H
  H128     1.0000 0.87080  0.10830  0.02140  Biso   1.000  H
  H129     1.0000 0.65510  0.66370  0.06610  Biso   1.000  H
  H130     1.0000 0.84490  0.33630  0.56610  Biso   1.000  H
  H131     1.0000 0.34490  0.16370  0.43390  Biso   1.000  H
  H132     1.0000 0.15510  0.83630  0.93390  Biso   1.000  H
  H133     1.0000 0.34490  0.33630  0.93390  Biso   1.000  H
  H134     1.0000 0.15510  0.66370  0.43390  Biso   1.000  H
  H135     1.0000 0.65510  0.83630  0.56610  Biso   1.000  H
  H136     1.0000 0.84490  0.16370  0.06610  Biso   1.000  H
  H137     1.0000 0.70010  0.56700  0.06760  Biso   1.000  H
  H138     1.0000 0.79990  0.43300  0.56760  Biso   1.000  H
  H139     1.0000 0.29990  0.06700  0.43240  Biso   1.000  H
  H140     1.0000 0.20010  0.93300  0.93240  Biso   1.000  H
  H141     1.0000 0.29990  0.43300  0.93240  Biso   1.000  H
  H142     1.0000 0.20010  0.56700  0.43240  Biso   1.000  H
  H143     1.0000 0.70010  0.93300  0.56760  Biso   1.000  H
  H144     1.0000 0.79990  0.06700  0.06760  Biso   1.000  H
  C137     1.0000 0.88220  0.57340  0.05920  Biso   1.000  C
  C138     1.0000 0.61780  0.42660  0.55920  Biso   1.000  C
  C139     1.0000 0.11780  0.07340  0.44080  Biso   1.000  C
  C140     1.0000 0.38220  0.92660  0.94080  Biso   1.000  C
  C141     1.0000 0.11780  0.42660  0.94080  Biso   1.000  C
  C142     1.0000 0.38220  0.57340  0.44080  Biso   1.000  C
  C143     1.0000 0.88220  0.92660  0.55920  Biso   1.000  C
  C144     1.0000 0.61780  0.07340  0.05920  Biso   1.000  C
  H145     1.0000 0.86120  0.52230  0.04080  Biso   1.000  H
  H146     1.0000 0.63880  0.47770  0.54080  Biso   1.000  H
  H147     1.0000 0.13880  0.02230  0.45920  Biso   1.000  H
  H148     1.0000 0.36120  0.97770  0.95920  Biso   1.000  H
  H149     1.0000 0.13880  0.47770  0.95920  Biso   1.000  H
  H150     1.0000 0.36120  0.52230  0.45920  Biso   1.000  H
  H151     1.0000 0.86120  0.97770  0.54080  Biso   1.000  H
  H152     1.0000 0.63880  0.02230  0.04080  Biso   1.000  H
  C145     1.0000 0.74000  0.64200  0.05940  Biso   1.000  C
  C146     1.0000 0.76000  0.35800  0.55940  Biso   1.000  C
  C147     1.0000 0.26000  0.14200  0.44060  Biso   1.000  C
  C148     1.0000 0.24000  0.85800  0.94060  Biso   1.000  C
  C149     1.0000 0.26000  0.35800  0.94060  Biso   1.000  C
  C150     1.0000 0.24000  0.64200  0.44060  Biso   1.000  C
  C151     1.0000 0.74000  0.85800  0.55940  Biso   1.000  C
  C152     1.0000 0.76000  0.14200  0.05940  Biso   1.000  C
  H153     1.0000 0.66790  0.64340  0.03110  Biso   1.000  H
  H154     1.0000 0.83210  0.35660  0.53110  Biso   1.000  H
  H155     1.0000 0.33210  0.14340  0.46890  Biso   1.000  H
  H156     1.0000 0.16790  0.85660  0.96890  Biso   1.000  H
  H157     1.0000 0.33210  0.35660  0.96890  Biso   1.000  H
  H158     1.0000 0.16790  0.64340  0.46890  Biso   1.000  H
  H159     1.0000 0.66790  0.85660  0.53110  Biso   1.000  H
  H160     1.0000 0.83210  0.14340  0.03110  Biso   1.000  H
  H161     1.0000 0.65960  0.63920  0.08620  Biso   1.000  H
  H162     1.0000 0.84040  0.36080  0.58620  Biso   1.000  H
  H163     1.0000 0.34040  0.13920  0.41380  Biso   1.000  H
  H164     1.0000 0.15960  0.86080  0.91380  Biso   1.000  H
  H165     1.0000 0.34040  0.36080  0.91380  Biso   1.000  H
  H166     1.0000 0.15960  0.63920  0.41380  Biso   1.000  H
  H167     1.0000 0.65960  0.86080  0.58620  Biso   1.000  H
  H168     1.0000 0.84040  0.13920  0.08620  Biso   1.000  H
  C153     1.0000 0.87440  0.71190  0.06230  Biso   1.000  C
  C154     1.0000 0.62560  0.28810  0.56230  Biso   1.000  C
  C155     1.0000 0.12560  0.21190  0.43770  Biso   1.000  C
  C156     1.0000 0.37440  0.78810  0.93770  Biso   1.000  C
  C157     1.0000 0.12560  0.28810  0.93770  Biso   1.000  C
  C158     1.0000 0.37440  0.71190  0.43770  Biso   1.000  C
  C159     1.0000 0.87440  0.78810  0.56230  Biso   1.000  C
  C160     1.0000 0.62560  0.21190  0.06230  Biso   1.000  C
  H169     1.0000 0.84770  0.76410  0.04530  Biso   1.000  H
  H170     1.0000 0.65230  0.23590  0.54530  Biso   1.000  H
  H171     1.0000 0.15230  0.26410  0.45470  Biso   1.000  H
  H172     1.0000 0.34770  0.73590  0.95470  Biso   1.000  H
  H173     1.0000 0.15230  0.23590  0.95470  Biso   1.000  H
  H174     1.0000 0.34770  0.76410  0.45470  Biso   1.000  H
  H175     1.0000 0.84770  0.73590  0.54530  Biso   1.000  H
  H176     1.0000 0.65230  0.26410  0.04530  Biso   1.000  H
  C161     1.0000 0.90400  0.71760  0.11860  Biso   1.000  C
  C162     1.0000 0.59600  0.28240  0.61860  Biso   1.000  C
  C163     1.0000 0.09600  0.21760  0.38140  Biso   1.000  C
  C164     1.0000 0.40400  0.78240  0.88140  Biso   1.000  C
  C165     1.0000 0.09600  0.28240  0.88140  Biso   1.000  C
  C166     1.0000 0.40400  0.71760  0.38140  Biso   1.000  C
  C167     1.0000 0.90400  0.78240  0.61860  Biso   1.000  C
  C168     1.0000 0.59600  0.21760  0.11860  Biso   1.000  C
  H177     1.0000 0.99450  0.76050  0.12590  Biso   1.000  H
  H178     1.0000 0.50550  0.23950  0.62590  Biso   1.000  H
  H179     1.0000 0.00550  0.26050  0.37410  Biso   1.000  H
  H180     1.0000 0.49450  0.73950  0.87410  Biso   1.000  H
  H181     1.0000 0.00550  0.23950  0.87410  Biso   1.000  H
  H182     1.0000 0.49450  0.76050  0.37410  Biso   1.000  H
  H183     1.0000 0.99450  0.73950  0.62590  Biso   1.000  H
  H184     1.0000 0.50550  0.26050  0.12590  Biso   1.000  H
  H185     1.0000 0.78880  0.73270  0.13350  Biso   1.000  H
  H186     1.0000 0.71120  0.26730  0.63350  Biso   1.000  H
  H187     1.0000 0.21120  0.23270  0.36650  Biso   1.000  H
  H188     1.0000 0.28880  0.76730  0.86650  Biso   1.000  H
  H189     1.0000 0.21120  0.26730  0.86650  Biso   1.000  H
  H190     1.0000 0.28880  0.73270  0.36650  Biso   1.000  H
  H191     1.0000 0.78880  0.76730  0.63350  Biso   1.000  H
  H192     1.0000 0.71120  0.23270  0.13350  Biso   1.000  H
  C169     1.0000 0.01120  0.64550  0.03940  Biso   1.000  C
  C170     1.0000 0.48880  0.35450  0.53940  Biso   1.000  C
  C171     1.0000 0.98880  0.14550  0.46060  Biso   1.000  C
  C172     1.0000 0.51120  0.85450  0.96060  Biso   1.000  C
  C173     1.0000 0.98880  0.35450  0.96060  Biso   1.000  C
  C174     1.0000 0.51120  0.64550  0.46060  Biso   1.000  C
  C175     1.0000 0.01120  0.85450  0.53940  Biso   1.000  C
  C176     1.0000 0.48880  0.14550  0.03940  Biso   1.000  C
  C177     1.0000 0.01160  0.64960  0.98770  Biso   1.000  C
  C178     1.0000 0.48840  0.35040  0.48770  Biso   1.000  C
  C179     1.0000 0.98840  0.14960  0.51230  Biso   1.000  C
  C180     1.0000 0.51160  0.85040  0.01230  Biso   1.000  C
  C181     1.0000 0.98840  0.35040  0.01230  Biso   1.000  C
  C182     1.0000 0.51160  0.64960  0.51230  Biso   1.000  C
  C183     1.0000 0.01160  0.85040  0.48770  Biso   1.000  C
  C184     1.0000 0.48840  0.14960  0.98770  Biso   1.000  C
  H193     1.0000 0.09470  0.69300  0.97760  Biso   1.000  H
  H194     1.0000 0.40530  0.30700  0.47760  Biso   1.000  H
  H195     1.0000 0.90530  0.19300  0.52240  Biso   1.000  H
  H196     1.0000 0.59470  0.80700  0.02240  Biso   1.000  H
  H197     1.0000 0.90530  0.30700  0.02240  Biso   1.000  H
  H198     1.0000 0.59470  0.69300  0.52240  Biso   1.000  H
  H199     1.0000 0.09470  0.80700  0.47760  Biso   1.000  H
  H200     1.0000 0.40530  0.19300  0.97760  Biso   1.000  H
  H201     1.0000 0.88960  0.66210  0.97680  Biso   1.000  H
  H202     1.0000 0.61040  0.33790  0.47680  Biso   1.000  H
  H203     1.0000 0.11040  0.16210  0.52320  Biso   1.000  H
  H204     1.0000 0.38960  0.83790  0.02320  Biso   1.000  H
  H205     1.0000 0.11040  0.33790  0.02320  Biso   1.000  H
  H206     1.0000 0.38960  0.66210  0.52320  Biso   1.000  H
  H207     1.0000 0.88960  0.83790  0.47680  Biso   1.000  H
  H208     1.0000 0.61040  0.16210  0.97680  Biso   1.000  H
  H209     1.0000 0.05070  0.59620  0.97530  Biso   1.000  H
  H210     1.0000 0.44930  0.40380  0.47530  Biso   1.000  H
  H211     1.0000 0.94930  0.09620  0.52470  Biso   1.000  H
  H212     1.0000 0.55070  0.90380  0.02470  Biso   1.000  H
  H213     1.0000 0.94930  0.40380  0.02470  Biso   1.000  H
  H214     1.0000 0.55070  0.59620  0.52470  Biso   1.000  H
  H215     1.0000 0.05070  0.90380  0.47530  Biso   1.000  H
  H216     1.0000 0.44930  0.09620  0.97530  Biso   1.000  H
  C185     1.0000 0.21400  0.65310  0.05110  Biso   1.000  C
  C186     1.0000 0.28600  0.34690  0.55110  Biso   1.000  C
  C187     1.0000 0.78600  0.15310  0.44890  Biso   1.000  C
  C188     1.0000 0.71400  0.84690  0.94890  Biso   1.000  C
  C189     1.0000 0.78600  0.34690  0.94890  Biso   1.000  C
  C190     1.0000 0.71400  0.65310  0.44890  Biso   1.000  C
  C191     1.0000 0.21400  0.84690  0.55110  Biso   1.000  C
  C192     1.0000 0.28600  0.15310  0.05110  Biso   1.000  C
  H217     1.0000 0.26490  0.70100  0.03530  Biso   1.000  H
  H218     1.0000 0.23510  0.29900  0.53530  Biso   1.000  H
  H219     1.0000 0.73510  0.20100  0.46470  Biso   1.000  H
  H220     1.0000 0.76490  0.79900  0.96470  Biso   1.000  H
  H221     1.0000 0.73510  0.29900  0.96470  Biso   1.000  H
  H222     1.0000 0.76490  0.70100  0.46470  Biso   1.000  H
  H223     1.0000 0.26490  0.79900  0.53530  Biso   1.000  H
  H224     1.0000 0.23510  0.20100  0.03530  Biso   1.000  H
  H225     1.0000 0.27680  0.60290  0.04130  Biso   1.000  H
  H226     1.0000 0.22320  0.39710  0.54130  Biso   1.000  H
  H227     1.0000 0.72320  0.10290  0.45870  Biso   1.000  H
  H228     1.0000 0.77680  0.89710  0.95870  Biso   1.000  H
  H229     1.0000 0.72320  0.39710  0.95870  Biso   1.000  H
  H230     1.0000 0.77680  0.60290  0.45870  Biso   1.000  H
  H231     1.0000 0.27680  0.89710  0.54130  Biso   1.000  H
  H232     1.0000 0.22320  0.10290  0.04130  Biso   1.000  H
  H233     1.0000 0.22790  0.66010  0.08400  Biso   1.000  H
  H234     1.0000 0.27210  0.33990  0.58400  Biso   1.000  H
  H235     1.0000 0.77210  0.16010  0.41600  Biso   1.000  H
  H236     1.0000 0.72790  0.83990  0.91600  Biso   1.000  H
  H237     1.0000 0.77210  0.33990  0.91600  Biso   1.000  H
  H238     1.0000 0.72790  0.66010  0.41600  Biso   1.000  H
  H239     1.0000 0.22790  0.83990  0.58400  Biso   1.000  H
  H240     1.0000 0.27210  0.16010  0.08400  Biso   1.000  H
  Cl1      1.0000 0.77628  0.29247  0.24777  Biso   1.000  Cl
  Cl2      1.0000 0.72372  0.70753  0.74777  Biso   1.000  Cl
  Cl3      1.0000 0.22372  0.79247  0.25223  Biso   1.000  Cl
  Cl4      1.0000 0.27628  0.20753  0.75223  Biso   1.000  Cl
  Cl5      1.0000 0.22372  0.70753  0.75223  Biso   1.000  Cl
  Cl6      1.0000 0.27628  0.29247  0.25223  Biso   1.000  Cl
  Cl7      1.0000 0.77628  0.20753  0.74777  Biso   1.000  Cl
  Cl8      1.0000 0.72372  0.79247  0.24777  Biso   1.000  Cl
  Cl9      1.0000 0.08142  0.29327  0.14748  Biso   1.000  Cl
  Cl10     1.0000 0.41858  0.70673  0.64748  Biso   1.000  Cl
  Cl11     1.0000 0.91858  0.79327  0.35252  Biso   1.000  Cl
  Cl12     1.0000 0.58142  0.20673  0.85252  Biso   1.000  Cl
  Cl13     1.0000 0.91858  0.70673  0.85252  Biso   1.000  Cl
  Cl14     1.0000 0.58142  0.29327  0.35252  Biso   1.000  Cl
  Cl15     1.0000 0.08142  0.20673  0.64748  Biso   1.000  Cl
  Cl16     1.0000 0.41858  0.79327  0.14748  Biso   1.000  Cl
  Cu1      1.0000 0.07120  0.37322  0.21115  Biso   1.000  Cu
  Cu2      1.0000 0.42880  0.62678  0.71115  Biso   1.000  Cu
  Cu3      1.0000 0.92880  0.87322  0.28885  Biso   1.000  Cu
  Cu4      1.0000 0.57120  0.12678  0.78885  Biso   1.000  Cu
  Cu5      1.0000 0.92880  0.62678  0.78885  Biso   1.000  Cu
  Cu6      1.0000 0.57120  0.37322  0.28885  Biso   1.000  Cu
  Cu7      1.0000 0.07120  0.12678  0.71115  Biso   1.000  Cu
  Cu8      1.0000 0.42880  0.87322  0.21115  Biso   1.000  Cu
  N1       1.0000 0.03560  0.45278  0.26335  Biso   1.000  N
  N2       1.0000 0.46440  0.54722  0.76335  Biso   1.000  N
  N3       1.0000 0.96440  0.95278  0.23665  Biso   1.000  N
  N4       1.0000 0.53560  0.04722  0.73665  Biso   1.000  N
  N5       1.0000 0.96440  0.54722  0.73665  Biso   1.000  N
  N6       1.0000 0.53560  0.45278  0.23665  Biso   1.000  N
  N7       1.0000 0.03560  0.04722  0.76335  Biso   1.000  N
  N8       1.0000 0.46440  0.95278  0.26335  Biso   1.000  N
  N9       1.0000 0.00970  0.48016  0.17568  Biso   1.000  N
  N10      1.0000 0.49030  0.51984  0.67568  Biso   1.000  N
  N11      1.0000 0.99030  0.98016  0.32432  Biso   1.000  N
  N12      1.0000 0.50970  0.01984  0.82432  Biso   1.000  N
  N13      1.0000 0.99030  0.51984  0.82432  Biso   1.000  N
  N14      1.0000 0.50970  0.48016  0.32432  Biso   1.000  N
  N15      1.0000 0.00970  0.01984  0.67568  Biso   1.000  N
  N16      1.0000 0.49030  0.98016  0.17568  Biso   1.000  N
