data_image0
_cell_length_a       7.491
_cell_length_b       14.3672
_cell_length_c       22.775
_cell_angle_alpha    90
_cell_angle_beta     90
_cell_angle_gamma    90

_symmetry_space_group_name_H-M    "P 1"
_symmetry_int_tables_number       1

loop_
  _symmetry_equiv_pos_as_xyz
  'x, y, z'

loop_
  _atom_site_label
  _atom_site_occupancy
  _atom_site_fract_x
  _atom_site_fract_y
  _atom_site_fract_z
  _atom_site_thermal_displace_type
  _atom_site_B_iso_or_equiv
  _atom_site_type_symbol
  Cu1      1.0000 0.49767  0.50238  0.08319  Biso   1.000  Cu
  Cu2      1.0000 0.00233  0.49762  0.58319  Biso   1.000  Cu
  Cu3      1.0000 0.50233  0.00238  0.41681  Biso   1.000  Cu
  Cu4      1.0000 0.99767  0.99762  0.91681  Biso   1.000  Cu
  S1       1.0000 0.95828  0.44365  0.25232  Biso   1.000  S
  S2       1.0000 0.54172  0.55635  0.75232  Biso   1.000  S
  S3       1.0000 0.04172  0.94365  0.24768  Biso   1.000  S
  S4       1.0000 0.45828  0.05635  0.74768  Biso   1.000  S
  S5       1.0000 0.05623  0.55606  0.92136  Biso   1.000  S
  S6       1.0000 0.44377  0.44394  0.42136  Biso   1.000  S
  S7       1.0000 0.94377  0.05606  0.57864  Biso   1.000  S
  S8       1.0000 0.55623  0.94394  0.07864  Biso   1.000  S
  O1       1.0000 0.26100  0.50583  0.11859  Biso   1.000  O
  O2       1.0000 0.23900  0.49417  0.61859  Biso   1.000  O
  O3       1.0000 0.73900  0.00583  0.38141  Biso   1.000  O
  O4       1.0000 0.76100  0.99417  0.88141  Biso   1.000  O
  O5       1.0000 0.29490  0.39875  0.18749  Biso   1.000  O
  O6       1.0000 0.20510  0.60125  0.68749  Biso   1.000  O
  O7       1.0000 0.70510  0.89875  0.31251  Biso   1.000  O
  O8       1.0000 0.79490  0.10125  0.81251  Biso   1.000  O
  O9       1.0000 0.04520  0.53335  0.34846  Biso   1.000  O
  O10      1.0000 0.45480  0.46665  0.84846  Biso   1.000  O
  O11      1.0000 0.95480  0.03335  0.15154  Biso   1.000  O
  O12      1.0000 0.54520  0.96665  0.65154  Biso   1.000  O
  O13      1.0000 0.71700  0.59930  0.98368  Biso   1.000  O
  O14      1.0000 0.78300  0.40070  0.48368  Biso   1.000  O
  O15      1.0000 0.28300  0.09930  0.51632  Biso   1.000  O
  O16      1.0000 0.21700  0.90070  0.01632  Biso   1.000  O
  O17      1.0000 0.74210  0.48808  0.05153  Biso   1.000  O
  O18      1.0000 0.75790  0.51192  0.55153  Biso   1.000  O
  O19      1.0000 0.25790  0.98808  0.44847  Biso   1.000  O
  O20      1.0000 0.24210  0.01192  0.94847  Biso   1.000  O
  O21      1.0000 0.96540  0.47082  0.82246  Biso   1.000  O
  O22      1.0000 0.53460  0.52918  0.32246  Biso   1.000  O
  O23      1.0000 0.03460  0.97082  0.67754  Biso   1.000  O
  O24      1.0000 0.46540  0.02918  0.17754  Biso   1.000  O
  O25      1.0000 0.37610  0.61990  0.02146  Biso   1.000  O
  O26      1.0000 0.12390  0.38010  0.52146  Biso   1.000  O
  O27      1.0000 0.62390  0.11990  0.47854  Biso   1.000  O
  O28      1.0000 0.87610  0.88010  0.97854  Biso   1.000  O
  H1       1.0000 0.33310  0.66050  0.04470  Biso   1.000  H
  H2       1.0000 0.16690  0.33950  0.54470  Biso   1.000  H
  H3       1.0000 0.66690  0.16050  0.45530  Biso   1.000  H
  H4       1.0000 0.83310  0.83950  0.95530  Biso   1.000  H
  H5       1.0000 0.46170  0.63700  0.99950  Biso   1.000  H
  H6       1.0000 0.03830  0.36300  0.49950  Biso   1.000  H
  H7       1.0000 0.53830  0.13700  0.50050  Biso   1.000  H
  H8       1.0000 0.96170  0.86300  0.00050  Biso   1.000  H
  N1       1.0000 0.14480  0.60550  0.26969  Biso   1.000  N
  N2       1.0000 0.35520  0.39450  0.76969  Biso   1.000  N
  N3       1.0000 0.85520  0.10550  0.23031  Biso   1.000  N
  N4       1.0000 0.64480  0.89450  0.73031  Biso   1.000  N
  N5       1.0000 0.18870  0.65870  0.31973  Biso   1.000  N
  N6       1.0000 0.31130  0.34130  0.81973  Biso   1.000  N
  N7       1.0000 0.81130  0.15870  0.18027  Biso   1.000  N
  N8       1.0000 0.68870  0.84130  0.68027  Biso   1.000  N
  N9       1.0000 0.08500  0.59656  0.52591  Biso   1.000  N
  N10      1.0000 0.41500  0.40344  0.02591  Biso   1.000  N
  N11      1.0000 0.91500  0.09656  0.97409  Biso   1.000  N
  N12      1.0000 0.58500  0.90344  0.47409  Biso   1.000  N
  N13      1.0000 0.85070  0.40220  0.90069  Biso   1.000  N
  N14      1.0000 0.64930  0.59780  0.40069  Biso   1.000  N
  N15      1.0000 0.14930  0.90220  0.59931  Biso   1.000  N
  N16      1.0000 0.35070  0.09780  0.09931  Biso   1.000  N
  N17      1.0000 0.80450  0.35090  0.85074  Biso   1.000  N
  N18      1.0000 0.69550  0.64910  0.35074  Biso   1.000  N
  N19      1.0000 0.19550  0.85090  0.64926  Biso   1.000  N
  N20      1.0000 0.30450  0.14910  0.14926  Biso   1.000  N
  N21      1.0000 0.90860  0.40785  0.64426  Biso   1.000  N
  N22      1.0000 0.59140  0.59215  0.14426  Biso   1.000  N
  N23      1.0000 0.09140  0.90785  0.85574  Biso   1.000  N
  N24      1.0000 0.40860  0.09215  0.35574  Biso   1.000  N
  C1       1.0000 0.20780  0.45720  0.16137  Biso   1.000  C
  C2       1.0000 0.29220  0.54280  0.66137  Biso   1.000  C
  C3       1.0000 0.79220  0.95720  0.33863  Biso   1.000  C
  C4       1.0000 0.70780  0.04280  0.83863  Biso   1.000  C
  C5       1.0000 0.01520  0.47740  0.17833  Biso   1.000  C
  C6       1.0000 0.48480  0.52260  0.67833  Biso   1.000  C
  C7       1.0000 0.98480  0.97740  0.32167  Biso   1.000  C
  C8       1.0000 0.51520  0.02260  0.82167  Biso   1.000  C
  H9       1.0000 0.93680  0.44500  0.15130  Biso   1.000  H
  H10      1.0000 0.56320  0.55500  0.65130  Biso   1.000  H
  H11      1.0000 0.06320  0.94500  0.34870  Biso   1.000  H
  H12      1.0000 0.43680  0.05500  0.84870  Biso   1.000  H
  H13      1.0000 0.99340  0.54360  0.17390  Biso   1.000  H
  H14      1.0000 0.50660  0.45640  0.67390  Biso   1.000  H
  H15      1.0000 0.00660  0.04360  0.32610  Biso   1.000  H
  H16      1.0000 0.49340  0.95640  0.82610  Biso   1.000  H
  C9       1.0000 0.06050  0.53430  0.28870  Biso   1.000  C
  C10      1.0000 0.43950  0.46570  0.78870  Biso   1.000  C
  C11      1.0000 0.93950  0.03430  0.21130  Biso   1.000  C
  C12      1.0000 0.56050  0.96570  0.71130  Biso   1.000  C
  C13      1.0000 0.12630  0.61470  0.36401  Biso   1.000  C
  C14      1.0000 0.37370  0.38530  0.86401  Biso   1.000  C
  C15      1.0000 0.87370  0.11470  0.13599  Biso   1.000  C
  C16      1.0000 0.62630  0.88530  0.63599  Biso   1.000  C
  C17      1.0000 0.13480  0.64000  0.42627  Biso   1.000  C
  C18      1.0000 0.36520  0.36000  0.92627  Biso   1.000  C
  C19      1.0000 0.86520  0.14000  0.07373  Biso   1.000  C
  C20      1.0000 0.63480  0.86000  0.57373  Biso   1.000  C
  C21      1.0000 0.07430  0.57770  0.46837  Biso   1.000  C
  C22      1.0000 0.42570  0.42230  0.96837  Biso   1.000  C
  C23      1.0000 0.92570  0.07770  0.03163  Biso   1.000  C
  C24      1.0000 0.57430  0.92230  0.53163  Biso   1.000  C
  H17      1.0000 0.02500  0.52150  0.45630  Biso   1.000  H
  H18      1.0000 0.47500  0.47850  0.95630  Biso   1.000  H
  H19      1.0000 0.97500  0.02150  0.04370  Biso   1.000  H
  H20      1.0000 0.52500  0.97850  0.54370  Biso   1.000  H
  C25      1.0000 0.15370  0.67750  0.54302  Biso   1.000  C
  C26      1.0000 0.34630  0.32250  0.04302  Biso   1.000  C
  C27      1.0000 0.84630  0.17750  0.95698  Biso   1.000  C
  C28      1.0000 0.65370  0.82250  0.45698  Biso   1.000  C
  H21      1.0000 0.16150  0.69020  0.58300  Biso   1.000  H
  H22      1.0000 0.33850  0.30980  0.08300  Biso   1.000  H
  H23      1.0000 0.83850  0.19020  0.91700  Biso   1.000  H
  H24      1.0000 0.66150  0.80980  0.41700  Biso   1.000  H
  C29      1.0000 0.21320  0.74300  0.50397  Biso   1.000  C
  C30      1.0000 0.28680  0.25700  0.00397  Biso   1.000  C
  C31      1.0000 0.78680  0.24300  0.99603  Biso   1.000  C
  C32      1.0000 0.71320  0.75700  0.49603  Biso   1.000  C
  H25      1.0000 0.25960  0.79910  0.51750  Biso   1.000  H
  H26      1.0000 0.24040  0.20090  0.01750  Biso   1.000  H
  H27      1.0000 0.74040  0.29910  0.98250  Biso   1.000  H
  H28      1.0000 0.75960  0.70090  0.48250  Biso   1.000  H
  C33      1.0000 0.20420  0.72510  0.44400  Biso   1.000  C
  C34      1.0000 0.29580  0.27490  0.94400  Biso   1.000  C
  C35      1.0000 0.79580  0.22510  0.05600  Biso   1.000  C
  C36      1.0000 0.70420  0.77490  0.55600  Biso   1.000  C
  H29      1.0000 0.24340  0.76870  0.41670  Biso   1.000  H
  H30      1.0000 0.25660  0.23130  0.91670  Biso   1.000  H
  H31      1.0000 0.75660  0.26870  0.08330  Biso   1.000  H
  H32      1.0000 0.74340  0.73130  0.58330  Biso   1.000  H
  C37      1.0000 0.80020  0.53800  0.01015  Biso   1.000  C
  C38      1.0000 0.69980  0.46200  0.51015  Biso   1.000  C
  C39      1.0000 0.19980  0.03800  0.48985  Biso   1.000  C
  C40      1.0000 0.30020  0.96200  0.98985  Biso   1.000  C
  C41      1.0000 0.99290  0.51610  0.99361  Biso   1.000  C
  C42      1.0000 0.50710  0.48390  0.49361  Biso   1.000  C
  C43      1.0000 0.00710  0.01610  0.50639  Biso   1.000  C
  C44      1.0000 0.49290  0.98390  0.00639  Biso   1.000  C
  H33      1.0000 0.01050  0.44920  0.99560  Biso   1.000  H
  H34      1.0000 0.48950  0.55080  0.49560  Biso   1.000  H
  H35      1.0000 0.98950  0.94920  0.50440  Biso   1.000  H
  H36      1.0000 0.51050  0.05080  0.00440  Biso   1.000  H
  H37      1.0000 0.07150  0.54450  0.02230  Biso   1.000  H
  H38      1.0000 0.42850  0.45550  0.52230  Biso   1.000  H
  H39      1.0000 0.92850  0.04450  0.47770  Biso   1.000  H
  H40      1.0000 0.57150  0.95550  0.97770  Biso   1.000  H
  C45      1.0000 0.94580  0.47030  0.88196  Biso   1.000  C
  C46      1.0000 0.55420  0.52970  0.38196  Biso   1.000  C
  C47      1.0000 0.05420  0.97030  0.61804  Biso   1.000  C
  C48      1.0000 0.44580  0.02970  0.11804  Biso   1.000  C
  C49      1.0000 0.87280  0.39330  0.80653  Biso   1.000  C
  C50      1.0000 0.62720  0.60670  0.30653  Biso   1.000  C
  C51      1.0000 0.12720  0.89330  0.69347  Biso   1.000  C
  C52      1.0000 0.37280  0.10670  0.19347  Biso   1.000  C
  C53      1.0000 0.85890  0.36800  0.74506  Biso   1.000  C
  C54      1.0000 0.64110  0.63200  0.24506  Biso   1.000  C
  C55      1.0000 0.14110  0.86800  0.75494  Biso   1.000  C
  C56      1.0000 0.35890  0.13200  0.25494  Biso   1.000  C
  C57      1.0000 0.92380  0.42690  0.70180  Biso   1.000  C
  C58      1.0000 0.57620  0.57310  0.20180  Biso   1.000  C
  C59      1.0000 0.07620  0.92690  0.79820  Biso   1.000  C
  C60      1.0000 0.42380  0.07310  0.29820  Biso   1.000  C
  H41      1.0000 0.98000  0.48180  0.71310  Biso   1.000  H
  H42      1.0000 0.52000  0.51820  0.21310  Biso   1.000  H
  H43      1.0000 0.02000  0.98180  0.78690  Biso   1.000  H
  H44      1.0000 0.48000  0.01820  0.28690  Biso   1.000  H
  C61      1.0000 0.82600  0.32880  0.62870  Biso   1.000  C
  C62      1.0000 0.67400  0.67120  0.12870  Biso   1.000  C
  C63      1.0000 0.17400  0.82880  0.87130  Biso   1.000  C
  C64      1.0000 0.32600  0.17120  0.37130  Biso   1.000  C
  H45      1.0000 0.81280  0.31550  0.58900  Biso   1.000  H
  H46      1.0000 0.68720  0.68450  0.08900  Biso   1.000  H
  H47      1.0000 0.18720  0.81550  0.91100  Biso   1.000  H
  H48      1.0000 0.31280  0.18450  0.41100  Biso   1.000  H
  C65      1.0000 0.76000  0.26670  0.66934  Biso   1.000  C
  C66      1.0000 0.74000  0.73330  0.16934  Biso   1.000  C
  C67      1.0000 0.24000  0.76670  0.83066  Biso   1.000  C
  C68      1.0000 0.26000  0.23330  0.33066  Biso   1.000  C
  H49      1.0000 0.70430  0.21230  0.65710  Biso   1.000  H
  H50      1.0000 0.79570  0.78770  0.15710  Biso   1.000  H
  H51      1.0000 0.29570  0.71230  0.84290  Biso   1.000  H
  H52      1.0000 0.20430  0.28770  0.34290  Biso   1.000  H
  C69      1.0000 0.77720  0.28600  0.72830  Biso   1.000  C
  C70      1.0000 0.72280  0.71400  0.22830  Biso   1.000  C
  C71      1.0000 0.22280  0.78600  0.77170  Biso   1.000  C
  C72      1.0000 0.27720  0.21400  0.27170  Biso   1.000  C
  H53      1.0000 0.73460  0.24450  0.75630  Biso   1.000  H
  H54      1.0000 0.76540  0.75550  0.25630  Biso   1.000  H
  H55      1.0000 0.26540  0.74450  0.74370  Biso   1.000  H
  H56      1.0000 0.23460  0.25550  0.24370  Biso   1.000  H
  O29      1.0000 0.64290  0.34640  0.17148  Biso   1.000  O
  O30      1.0000 0.85710  0.65360  0.67148  Biso   1.000  O
  O31      1.0000 0.35710  0.84640  0.32852  Biso   1.000  O
  O32      1.0000 0.14290  0.15360  0.82852  Biso   1.000  O
  H57      1.0000 0.53760  0.35680  0.18380  Biso   1.000  H
  H58      1.0000 0.96240  0.64320  0.68380  Biso   1.000  H
  H59      1.0000 0.46240  0.85680  0.31620  Biso   1.000  H
  H60      1.0000 0.03760  0.14320  0.81620  Biso   1.000  H
  H61      1.0000 0.68770  0.29340  0.17920  Biso   1.000  H
  H62      1.0000 0.81230  0.70660  0.67920  Biso   1.000  H
  H63      1.0000 0.31230  0.79340  0.32080  Biso   1.000  H
  H64      1.0000 0.18770  0.20660  0.82080  Biso   1.000  H
  O33      1.0000 0.71660  0.74780  0.91430  Biso   1.000  O
  O34      1.0000 0.78340  0.25220  0.41430  Biso   1.000  O
  O35      1.0000 0.28340  0.24780  0.58570  Biso   1.000  O
  O36      1.0000 0.21660  0.75220  0.08570  Biso   1.000  O
  H65      1.0000 0.65320  0.73540  0.88430  Biso   1.000  H
  H66      1.0000 0.84680  0.26460  0.38430  Biso   1.000  H
  H67      1.0000 0.34680  0.23540  0.61570  Biso   1.000  H
  H68      1.0000 0.15320  0.76460  0.11570  Biso   1.000  H
  H69      1.0000 0.82880  0.74080  0.91090  Biso   1.000  H
  H70      1.0000 0.67120  0.25920  0.41090  Biso   1.000  H
  H71      1.0000 0.17120  0.24080  0.58910  Biso   1.000  H
  H72      1.0000 0.32880  0.75920  0.08910  Biso   1.000  H
  O37      1.0000 0.73140  0.74290  0.84760  Biso   1.000  O
  O38      1.0000 0.76860  0.25710  0.34760  Biso   1.000  O
  O39      1.0000 0.26860  0.24290  0.65240  Biso   1.000  O
  O40      1.0000 0.23140  0.75710  0.15240  Biso   1.000  O
  H73      1.0000 0.73730  0.76160  0.81230  Biso   1.000  H
  H74      1.0000 0.76270  0.23840  0.31230  Biso   1.000  H
  H75      1.0000 0.26270  0.26160  0.68770  Biso   1.000  H
  H76      1.0000 0.23730  0.73840  0.18770  Biso   1.000  H
  H77      1.0000 0.65740  0.69950  0.85510  Biso   1.000  H
  H78      1.0000 0.84260  0.30050  0.35510  Biso   1.000  H
  H79      1.0000 0.34260  0.19950  0.64490  Biso   1.000  H
  H80      1.0000 0.15740  0.80050  0.14490  Biso   1.000  H
