data_image0
_cell_length_a       10.259
_cell_length_b       10.491
_cell_length_c       11.112
_cell_angle_alpha    75.76
_cell_angle_beta     63.72
_cell_angle_gamma    67.13

_symmetry_space_group_name_H-M    "P 1"
_symmetry_int_tables_number       1

loop_
  _symmetry_equiv_pos_as_xyz
  'x, y, z'

loop_
  _atom_site_label
  _atom_site_occupancy
  _atom_site_fract_x
  _atom_site_fract_y
  _atom_site_fract_z
  _atom_site_thermal_displace_type
  _atom_site_B_iso_or_equiv
  _atom_site_type_symbol
  La1      1.0000 0.22701  0.32847  0.31085  Biso   1.000  La
  La2      1.0000 0.77299  0.67153  0.68915  Biso   1.000  La
  Cu1      1.0000 0.50000  0.50000  0.00000  Biso   1.000  Cu
  O1       1.0000 0.22150  0.45882  0.46732  Biso   1.000  O
  O2       1.0000 0.77850  0.54118  0.53268  Biso   1.000  O
  O3       1.0000 0.03785  0.54004  0.65930  Biso   1.000  O
  O4       1.0000 0.96215  0.45996  0.34070  Biso   1.000  O
  O5       1.0000 0.16956  0.36581  0.07965  Biso   1.000  O
  O6       1.0000 0.83044  0.63419  0.92035  Biso   1.000  O
  O7       1.0000 0.39764  0.36349  0.04526  Biso   1.000  O
  O8       1.0000 0.60236  0.63651  0.95474  Biso   1.000  O
  O9       1.0000 0.78340  0.14339  0.61515  Biso   1.000  O
  O10      1.0000 0.21660  0.85661  0.38485  Biso   1.000  O
  O11      1.0000 0.75270  0.26634  0.43759  Biso   1.000  O
  O12      1.0000 0.24730  0.73366  0.56241  Biso   1.000  O
  O13      1.0000 0.33825  0.63548  0.94815  Biso   1.000  O
  O14      1.0000 0.66175  0.36452  0.05185  Biso   1.000  O
  O15      1.0000 0.49912  0.68848  0.74376  Biso   1.000  O
  O16      1.0000 0.50088  0.31152  0.25624  Biso   1.000  O
  O17      1.0000 0.29986  0.12113  0.47756  Biso   1.000  O
  O18      1.0000 0.70014  0.87887  0.52244  Biso   1.000  O
  O19      1.0000 0.05995  0.25481  0.56916  Biso   1.000  O
  O20      1.0000 0.94005  0.74519  0.43084  Biso   1.000  O
  O21      1.0000 0.70564  0.05263  0.95640  Biso   1.000  O
  O22      1.0000 0.29436  0.94737  0.04360  Biso   1.000  O
  O23      1.0000 0.78995  0.87590  0.07962  Biso   1.000  O
  O24      1.0000 0.21005  0.12410  0.92038  Biso   1.000  O
  O25      1.0000 0.41307  0.09318  0.19649  Biso   1.000  O
  O26      1.0000 0.58693  0.90682  0.80351  Biso   1.000  O
  O27      1.0000 0.20286  0.59205  0.22752  Biso   1.000  O
  O28      1.0000 0.79714  0.40795  0.77248  Biso   1.000  O
  O29      1.0000 0.08979  0.16181  0.32356  Biso   1.000  O
  O30      1.0000 0.91021  0.83819  0.67644  Biso   1.000  O
  N1       1.0000 0.70435  0.23227  0.55847  Biso   1.000  N
  N2       1.0000 0.29565  0.76773  0.44153  Biso   1.000  N
  N3       1.0000 0.81037  0.95810  0.97984  Biso   1.000  N
  N4       1.0000 0.18963  0.04190  0.02016  Biso   1.000  N
  C1       1.0000 0.28624  0.41668  0.65621  Biso   1.000  C
  C2       1.0000 0.71376  0.58332  0.34379  Biso   1.000  C
  C3       1.0000 0.23983  0.42204  0.79323  Biso   1.000  C
  C4       1.0000 0.76017  0.57796  0.20677  Biso   1.000  C
  C5       1.0000 0.34714  0.36773  0.85277  Biso   1.000  C
  C6       1.0000 0.65286  0.63227  0.14723  Biso   1.000  C
  C7       1.0000 0.50144  0.30599  0.77573  Biso   1.000  C
  C8       1.0000 0.49856  0.69401  0.22427  Biso   1.000  C
  C9       1.0000 0.54295  0.30041  0.64015  Biso   1.000  C
  C10      1.0000 0.45705  0.69959  0.35985  Biso   1.000  C
  C11      1.0000 0.44033  0.35472  0.57724  Biso   1.000  C
  C12      1.0000 0.55967  0.64528  0.42276  Biso   1.000  C
  C13      1.0000 0.17250  0.47609  0.58883  Biso   1.000  C
  C14      1.0000 0.82750  0.52391  0.41117  Biso   1.000  C
  C15      1.0000 0.29758  0.36857  0.00120  Biso   1.000  C
  C16      1.0000 0.70242  0.63143  0.99880  Biso   1.000  C
  C17      1.0000 0.23716  0.82550  0.81493  Biso   1.000  C
  C18      1.0000 0.76284  0.17450  0.18507  Biso   1.000  C
  C19      1.0000 0.26360  0.92691  0.70730  Biso   1.000  C
  C20      1.0000 0.73640  0.07309  0.29270  Biso   1.000  C
  C21      1.0000 0.14230  0.03852  0.69008  Biso   1.000  C
  C22      1.0000 0.85770  0.96148  0.30992  Biso   1.000  C
  C23      1.0000 0.99262  0.04911  0.78038  Biso   1.000  C
  C24      1.0000 0.00738  0.95089  0.21962  Biso   1.000  C
  C25      1.0000 0.96869  0.94621  0.88485  Biso   1.000  C
  C26      1.0000 0.03131  0.05379  0.11515  Biso   1.000  C
  C27      1.0000 0.08702  0.83392  0.90422  Biso   1.000  C
  C28      1.0000 0.91298  0.16608  0.09578  Biso   1.000  C
  C29      1.0000 0.36956  0.70837  0.83482  Biso   1.000  C
  C30      1.0000 0.63044  0.29163  0.16518  Biso   1.000  C
  C31      1.0000 0.16949  0.14620  0.57192  Biso   1.000  C
  C32      1.0000 0.83051  0.85380  0.42808  Biso   1.000  C
  H1       1.0000 0.36770  0.91720  0.64720  Biso   1.000  H
  H2       1.0000 0.63230  0.08280  0.35280  Biso   1.000  H
  H3       1.0000 0.06650  0.76640  0.97480  Biso   1.000  H
  H4       1.0000 0.93350  0.23360  0.02520  Biso   1.000  H
  H5       1.0000 0.47180  0.34850  0.48420  Biso   1.000  H
  H6       1.0000 0.52820  0.65150  0.51580  Biso   1.000  H
  H7       1.0000 0.91020  0.12250  0.76920  Biso   1.000  H
  H8       1.0000 0.08980  0.87750  0.23080  Biso   1.000  H
  H9       1.0000 0.13510  0.46320  0.84530  Biso   1.000  H
  H10      1.0000 0.86490  0.53680  0.15470  Biso   1.000  H
  H11      1.0000 0.57900  0.26680  0.81660  Biso   1.000  H
  H12      1.0000 0.42100  0.73320  0.18340  Biso   1.000  H
  H13      1.0000 0.18970  0.62680  0.16210  Biso   1.000  H
  H14      1.0000 0.81030  0.37320  0.83790  Biso   1.000  H
  H15      1.0000 0.12790  0.63340  0.29400  Biso   1.000  H
  H16      1.0000 0.87210  0.36660  0.70600  Biso   1.000  H
  H17      1.0000 0.11660  0.09570  0.34090  Biso   1.000  H
  H18      1.0000 0.88340  0.90430  0.65910  Biso   1.000  H
  H19      1.0000 0.48760  0.07630  0.13740  Biso   1.000  H
  H20      1.0000 0.51240  0.92370  0.86260  Biso   1.000  H
  H21      1.0000 0.00270  0.19690  0.35050  Biso   1.000  H
  H22      1.0000 0.99730  0.80310  0.64950  Biso   1.000  H
  H23      1.0000 0.42140  0.04380  0.24360  Biso   1.000  H
  H24      1.0000 0.57860  0.95620  0.75640  Biso   1.000  H
