data_image0
_cell_length_a       8.2278
_cell_length_b       11.123
_cell_length_c       12.977
_cell_angle_alpha    91.94
_cell_angle_beta     105.96
_cell_angle_gamma    93.67

_symmetry_space_group_name_H-M    "P 1"
_symmetry_int_tables_number       1

loop_
  _symmetry_equiv_pos_as_xyz
  'x, y, z'

loop_
  _atom_site_label
  _atom_site_occupancy
  _atom_site_fract_x
  _atom_site_fract_y
  _atom_site_fract_z
  _atom_site_thermal_displace_type
  _atom_site_B_iso_or_equiv
  _atom_site_type_symbol
  La1      1.0000 0.56478  0.85210  0.65577  Biso   1.000  La
  La2      1.0000 0.43522  0.14790  0.34423  Biso   1.000  La
  Cu1      1.0000 0.08588  0.62221  0.53208  Biso   1.000  Cu
  Cu2      1.0000 0.91412  0.37779  0.46792  Biso   1.000  Cu
  O1       1.0000 0.49640  0.68470  0.77710  Biso   1.000  O
  O2       1.0000 0.50360  0.31530  0.22290  Biso   1.000  O
  O3       1.0000 0.30820  0.67390  0.62210  Biso   1.000  O
  O4       1.0000 0.69180  0.32610  0.37790  Biso   1.000  O
  O5       1.0000 0.95360  0.22900  0.53240  Biso   1.000  O
  O6       1.0000 0.04640  0.77100  0.46760  Biso   1.000  O
  O7       1.0000 0.07210  0.09560  0.64270  Biso   1.000  O
  O8       1.0000 0.92790  0.90440  0.35730  Biso   1.000  O
  O9       1.0000 0.53660  0.17700  0.94590  Biso   1.000  O
  O10      1.0000 0.46340  0.82300  0.05410  Biso   1.000  O
  O11      1.0000 0.64970  0.35440  0.99430  Biso   1.000  O
  O12      1.0000 0.35030  0.64560  0.00570  Biso   1.000  O
  O13      1.0000 0.62550  0.07160  0.67000  Biso   1.000  O
  O14      1.0000 0.37450  0.92840  0.33000  Biso   1.000  O
  O15      1.0000 0.51340  0.18800  0.53690  Biso   1.000  O
  O16      1.0000 0.48660  0.81200  0.46310  Biso   1.000  O
  O17      1.0000 0.68260  0.65240  0.62440  Biso   1.000  O
  O18      1.0000 0.31740  0.34760  0.37560  Biso   1.000  O
  O19      1.0000 0.96430  0.66550  0.66810  Biso   1.000  O
  O20      1.0000 0.03570  0.33450  0.33190  Biso   1.000  O
  O21      1.0000 0.15840  0.41390  0.99220  Biso   1.000  O
  O22      1.0000 0.84160  0.58610  0.00780  Biso   1.000  O
  O23      1.0000 0.08610  0.22790  0.96400  Biso   1.000  O
  O24      1.0000 0.91390  0.77210  0.03600  Biso   1.000  O
  O25      1.0000 0.11620  0.45660  0.56840  Biso   1.000  O
  O26      1.0000 0.88380  0.54340  0.43160  Biso   1.000  O
  O27      1.0000 0.28590  0.93580  0.58270  Biso   1.000  O
  O28      1.0000 0.71410  0.06420  0.41730  Biso   1.000  O
  H1       1.0000 0.21730  0.88240  0.54810  Biso   1.000  H
  H2       1.0000 0.78270  0.11760  0.45190  Biso   1.000  H
  O29      1.0000 0.45760  0.94070  0.81210  Biso   1.000  O
  O30      1.0000 0.54240  0.05930  0.18790  Biso   1.000  O
  H3       1.0000 0.37150  0.90110  0.81480  Biso   1.000  H
  H4       1.0000 0.62850  0.09890  0.18520  Biso   1.000  H
  O31      1.0000 0.80600  0.86210  0.82840  Biso   1.000  O
  O32      1.0000 0.19400  0.13790  0.17160  Biso   1.000  O
  H5       1.0000 0.89420  0.84750  0.81440  Biso   1.000  H
  H6       1.0000 0.10580  0.15250  0.18560  Biso   1.000  H
  O33      1.0000 0.84540  0.89520  0.61530  Biso   1.000  O
  O34      1.0000 0.15460  0.10480  0.38470  Biso   1.000  O
  H7       1.0000 0.88030  0.96560  0.63360  Biso   1.000  H
  H8       1.0000 0.11970  0.03440  0.36640  Biso   1.000  H
  O35      1.0000 0.15860  0.81930  0.83910  Biso   1.000  O
  O36      1.0000 0.84140  0.18070  0.16090  Biso   1.000  O
  N1       1.0000 0.54580  0.28620  0.93310  Biso   1.000  N
  N2       1.0000 0.45420  0.71380  0.06690  Biso   1.000  N
  N3       1.0000 0.07000  0.33190  0.94090  Biso   1.000  N
  N4       1.0000 0.93000  0.66810  0.05910  Biso   1.000  N
  C1       1.0000 0.34470  0.49470  0.72580  Biso   1.000  C
  C2       1.0000 0.65530  0.50530  0.27420  Biso   1.000  C
  C3       1.0000 0.21940  0.41680  0.65520  Biso   1.000  C
  C4       1.0000 0.78060  0.58320  0.34480  Biso   1.000  C
  C5       1.0000 0.20400  0.29350  0.68010  Biso   1.000  C
  C6       1.0000 0.79600  0.70650  0.31990  Biso   1.000  C
  C7       1.0000 0.30950  0.25220  0.77040  Biso   1.000  C
  C8       1.0000 0.69050  0.74780  0.22960  Biso   1.000  C
  H9       1.0000 0.29920  0.17140  0.78560  Biso   1.000  H
  H10      1.0000 0.70080  0.82860  0.21440  Biso   1.000  H
  C9       1.0000 0.43090  0.33020  0.83880  Biso   1.000  C
  C10      1.0000 0.56910  0.66980  0.16120  Biso   1.000  C
  C11      1.0000 0.45030  0.45180  0.81770  Biso   1.000  C
  C12      1.0000 0.54970  0.54820  0.18230  Biso   1.000  C
  H11      1.0000 0.53310  0.50350  0.86480  Biso   1.000  H
  H12      1.0000 0.46690  0.49650  0.13520  Biso   1.000  H
  C13      1.0000 0.38330  0.62460  0.70830  Biso   1.000  C
  C14      1.0000 0.61670  0.37540  0.29170  Biso   1.000  C
  C15      1.0000 0.06810  0.20070  0.61440  Biso   1.000  C
  C16      1.0000 0.93190  0.79930  0.38560  Biso   1.000  C
  C17      1.0000 0.71780  0.27680  0.69040  Biso   1.000  C
  C18      1.0000 0.28220  0.72320  0.30960  Biso   1.000  C
  C19      1.0000 0.71030  0.39210  0.65190  Biso   1.000  C
  C20      1.0000 0.28970  0.60790  0.34810  Biso   1.000  C
  H13      1.0000 0.62860  0.40580  0.58880  Biso   1.000  H
  H14      1.0000 0.37140  0.59420  0.41120  Biso   1.000  H
  C21      1.0000 0.82310  0.48770  0.70630  Biso   1.000  C
  C22      1.0000 0.17690  0.51230  0.29370  Biso   1.000  C
  C23      1.0000 0.94400  0.46720  0.80180  Biso   1.000  C
  C24      1.0000 0.05600  0.53280  0.19820  Biso   1.000  C
  H15      1.0000 0.02240  0.52900  0.83820  Biso   1.000  H
  H16      1.0000 0.97760  0.47100  0.16180  Biso   1.000  H
  C25      1.0000 0.94510  0.35420  0.84100  Biso   1.000  C
  C26      1.0000 0.05490  0.64580  0.15900  Biso   1.000  C
  C27      1.0000 0.83530  0.25820  0.78570  Biso   1.000  C
  C28      1.0000 0.16470  0.74180  0.21430  Biso   1.000  C
  H17      1.0000 0.84140  0.18190  0.81310  Biso   1.000  H
  H18      1.0000 0.15860  0.81810  0.18690  Biso   1.000  H
  C29      1.0000 0.61140  0.17060  0.62770  Biso   1.000  C
  C30      1.0000 0.38860  0.82940  0.37230  Biso   1.000  C
  C31      1.0000 0.82150  0.61110  0.66190  Biso   1.000  C
  C32      1.0000 0.17850  0.38890  0.33810  Biso   1.000  C
  H19      1.0000 0.24500  0.77300  0.84400  Biso   1.000  H
  H20      1.0000 0.75500  0.22700  0.15600  Biso   1.000  H
  H21      1.0000 0.16600  0.78200  0.90080  Biso   1.000  H
  H22      1.0000 0.83400  0.21800  0.09920  Biso   1.000  H
  H23      1.0000 0.90000  0.83060  0.60700  Biso   1.000  H
  H24      1.0000 0.10000  0.16940  0.39300  Biso   1.000  H
  H25      1.0000 0.27200  0.99500  0.62700  Biso   1.000  H
  H26      1.0000 0.72800  0.00500  0.37300  Biso   1.000  H
  H27      1.0000 0.54700  0.98000  0.85900  Biso   1.000  H
  H28      1.0000 0.45300  0.02000  0.14100  Biso   1.000  H
  H29      1.0000 0.79100  0.83100  0.88740  Biso   1.000  H
  H30      1.0000 0.20900  0.16900  0.11260  Biso   1.000  H
