data_image0
_cell_length_a       9.835
_cell_length_b       10.322
_cell_length_c       10.979
_cell_angle_alpha    70.75
_cell_angle_beta     84.63
_cell_angle_gamma    70.97

_symmetry_space_group_name_H-M    "P 1"
_symmetry_int_tables_number       1

loop_
  _symmetry_equiv_pos_as_xyz
  'x, y, z'

loop_
  _atom_site_label
  _atom_site_occupancy
  _atom_site_fract_x
  _atom_site_fract_y
  _atom_site_fract_z
  _atom_site_thermal_displace_type
  _atom_site_B_iso_or_equiv
  _atom_site_type_symbol
  La1      1.0000 0.40312  0.90587  0.41938  Biso   1.000  La
  La2      1.0000 0.59688  0.09413  0.58062  Biso   1.000  La
  Cu1      1.0000 0.50000  0.50000  0.50000  Biso   1.000  Cu
  O1       1.0000 0.33250  0.67270  0.50090  Biso   1.000  O
  O2       1.0000 0.66750  0.32730  0.49910  Biso   1.000  O
  O3       1.0000 0.16260  0.87680  0.47970  Biso   1.000  O
  O4       1.0000 0.83740  0.12320  0.52030  Biso   1.000  O
  O5       1.0000 0.64130  0.88360  0.51490  Biso   1.000  O
  O6       1.0000 0.35870  0.11640  0.48510  Biso   1.000  O
  O7       1.0000 0.62020  0.68360  0.50300  Biso   1.000  O
  O8       1.0000 0.37980  0.31640  0.49700  Biso   1.000  O
  O9       1.0000 0.97800  0.24340  0.78460  Biso   1.000  O
  O10      1.0000 0.02200  0.75660  0.21540  Biso   1.000  O
  O11      1.0000 0.19690  0.22810  0.76020  Biso   1.000  O
  O12      1.0000 0.80310  0.77190  0.23980  Biso   1.000  O
  O13      1.0000 0.38240  0.84270  0.64830  Biso   1.000  O
  O14      1.0000 0.61760  0.15730  0.35170  Biso   1.000  O
  O15      1.0000 0.48400  0.94650  0.74220  Biso   1.000  O
  O16      1.0000 0.51600  0.05350  0.25780  Biso   1.000  O
  O17      1.0000 0.43930  0.80200  0.24840  Biso   1.000  O
  O18      1.0000 0.56070  0.19800  0.75160  Biso   1.000  O
  O19      1.0000 0.49170  0.55880  0.31850  Biso   1.000  O
  O20      1.0000 0.50830  0.44120  0.68150  Biso   1.000  O
  O21      1.0000 0.23700  0.36850  0.11010  Biso   1.000  O
  O22      1.0000 0.76300  0.63150  0.88990  Biso   1.000  O
  O23      1.0000 0.20300  0.45160  0.90690  Biso   1.000  O
  O24      1.0000 0.79700  0.54840  0.09310  Biso   1.000  O
  O25      1.0000 0.21960  0.07920  0.26180  Biso   1.000  O
  O26      1.0000 0.78040  0.92080  0.73820  Biso   1.000  O
  N1       1.0000 0.07330  0.29790  0.74410  Biso   1.000  N
  N2       1.0000 0.92670  0.70210  0.25590  Biso   1.000  N
  N3       1.0000 0.24150  0.45820  0.00440  Biso   1.000  N
  N4       1.0000 0.75850  0.54180  0.99560  Biso   1.000  N
  C1       1.0000 0.09480  0.66440  0.56620  Biso   1.000  C
  C2       1.0000 0.90520  0.33560  0.43380  Biso   1.000  C
  C3       1.0000 0.94830  0.74140  0.54030  Biso   1.000  C
  C4       1.0000 0.05170  0.25860  0.45970  Biso   1.000  C
  H1       1.0000 0.91970  0.84100  0.50050  Biso   1.000  H
  H2       1.0000 0.08030  0.15900  0.49950  Biso   1.000  H
  C5       1.0000 0.84780  0.67150  0.57290  Biso   1.000  C
  C6       1.0000 0.15220  0.32850  0.42710  Biso   1.000  C
  C7       1.0000 0.88840  0.52240  0.64080  Biso   1.000  C
  C8       1.0000 0.11160  0.47760  0.35920  Biso   1.000  C
  H3       1.0000 0.82040  0.47380  0.66320  Biso   1.000  H
  H4       1.0000 0.17960  0.52620  0.33680  Biso   1.000  H
  C9       1.0000 0.03280  0.44970  0.67360  Biso   1.000  C
  C10      1.0000 0.96720  0.55030  0.32640  Biso   1.000  C
  C11      1.0000 0.13610  0.51850  0.63560  Biso   1.000  C
  C12      1.0000 0.86390  0.48150  0.36440  Biso   1.000  C
  H5       1.0000 0.23250  0.46730  0.65650  Biso   1.000  H
  H6       1.0000 0.76750  0.53270  0.34350  Biso   1.000  H
  C13      1.0000 0.20130  0.74370  0.51280  Biso   1.000  C
  C14      1.0000 0.79870  0.25630  0.48720  Biso   1.000  C
  C15      1.0000 0.69420  0.75020  0.52750  Biso   1.000  C
  C16      1.0000 0.30580  0.24980  0.47250  Biso   1.000  C
  C17      1.0000 0.38640  0.76840  0.87460  Biso   1.000  C
  C18      1.0000 0.61360  0.23160  0.12540  Biso   1.000  C
  C19      1.0000 0.42080  0.78180  0.98780  Biso   1.000  C
  C20      1.0000 0.57920  0.21820  0.01220  Biso   1.000  C
  H7       1.0000 0.45350  0.85760  0.98520  Biso   1.000  H
  H8       1.0000 0.54650  0.14240  0.01480  Biso   1.000  H
  C21      1.0000 0.40660  0.68090  0.10750  Biso   1.000  C
  C22      1.0000 0.59340  0.31910  0.89250  Biso   1.000  C
  C23      1.0000 0.35320  0.57090  0.11010  Biso   1.000  C
  C24      1.0000 0.64680  0.42910  0.88990  Biso   1.000  C
  H9       1.0000 0.34910  0.49990  0.18760  Biso   1.000  H
  H10      1.0000 0.65090  0.50010  0.81240  Biso   1.000  H
  C25      1.0000 0.30650  0.56810  0.99710  Biso   1.000  C
  C26      1.0000 0.69350  0.43190  0.00290  Biso   1.000  C
  C27      1.0000 0.32720  0.66260  0.87830  Biso   1.000  C
  C28      1.0000 0.67280  0.33740  0.12170  Biso   1.000  C
  H11      1.0000 0.30140  0.65480  0.80230  Biso   1.000  H
  H12      1.0000 0.69860  0.34520  0.19770  Biso   1.000  H
  C29      1.0000 0.41830  0.86230  0.74500  Biso   1.000  C
  C30      1.0000 0.58170  0.13770  0.25500  Biso   1.000  C
  C31      1.0000 0.45080  0.68390  0.23400  Biso   1.000  C
  C32      1.0000 0.54920  0.31610  0.76600  Biso   1.000  C
  H13      1.0000 0.12370  0.10370  0.25190  Biso   1.000  H
  H14      1.0000 0.87630  0.89630  0.74810  Biso   1.000  H
  H15      1.0000 0.24140  0.15430  0.22890  Biso   1.000  H
  H16      1.0000 0.75860  0.84570  0.77110  Biso   1.000  H
