data_image0
_cell_length_a       6.7457
_cell_length_b       9.0945
_cell_length_c       9.999
_cell_angle_alpha    78.9
_cell_angle_beta     81.43
_cell_angle_gamma    74.33

_symmetry_space_group_name_H-M    "P 1"
_symmetry_int_tables_number       1

loop_
  _symmetry_equiv_pos_as_xyz
  'x, y, z'

loop_
  _atom_site_label
  _atom_site_occupancy
  _atom_site_fract_x
  _atom_site_fract_y
  _atom_site_fract_z
  _atom_site_thermal_displace_type
  _atom_site_B_iso_or_equiv
  _atom_site_type_symbol
  Cu1      1.0000 0.50000  0.00000  0.50000  Biso   1.000  Cu
  P1       1.0000 0.18589  0.32625  0.39673  Biso   1.000  P
  P2       1.0000 0.81411  0.67375  0.60327  Biso   1.000  P
  N1       1.0000 0.69030  0.98504  0.32255  Biso   1.000  N
  N2       1.0000 0.30970  0.01496  0.67745  Biso   1.000  N
  O1       1.0000 0.28670  0.15534  0.39838  Biso   1.000  O
  O2       1.0000 0.71330  0.84466  0.60162  Biso   1.000  O
  O3       1.0000 0.26020  0.39177  0.50672  Biso   1.000  O
  O4       1.0000 0.73980  0.60823  0.49328  Biso   1.000  O
  O5       1.0000 0.94720  0.35525  0.41576  Biso   1.000  O
  O6       1.0000 0.05280  0.64475  0.58424  Biso   1.000  O
  C1       1.0000 0.87890  0.01120  0.30950  Biso   1.000  C
  C2       1.0000 0.12110  0.98880  0.69050  Biso   1.000  C
  H1       1.0000 0.92930  0.02610  0.38830  Biso   1.000  H
  H2       1.0000 0.07070  0.97390  0.61170  Biso   1.000  H
  C3       1.0000 0.00390  0.01740  0.18640  Biso   1.000  C
  C4       1.0000 0.99610  0.98260  0.81360  Biso   1.000  C
  H3       1.0000 0.13670  0.03610  0.18270  Biso   1.000  H
  H4       1.0000 0.86330  0.96390  0.81730  Biso   1.000  H
  C5       1.0000 0.93600  0.99640  0.06800  Biso   1.000  C
  C6       1.0000 0.06400  0.00360  0.93200  Biso   1.000  C
  C7       1.0000 0.74160  0.96470  0.08460  Biso   1.000  C
  C8       1.0000 0.25840  0.03530  0.91540  Biso   1.000  C
  H5       1.0000 0.68880  0.94620  0.00820  Biso   1.000  H
  H6       1.0000 0.31120  0.05380  0.99180  Biso   1.000  H
  C9       1.0000 0.62550  0.96000  0.21040  Biso   1.000  C
  C10      1.0000 0.37450  0.04000  0.78960  Biso   1.000  C
  H7       1.0000 0.49400  0.93810  0.21790  Biso   1.000  H
  H8       1.0000 0.50600  0.06190  0.78210  Biso   1.000  H
  C11      1.0000 0.25800  0.43150  0.22910  Biso   1.000  C
  C12      1.0000 0.74200  0.56850  0.77090  Biso   1.000  C
  C13      1.0000 0.49180  0.42100  0.21530  Biso   1.000  C
  C14      1.0000 0.50820  0.57900  0.78470  Biso   1.000  C
  H9       1.0000 0.56880  0.31210  0.22620  Biso   1.000  H
  H10      1.0000 0.43120  0.68790  0.77380  Biso   1.000  H
  H11      1.0000 0.52190  0.47020  0.28630  Biso   1.000  H
  H12      1.0000 0.47810  0.52980  0.71370  Biso   1.000  H
  H13      1.0000 0.53330  0.47400  0.12470  Biso   1.000  H
  H14      1.0000 0.46670  0.52600  0.87530  Biso   1.000  H
  C15      1.0000 0.20900  0.35700  0.11740  Biso   1.000  C
  C16      1.0000 0.79100  0.64300  0.88260  Biso   1.000  C
  H15      1.0000 0.06290  0.35450  0.13230  Biso   1.000  H
  H16      1.0000 0.93710  0.64550  0.86770  Biso   1.000  H
  H17      1.0000 0.29620  0.25120  0.12100  Biso   1.000  H
  H18      1.0000 0.70380  0.74880  0.87900  Biso   1.000  H
  H19      1.0000 0.23650  0.41740  0.02750  Biso   1.000  H
  H20      1.0000 0.76350  0.58260  0.97250  Biso   1.000  H
  C17      1.0000 0.13570  0.60190  0.21510  Biso   1.000  C
  C18      1.0000 0.86430  0.39810  0.78490  Biso   1.000  C
  H21      1.0000 0.17780  0.65730  0.12590  Biso   1.000  H
  H22      1.0000 0.82220  0.34270  0.87410  Biso   1.000  H
  H23      1.0000 0.16400  0.64900  0.28820  Biso   1.000  H
  H24      1.0000 0.83600  0.35100  0.71180  Biso   1.000  H
  H25      1.0000 0.98730  0.60790  0.22250  Biso   1.000  H
  H26      1.0000 0.01270  0.39210  0.77750  Biso   1.000  H
  O7       1.0000 0.35590  0.80003  0.44064  Biso   1.000  O
  O8       1.0000 0.64410  0.19997  0.55936  Biso   1.000  O
  H27      1.0000 0.46000  0.73200  0.45100  Biso   1.000  H
  H28      1.0000 0.54000  0.26800  0.54900  Biso   1.000  H
  H29      1.0000 0.26300  0.76300  0.48300  Biso   1.000  H
  H30      1.0000 0.73700  0.23700  0.51700  Biso   1.000  H
  H31      1.0000 0.88750  0.43870  0.44330  Biso   1.000  H
  H32      1.0000 0.11250  0.56130  0.55670  Biso   1.000  H
