data_image0
_cell_length_a       10.845
_cell_length_b       12.041
_cell_length_c       13.634
_cell_angle_alpha    108.07
_cell_angle_beta     108.82
_cell_angle_gamma    103.88

_symmetry_space_group_name_H-M    "P 1"
_symmetry_int_tables_number       1

loop_
  _symmetry_equiv_pos_as_xyz
  'x, y, z'

loop_
  _atom_site_label
  _atom_site_occupancy
  _atom_site_fract_x
  _atom_site_fract_y
  _atom_site_fract_z
  _atom_site_thermal_displace_type
  _atom_site_B_iso_or_equiv
  _atom_site_type_symbol
  La1      1.0000 0.33835  0.77516  0.14826  Biso   1.000  La
  La2      1.0000 0.66165  0.22484  0.85174  Biso   1.000  La
  Cu1      1.0000 0.50000  0.00000  0.50000  Biso   1.000  Cu
  Cu2      1.0000 0.50000  0.50000  0.00000  Biso   1.000  Cu
  O1       1.0000 0.55420  0.12930  0.44584  Biso   1.000  O
  O2       1.0000 0.44580  0.87070  0.55416  Biso   1.000  O
  O3       1.0000 0.50110  0.99505  0.26974  Biso   1.000  O
  O4       1.0000 0.49890  0.00495  0.73026  Biso   1.000  O
  O5       1.0000 0.62910  0.17130  0.01360  Biso   1.000  O
  O6       1.0000 0.37090  0.82870  0.98640  Biso   1.000  O
  O7       1.0000 0.68190  0.37260  0.05710  Biso   1.000  O
  O8       1.0000 0.31810  0.62740  0.94290  Biso   1.000  O
  O9       1.0000 0.62910  0.63080  0.39050  Biso   1.000  O
  O10      1.0000 0.37090  0.36920  0.60950  Biso   1.000  O
  O11      1.0000 0.66060  0.57690  0.52890  Biso   1.000  O
  O12      1.0000 0.33940  0.42310  0.47110  Biso   1.000  O
  O13      1.0000 0.31060  0.99290  0.43950  Biso   1.000  O
  O14      1.0000 0.68940  0.00710  0.56050  Biso   1.000  O
  O15      1.0000 0.20850  0.82970  0.26860  Biso   1.000  O
  O16      1.0000 0.79150  0.17030  0.73140  Biso   1.000  O
  O17      1.0000 0.67610  0.63940  0.12120  Biso   1.000  O
  O18      1.0000 0.32390  0.36060  0.87880  Biso   1.000  O
  O19      1.0000 0.56800  0.76500  0.17490  Biso   1.000  O
  O20      1.0000 0.43200  0.23500  0.82510  Biso   1.000  O
  O21      1.0000 0.84390  0.18950  0.46530  Biso   1.000  O
  O22      1.0000 0.15610  0.81050  0.53470  Biso   1.000  O
  O23      1.0000 0.06640  0.26850  0.52940  Biso   1.000  O
  O24      1.0000 0.93360  0.73150  0.47060  Biso   1.000  O
  O25      1.0000 0.27800  0.55150  0.12600  Biso   1.000  O
  O26      1.0000 0.72200  0.44850  0.87400  Biso   1.000  O
  O27      1.0000 0.43510  0.46650  0.10540  Biso   1.000  O
  O28      1.0000 0.56490  0.53350  0.89460  Biso   1.000  O
  O29      1.0000 0.30610  0.02390  0.00540  Biso   1.000  O
  O30      1.0000 0.69390  0.97610  0.99460  Biso   1.000  O
  O31      1.0000 0.21680  0.94160  0.10500  Biso   1.000  O
  O32      1.0000 0.78320  0.05840  0.89500  Biso   1.000  O
  O33      1.0000 0.91080  0.15920  0.22890  Biso   1.000  O
  O34      1.0000 0.08920  0.84080  0.77110  Biso   1.000  O
  O35      1.0000 0.98940  0.35960  0.29230  Biso   1.000  O
  O36      1.0000 0.01060  0.64040  0.70770  Biso   1.000  O
  O37      1.0000 0.07860  0.65900  0.02340  Biso   1.000  O
  O38      1.0000 0.92140  0.34100  0.97660  Biso   1.000  O
  O39      1.0000 0.45180  0.77220  0.34500  Biso   1.000  O
  O40      1.0000 0.54820  0.22780  0.65500  Biso   1.000  O
  N1       1.0000 0.64090  0.55530  0.43160  Biso   1.000  N
  N2       1.0000 0.35910  0.44470  0.56840  Biso   1.000  N
  N3       1.0000 0.95430  0.18160  0.46850  Biso   1.000  N
  N4       1.0000 0.04570  0.81840  0.53150  Biso   1.000  N
  N5       1.0000 0.99130  0.25850  0.24300  Biso   1.000  N
  N6       1.0000 0.00870  0.74150  0.75700  Biso   1.000  N
  C1       1.0000 0.58140  0.21340  0.31650  Biso   1.000  C
  C2       1.0000 0.41860  0.78660  0.68350  Biso   1.000  C
  C3       1.0000 0.60220  0.19810  0.21850  Biso   1.000  C
  C4       1.0000 0.39780  0.80190  0.78150  Biso   1.000  C
  C5       1.0000 0.63780  0.30000  0.19110  Biso   1.000  C
  C6       1.0000 0.36220  0.70000  0.80890  Biso   1.000  C
  C7       1.0000 0.65320  0.41930  0.26210  Biso   1.000  C
  C8       1.0000 0.34680  0.58070  0.73790  Biso   1.000  C
  C9       1.0000 0.63150  0.43150  0.35860  Biso   1.000  C
  C10      1.0000 0.36850  0.56850  0.64140  Biso   1.000  C
  C11      1.0000 0.59580  0.33140  0.38760  Biso   1.000  C
  C12      1.0000 0.40420  0.66860  0.61240  Biso   1.000  C
  C13      1.0000 0.54170  0.10370  0.34560  Biso   1.000  C
  C14      1.0000 0.45830  0.89630  0.65440  Biso   1.000  C
  C15      1.0000 0.65200  0.28100  0.08190  Biso   1.000  C
  C16      1.0000 0.34800  0.71900  0.91810  Biso   1.000  C
  C17      1.0000 0.07070  0.93310  0.33420  Biso   1.000  C
  C18      1.0000 0.92930  0.06690  0.66580  Biso   1.000  C
  C19      1.0000 0.94130  0.83570  0.25870  Biso   1.000  C
  C20      1.0000 0.05870  0.16430  0.74130  Biso   1.000  C
  C21      1.0000 0.81630  0.84910  0.25550  Biso   1.000  C
  C22      1.0000 0.18370  0.15090  0.74450  Biso   1.000  C
  C23      1.0000 0.82040  0.96280  0.32490  Biso   1.000  C
  C24      1.0000 0.17960  0.03720  0.67510  Biso   1.000  C
  C25      1.0000 0.95010  0.05970  0.39660  Biso   1.000  C
  C26      1.0000 0.04990  0.94030  0.60340  Biso   1.000  C
  C27      1.0000 0.07520  0.04810  0.40450  Biso   1.000  C
  C28      1.0000 0.92480  0.95190  0.59550  Biso   1.000  C
  C29      1.0000 0.20730  0.91580  0.34640  Biso   1.000  C
  C30      1.0000 0.79270  0.08420  0.65360  Biso   1.000  C
  C31      1.0000 0.67550  0.74300  0.17780  Biso   1.000  C
  C32      1.0000 0.32450  0.25700  0.82220  Biso   1.000  C
  C33      1.0000 0.25490  0.35560  0.13650  Biso   1.000  C
  C34      1.0000 0.74510  0.64440  0.86350  Biso   1.000  C
  C35      1.0000 0.27820  0.24470  0.09710  Biso   1.000  C
  C36      1.0000 0.72180  0.75530  0.90290  Biso   1.000  C
  C37      1.0000 0.21090  0.13980  0.10970  Biso   1.000  C
  C38      1.0000 0.78910  0.86020  0.89030  Biso   1.000  C
  C39      1.0000 0.11840  0.14290  0.15930  Biso   1.000  C
  C40      1.0000 0.88160  0.85710  0.84070  Biso   1.000  C
  C41      1.0000 0.09430  0.25390  0.19570  Biso   1.000  C
  C42      1.0000 0.90570  0.74610  0.80430  Biso   1.000  C
  C43      1.0000 0.16170  0.36020  0.18630  Biso   1.000  C
  C44      1.0000 0.83830  0.63980  0.81370  Biso   1.000  C
  C45      1.0000 0.32750  0.46880  0.12190  Biso   1.000  C
  C46      1.0000 0.67250  0.53120  0.87810  Biso   1.000  C
  C47      1.0000 0.24310  0.02380  0.07290  Biso   1.000  C
  C48      1.0000 0.75690  0.97620  0.92710  Biso   1.000  C
  H1       1.0000 0.58930  0.10520  0.16380  Biso   1.000  H
  H2       1.0000 0.41070  0.89480  0.83620  Biso   1.000  H
  H3       1.0000 0.68070  0.49610  0.24820  Biso   1.000  H
  H4       1.0000 0.31930  0.50390  0.75180  Biso   1.000  H
  H5       1.0000 0.58510  0.36110  0.46590  Biso   1.000  H
  H6       1.0000 0.41490  0.63890  0.53410  Biso   1.000  H
  H7       1.0000 0.93650  0.75890  0.21030  Biso   1.000  H
  H8       1.0000 0.06350  0.24110  0.78970  Biso   1.000  H
  H9       1.0000 0.74560  0.95980  0.31190  Biso   1.000  H
  H10      1.0000 0.25440  0.04020  0.68810  Biso   1.000  H
  H11      1.0000 0.14990  0.10640  0.44980  Biso   1.000  H
  H12      1.0000 0.85010  0.89360  0.55020  Biso   1.000  H
  H13      1.0000 0.14750  0.43950  0.21560  Biso   1.000  H
  H14      1.0000 0.85250  0.56050  0.78440  Biso   1.000  H
  H15      1.0000 0.33760  0.23810  0.05480  Biso   1.000  H
  H16      1.0000 0.66240  0.76190  0.94520  Biso   1.000  H
  H17      1.0000 0.06590  0.06510  0.15590  Biso   1.000  H
  H18      1.0000 0.93410  0.93490  0.84410  Biso   1.000  H
  H19      1.0000 0.06250  0.59370  0.96200  Biso   1.000  H
  H20      1.0000 0.93750  0.40630  0.03800  Biso   1.000  H
  H21      1.0000 0.52370  0.74850  0.34990  Biso   1.000  H
  H22      1.0000 0.47630  0.25150  0.65010  Biso   1.000  H
  H23      1.0000 0.02800  0.64490  0.06000  Biso   1.000  H
  H24      1.0000 0.97200  0.35510  0.94000  Biso   1.000  H
  H25      1.0000 0.38760  0.72990  0.36020  Biso   1.000  H
  H26      1.0000 0.61240  0.27010  0.63980  Biso   1.000  H
  H27      1.0000 0.32230  0.95360  0.98550  Biso   1.000  H
  H28      1.0000 0.67770  0.04640  0.01450  Biso   1.000  H
  O41      1.0000 0.04430  0.44390  0.85350  Biso   1.000  O
  O42      1.0000 0.95570  0.55610  0.14650  Biso   1.000  O
  H29      1.0000 0.98890  0.41570  0.77890  Biso   1.000  H
  H30      1.0000 0.01110  0.58430  0.22110  Biso   1.000  H
  H31      1.0000 0.11820  0.46370  0.84980  Biso   1.000  H
  H32      1.0000 0.88180  0.53630  0.15020  Biso   1.000  H
  O43      1.0000 0.82590  0.37700  0.64000  Biso   1.000  O
  O44      1.0000 0.17410  0.62300  0.36000  Biso   1.000  O
  H33      1.0000 0.87430  0.44250  0.63320  Biso   1.000  H
  H34      1.0000 0.12570  0.55750  0.36680  Biso   1.000  H
  H35      1.0000 0.84590  0.31420  0.57840  Biso   1.000  H
  H36      1.0000 0.15410  0.68580  0.42160  Biso   1.000  H
