data_image0
_cell_length_a       24.569
_cell_length_b       13.414
_cell_length_c       13.795
_cell_angle_alpha    90
_cell_angle_beta     92.44
_cell_angle_gamma    90

_symmetry_space_group_name_H-M    "P 1"
_symmetry_int_tables_number       1

loop_
  _symmetry_equiv_pos_as_xyz
  'x, y, z'

loop_
  _atom_site_label
  _atom_site_occupancy
  _atom_site_fract_x
  _atom_site_fract_y
  _atom_site_fract_z
  _atom_site_thermal_displace_type
  _atom_site_B_iso_or_equiv
  _atom_site_type_symbol
  Na1      1.0000 0.50712  0.02127  0.62437  Biso   1.000  Na
  Na2      1.0000 0.00712  0.52127  0.62437  Biso   1.000  Na
  Na3      1.0000 0.49288  0.02127  0.87563  Biso   1.000  Na
  Na4      1.0000 0.99288  0.52127  0.87563  Biso   1.000  Na
  Na5      1.0000 0.49288  0.97873  0.37563  Biso   1.000  Na
  Na6      1.0000 0.99288  0.47873  0.37563  Biso   1.000  Na
  Na7      1.0000 0.50712  0.97873  0.12437  Biso   1.000  Na
  Na8      1.0000 0.00712  0.47873  0.12437  Biso   1.000  Na
  Cu1      1.0000 0.21384  0.63045  0.56890  Biso   1.000  Cu
  Cu2      1.0000 0.71384  0.13045  0.56890  Biso   1.000  Cu
  Cu3      1.0000 0.78616  0.63045  0.93110  Biso   1.000  Cu
  Cu4      1.0000 0.28616  0.13045  0.93110  Biso   1.000  Cu
  Cu5      1.0000 0.78616  0.36955  0.43110  Biso   1.000  Cu
  Cu6      1.0000 0.28616  0.86955  0.43110  Biso   1.000  Cu
  Cu7      1.0000 0.21384  0.36955  0.06890  Biso   1.000  Cu
  Cu8      1.0000 0.71384  0.86955  0.06890  Biso   1.000  Cu
  La1      1.0000 0.39521  0.55542  0.60679  Biso   1.000  La
  La2      1.0000 0.89521  0.05542  0.60679  Biso   1.000  La
  La3      1.0000 0.60479  0.55542  0.89321  Biso   1.000  La
  La4      1.0000 0.10479  0.05542  0.89321  Biso   1.000  La
  La5      1.0000 0.60479  0.44458  0.39321  Biso   1.000  La
  La6      1.0000 0.10479  0.94458  0.39321  Biso   1.000  La
  La7      1.0000 0.39521  0.44458  0.10679  Biso   1.000  La
  La8      1.0000 0.89521  0.94458  0.10679  Biso   1.000  La
  C1       1.0000 0.18368  0.59300  0.37510  Biso   1.000  C
  C2       1.0000 0.68368  0.09300  0.37510  Biso   1.000  C
  C3       1.0000 0.81632  0.59300  0.12490  Biso   1.000  C
  C4       1.0000 0.31632  0.09300  0.12490  Biso   1.000  C
  C5       1.0000 0.81632  0.40700  0.62490  Biso   1.000  C
  C6       1.0000 0.31632  0.90700  0.62490  Biso   1.000  C
  C7       1.0000 0.18368  0.40700  0.87510  Biso   1.000  C
  C8       1.0000 0.68368  0.90700  0.87510  Biso   1.000  C
  C9       1.0000 0.24340  0.58740  0.38250  Biso   1.000  C
  C10      1.0000 0.74340  0.08740  0.38250  Biso   1.000  C
  C11      1.0000 0.75660  0.58740  0.11750  Biso   1.000  C
  C12      1.0000 0.25660  0.08740  0.11750  Biso   1.000  C
  C13      1.0000 0.75660  0.41260  0.61750  Biso   1.000  C
  C14      1.0000 0.25660  0.91260  0.61750  Biso   1.000  C
  C15      1.0000 0.24340  0.41260  0.88250  Biso   1.000  C
  C16      1.0000 0.74340  0.91260  0.88250  Biso   1.000  C
  C17      1.0000 0.28382  0.56400  0.32060  Biso   1.000  C
  C18      1.0000 0.78382  0.06400  0.32060  Biso   1.000  C
  C19      1.0000 0.71618  0.56400  0.17940  Biso   1.000  C
  C20      1.0000 0.21618  0.06400  0.17940  Biso   1.000  C
  C21      1.0000 0.71618  0.43600  0.67940  Biso   1.000  C
  C22      1.0000 0.21618  0.93600  0.67940  Biso   1.000  C
  C23      1.0000 0.28382  0.43600  0.82060  Biso   1.000  C
  C24      1.0000 0.78382  0.93600  0.82060  Biso   1.000  C
  H1       1.0000 0.28010  0.54680  0.25530  Biso   1.000  H
  H2       1.0000 0.78010  0.04680  0.25530  Biso   1.000  H
  H3       1.0000 0.71990  0.54680  0.24470  Biso   1.000  H
  H4       1.0000 0.21990  0.04680  0.24470  Biso   1.000  H
  H5       1.0000 0.71990  0.45320  0.74470  Biso   1.000  H
  H6       1.0000 0.21990  0.95320  0.74470  Biso   1.000  H
  H7       1.0000 0.28010  0.45320  0.75530  Biso   1.000  H
  H8       1.0000 0.78010  0.95320  0.75530  Biso   1.000  H
  C25      1.0000 0.33118  0.57190  0.37760  Biso   1.000  C
  C26      1.0000 0.83118  0.07190  0.37760  Biso   1.000  C
  C27      1.0000 0.66882  0.57190  0.12240  Biso   1.000  C
  C28      1.0000 0.16882  0.07190  0.12240  Biso   1.000  C
  C29      1.0000 0.66882  0.42810  0.62240  Biso   1.000  C
  C30      1.0000 0.16882  0.92810  0.62240  Biso   1.000  C
  C31      1.0000 0.33118  0.42810  0.87760  Biso   1.000  C
  C32      1.0000 0.83118  0.92810  0.87760  Biso   1.000  C
  C33      1.0000 0.38868  0.55540  0.35380  Biso   1.000  C
  C34      1.0000 0.88868  0.05540  0.35380  Biso   1.000  C
  C35      1.0000 0.61132  0.55540  0.14620  Biso   1.000  C
  C36      1.0000 0.11132  0.05540  0.14620  Biso   1.000  C
  C37      1.0000 0.61132  0.44460  0.64620  Biso   1.000  C
  C38      1.0000 0.11132  0.94460  0.64620  Biso   1.000  C
  C39      1.0000 0.38868  0.44460  0.85380  Biso   1.000  C
  C40      1.0000 0.88868  0.94460  0.85380  Biso   1.000  C
  N1       1.0000 0.26611  0.60720  0.47110  Biso   1.000  N
  N2       1.0000 0.76611  0.10720  0.47110  Biso   1.000  N
  N3       1.0000 0.73389  0.60720  0.02890  Biso   1.000  N
  N4       1.0000 0.23389  0.10720  0.02890  Biso   1.000  N
  N5       1.0000 0.73389  0.39280  0.52890  Biso   1.000  N
  N6       1.0000 0.23389  0.89280  0.52890  Biso   1.000  N
  N7       1.0000 0.26611  0.39280  0.97110  Biso   1.000  N
  N8       1.0000 0.76611  0.89280  0.97110  Biso   1.000  N
  N9       1.0000 0.32000  0.59700  0.46950  Biso   1.000  N
  N10      1.0000 0.82000  0.09700  0.46950  Biso   1.000  N
  N11      1.0000 0.68000  0.59700  0.03050  Biso   1.000  N
  N12      1.0000 0.18000  0.09700  0.03050  Biso   1.000  N
  N13      1.0000 0.68000  0.40300  0.53050  Biso   1.000  N
  N14      1.0000 0.18000  0.90300  0.53050  Biso   1.000  N
  N15      1.0000 0.32000  0.40300  0.96950  Biso   1.000  N
  N16      1.0000 0.82000  0.90300  0.96950  Biso   1.000  N
  O1       1.0000 0.16112  0.61870  0.45483  Biso   1.000  O
  O2       1.0000 0.66112  0.11870  0.45483  Biso   1.000  O
  O3       1.0000 0.83888  0.61870  0.04517  Biso   1.000  O
  O4       1.0000 0.33888  0.11870  0.04517  Biso   1.000  O
  O5       1.0000 0.83888  0.38130  0.54517  Biso   1.000  O
  O6       1.0000 0.33888  0.88130  0.54517  Biso   1.000  O
  O7       1.0000 0.16112  0.38130  0.95483  Biso   1.000  O
  O8       1.0000 0.66112  0.88130  0.95483  Biso   1.000  O
  O9       1.0000 0.15818  0.57530  0.29760  Biso   1.000  O
  O10      1.0000 0.65818  0.07530  0.29760  Biso   1.000  O
  O11      1.0000 0.84182  0.57530  0.20240  Biso   1.000  O
  O12      1.0000 0.34182  0.07530  0.20240  Biso   1.000  O
  O13      1.0000 0.84182  0.42470  0.70240  Biso   1.000  O
  O14      1.0000 0.34182  0.92470  0.70240  Biso   1.000  O
  O15      1.0000 0.15818  0.42470  0.79760  Biso   1.000  O
  O16      1.0000 0.65818  0.92470  0.79760  Biso   1.000  O
  O17      1.0000 0.42280  0.55200  0.42600  Biso   1.000  O
  O18      1.0000 0.92280  0.05200  0.42600  Biso   1.000  O
  O19      1.0000 0.57720  0.55200  0.07400  Biso   1.000  O
  O20      1.0000 0.07720  0.05200  0.07400  Biso   1.000  O
  O21      1.0000 0.57720  0.44800  0.57400  Biso   1.000  O
  O22      1.0000 0.07720  0.94800  0.57400  Biso   1.000  O
  O23      1.0000 0.42280  0.44800  0.92600  Biso   1.000  O
  O24      1.0000 0.92280  0.94800  0.92600  Biso   1.000  O
  O25      1.0000 0.40102  0.54570  0.26720  Biso   1.000  O
  O26      1.0000 0.90102  0.04570  0.26720  Biso   1.000  O
  O27      1.0000 0.59898  0.54570  0.23280  Biso   1.000  O
  O28      1.0000 0.09898  0.04570  0.23280  Biso   1.000  O
  O29      1.0000 0.59898  0.45430  0.73280  Biso   1.000  O
  O30      1.0000 0.09898  0.95430  0.73280  Biso   1.000  O
  O31      1.0000 0.40102  0.45430  0.76720  Biso   1.000  O
  O32      1.0000 0.90102  0.95430  0.76720  Biso   1.000  O
  C41      1.0000 0.18067  0.70260  0.74520  Biso   1.000  C
  C42      1.0000 0.68067  0.20260  0.74520  Biso   1.000  C
  C43      1.0000 0.81933  0.70260  0.75480  Biso   1.000  C
  C44      1.0000 0.31933  0.20260  0.75480  Biso   1.000  C
  C45      1.0000 0.81933  0.29740  0.25480  Biso   1.000  C
  C46      1.0000 0.31933  0.79740  0.25480  Biso   1.000  C
  C47      1.0000 0.18067  0.29740  0.24520  Biso   1.000  C
  C48      1.0000 0.68067  0.79740  0.24520  Biso   1.000  C
  C49      1.0000 0.24106  0.69300  0.75530  Biso   1.000  C
  C50      1.0000 0.74106  0.19300  0.75530  Biso   1.000  C
  C51      1.0000 0.75894  0.69300  0.74470  Biso   1.000  C
  C52      1.0000 0.25894  0.19300  0.74470  Biso   1.000  C
  C53      1.0000 0.75894  0.30700  0.24470  Biso   1.000  C
  C54      1.0000 0.25894  0.80700  0.24470  Biso   1.000  C
  C55      1.0000 0.24106  0.30700  0.25530  Biso   1.000  C
  C56      1.0000 0.74106  0.80700  0.25530  Biso   1.000  C
  C57      1.0000 0.28143  0.71300  0.82650  Biso   1.000  C
  C58      1.0000 0.78143  0.21300  0.82650  Biso   1.000  C
  C59      1.0000 0.71857  0.71300  0.67350  Biso   1.000  C
  C60      1.0000 0.21857  0.21300  0.67350  Biso   1.000  C
  C61      1.0000 0.71857  0.28700  0.17350  Biso   1.000  C
  C62      1.0000 0.21857  0.78700  0.17350  Biso   1.000  C
  C63      1.0000 0.28143  0.28700  0.32650  Biso   1.000  C
  C64      1.0000 0.78143  0.78700  0.32650  Biso   1.000  C
  H9       1.0000 0.27740  0.73800  0.88860  Biso   1.000  H
  H10      1.0000 0.77740  0.23800  0.88860  Biso   1.000  H
  H11      1.0000 0.72260  0.73800  0.61140  Biso   1.000  H
  H12      1.0000 0.22260  0.23800  0.61140  Biso   1.000  H
  H13      1.0000 0.72260  0.26200  0.11140  Biso   1.000  H
  H14      1.0000 0.22260  0.76200  0.11140  Biso   1.000  H
  H15      1.0000 0.27740  0.26200  0.38860  Biso   1.000  H
  H16      1.0000 0.77740  0.76200  0.38860  Biso   1.000  H
  C65      1.0000 0.32887  0.68690  0.78260  Biso   1.000  C
  C66      1.0000 0.82887  0.18690  0.78260  Biso   1.000  C
  C67      1.0000 0.67113  0.68690  0.71740  Biso   1.000  C
  C68      1.0000 0.17113  0.18690  0.71740  Biso   1.000  C
  C69      1.0000 0.67113  0.31310  0.21740  Biso   1.000  C
  C70      1.0000 0.17113  0.81310  0.21740  Biso   1.000  C
  C71      1.0000 0.32887  0.31310  0.28260  Biso   1.000  C
  C72      1.0000 0.82887  0.81310  0.28260  Biso   1.000  C
  C73      1.0000 0.38757  0.69140  0.81470  Biso   1.000  C
  C74      1.0000 0.88757  0.19140  0.81470  Biso   1.000  C
  C75      1.0000 0.61243  0.69140  0.68530  Biso   1.000  C
  C76      1.0000 0.11243  0.19140  0.68530  Biso   1.000  C
  C77      1.0000 0.61243  0.30860  0.18530  Biso   1.000  C
  C78      1.0000 0.11243  0.80860  0.18530  Biso   1.000  C
  C79      1.0000 0.38757  0.30860  0.31470  Biso   1.000  C
  C80      1.0000 0.88757  0.80860  0.31470  Biso   1.000  C
  N17      1.0000 0.26403  0.65760  0.67610  Biso   1.000  N
  N18      1.0000 0.76403  0.15760  0.67610  Biso   1.000  N
  N19      1.0000 0.73597  0.65760  0.82390  Biso   1.000  N
  N20      1.0000 0.23597  0.15760  0.82390  Biso   1.000  N
  N21      1.0000 0.73597  0.34240  0.32390  Biso   1.000  N
  N22      1.0000 0.23597  0.84240  0.32390  Biso   1.000  N
  N23      1.0000 0.26403  0.34240  0.17610  Biso   1.000  N
  N24      1.0000 0.76403  0.84240  0.17610  Biso   1.000  N
  N25      1.0000 0.31826  0.65300  0.69140  Biso   1.000  N
  N26      1.0000 0.81826  0.15300  0.69140  Biso   1.000  N
  N27      1.0000 0.68174  0.65300  0.80860  Biso   1.000  N
  N28      1.0000 0.18174  0.15300  0.80860  Biso   1.000  N
  N29      1.0000 0.68174  0.34700  0.30860  Biso   1.000  N
  N30      1.0000 0.18174  0.84700  0.30860  Biso   1.000  N
  N31      1.0000 0.31826  0.34700  0.19140  Biso   1.000  N
  N32      1.0000 0.81826  0.84700  0.19140  Biso   1.000  N
  O33      1.0000 0.16002  0.67570  0.66170  Biso   1.000  O
  O34      1.0000 0.66002  0.17570  0.66170  Biso   1.000  O
  O35      1.0000 0.83998  0.67570  0.83830  Biso   1.000  O
  O36      1.0000 0.33998  0.17570  0.83830  Biso   1.000  O
  O37      1.0000 0.83998  0.32430  0.33830  Biso   1.000  O
  O38      1.0000 0.33998  0.82430  0.33830  Biso   1.000  O
  O39      1.0000 0.16002  0.32430  0.16170  Biso   1.000  O
  O40      1.0000 0.66002  0.82430  0.16170  Biso   1.000  O
  O41      1.0000 0.15335  0.73450  0.81150  Biso   1.000  O
  O42      1.0000 0.65335  0.23450  0.81150  Biso   1.000  O
  O43      1.0000 0.84665  0.73450  0.68850  Biso   1.000  O
  O44      1.0000 0.34665  0.23450  0.68850  Biso   1.000  O
  O45      1.0000 0.84665  0.26550  0.18850  Biso   1.000  O
  O46      1.0000 0.34665  0.76550  0.18850  Biso   1.000  O
  O47      1.0000 0.15335  0.26550  0.31150  Biso   1.000  O
  O48      1.0000 0.65335  0.76550  0.31150  Biso   1.000  O
  O49      1.0000 0.42128  0.66090  0.75570  Biso   1.000  O
  O50      1.0000 0.92128  0.16090  0.75570  Biso   1.000  O
  O51      1.0000 0.57872  0.66090  0.74430  Biso   1.000  O
  O52      1.0000 0.07872  0.16090  0.74430  Biso   1.000  O
  O53      1.0000 0.57872  0.33910  0.24430  Biso   1.000  O
  O54      1.0000 0.07872  0.83910  0.24430  Biso   1.000  O
  O55      1.0000 0.42128  0.33910  0.25570  Biso   1.000  O
  O56      1.0000 0.92128  0.83910  0.25570  Biso   1.000  O
  O57      1.0000 0.40107  0.72460  0.89710  Biso   1.000  O
  O58      1.0000 0.90107  0.22460  0.89710  Biso   1.000  O
  O59      1.0000 0.59893  0.72460  0.60290  Biso   1.000  O
  O60      1.0000 0.09893  0.22460  0.60290  Biso   1.000  O
  O61      1.0000 0.59893  0.27540  0.10290  Biso   1.000  O
  O62      1.0000 0.09893  0.77540  0.10290  Biso   1.000  O
  O63      1.0000 0.40107  0.27540  0.39710  Biso   1.000  O
  O64      1.0000 0.90107  0.77540  0.39710  Biso   1.000  O
  O65      1.0000 0.20773  0.46220  0.61310  Biso   1.000  O
  O66      1.0000 0.70773  0.96220  0.61310  Biso   1.000  O
  O67      1.0000 0.79227  0.46220  0.88690  Biso   1.000  O
  O68      1.0000 0.29227  0.96220  0.88690  Biso   1.000  O
  O69      1.0000 0.79227  0.53780  0.38690  Biso   1.000  O
  O70      1.0000 0.29227  0.03780  0.38690  Biso   1.000  O
  O71      1.0000 0.20773  0.53780  0.11310  Biso   1.000  O
  O72      1.0000 0.70773  0.03780  0.11310  Biso   1.000  O
  H17      1.0000 0.21070  0.42120  0.55860  Biso   1.000  H
  H18      1.0000 0.71070  0.92120  0.55860  Biso   1.000  H
  H19      1.0000 0.78930  0.42120  0.94140  Biso   1.000  H
  H20      1.0000 0.28930  0.92120  0.94140  Biso   1.000  H
  H21      1.0000 0.78930  0.57880  0.44140  Biso   1.000  H
  H22      1.0000 0.28930  0.07880  0.44140  Biso   1.000  H
  H23      1.0000 0.21070  0.57880  0.05860  Biso   1.000  H
  H24      1.0000 0.71070  0.07880  0.05860  Biso   1.000  H
  H25      1.0000 0.17350  0.44610  0.63420  Biso   1.000  H
  H26      1.0000 0.67350  0.94610  0.63420  Biso   1.000  H
  H27      1.0000 0.82650  0.44610  0.86580  Biso   1.000  H
  H28      1.0000 0.32650  0.94610  0.86580  Biso   1.000  H
  H29      1.0000 0.82650  0.55390  0.36580  Biso   1.000  H
  H30      1.0000 0.32650  0.05390  0.36580  Biso   1.000  H
  H31      1.0000 0.17350  0.55390  0.13420  Biso   1.000  H
  H32      1.0000 0.67350  0.05390  0.13420  Biso   1.000  H
  O73      1.0000 0.32086  0.41950  0.59180  Biso   1.000  O
  O74      1.0000 0.82086  0.91950  0.59180  Biso   1.000  O
  O75      1.0000 0.67914  0.41950  0.90820  Biso   1.000  O
  O76      1.0000 0.17914  0.91950  0.90820  Biso   1.000  O
  O77      1.0000 0.67914  0.58050  0.40820  Biso   1.000  O
  O78      1.0000 0.17914  0.08050  0.40820  Biso   1.000  O
  O79      1.0000 0.32086  0.58050  0.09180  Biso   1.000  O
  O80      1.0000 0.82086  0.08050  0.09180  Biso   1.000  O
  H33      1.0000 0.32990  0.35260  0.58930  Biso   1.000  H
  H34      1.0000 0.82990  0.85260  0.58930  Biso   1.000  H
  H35      1.0000 0.67010  0.35260  0.91070  Biso   1.000  H
  H36      1.0000 0.17010  0.85260  0.91070  Biso   1.000  H
  H37      1.0000 0.67010  0.64740  0.41070  Biso   1.000  H
  H38      1.0000 0.17010  0.14740  0.41070  Biso   1.000  H
  H39      1.0000 0.32990  0.64740  0.08930  Biso   1.000  H
  H40      1.0000 0.82990  0.14740  0.08930  Biso   1.000  H
  H41      1.0000 0.29130  0.44070  0.55340  Biso   1.000  H
  H42      1.0000 0.79130  0.94070  0.55340  Biso   1.000  H
  H43      1.0000 0.70870  0.44070  0.94660  Biso   1.000  H
  H44      1.0000 0.20870  0.94070  0.94660  Biso   1.000  H
  H45      1.0000 0.70870  0.55930  0.44660  Biso   1.000  H
  H46      1.0000 0.20870  0.05930  0.44660  Biso   1.000  H
  H47      1.0000 0.29130  0.55930  0.05340  Biso   1.000  H
  H48      1.0000 0.79130  0.05930  0.05340  Biso   1.000  H
  O81      1.0000 0.43598  0.38400  0.56470  Biso   1.000  O
  O82      1.0000 0.93598  0.88400  0.56470  Biso   1.000  O
  O83      1.0000 0.56402  0.38400  0.93530  Biso   1.000  O
  O84      1.0000 0.06402  0.88400  0.93530  Biso   1.000  O
  O85      1.0000 0.56402  0.61600  0.43530  Biso   1.000  O
  O86      1.0000 0.06402  0.11600  0.43530  Biso   1.000  O
  O87      1.0000 0.43598  0.61600  0.06470  Biso   1.000  O
  O88      1.0000 0.93598  0.11600  0.06470  Biso   1.000  O
  H49      1.0000 0.47130  0.36940  0.59370  Biso   1.000  H
  H50      1.0000 0.97130  0.86940  0.59370  Biso   1.000  H
  H51      1.0000 0.52870  0.36940  0.90630  Biso   1.000  H
  H52      1.0000 0.02870  0.86940  0.90630  Biso   1.000  H
  H53      1.0000 0.52870  0.63060  0.40630  Biso   1.000  H
  H54      1.0000 0.02870  0.13060  0.40630  Biso   1.000  H
  H55      1.0000 0.47130  0.63060  0.09370  Biso   1.000  H
  H56      1.0000 0.97130  0.13060  0.09370  Biso   1.000  H
  H57      1.0000 0.41480  0.33440  0.59540  Biso   1.000  H
  H58      1.0000 0.91480  0.83440  0.59540  Biso   1.000  H
  H59      1.0000 0.58520  0.33440  0.90460  Biso   1.000  H
  H60      1.0000 0.08520  0.83440  0.90460  Biso   1.000  H
  H61      1.0000 0.58520  0.66560  0.40460  Biso   1.000  H
  H62      1.0000 0.08520  0.16560  0.40460  Biso   1.000  H
  H63      1.0000 0.41480  0.66560  0.09540  Biso   1.000  H
  H64      1.0000 0.91480  0.16560  0.09540  Biso   1.000  H
  O89      1.0000 0.49601  0.56760  0.62800  Biso   1.000  O
  O90      1.0000 0.99601  0.06760  0.62800  Biso   1.000  O
  O91      1.0000 0.50399  0.56760  0.87200  Biso   1.000  O
  O92      1.0000 0.00399  0.06760  0.87200  Biso   1.000  O
  O93      1.0000 0.50399  0.43240  0.37200  Biso   1.000  O
  O94      1.0000 0.00399  0.93240  0.37200  Biso   1.000  O
  O95      1.0000 0.49601  0.43240  0.12800  Biso   1.000  O
  O96      1.0000 0.99601  0.93240  0.12800  Biso   1.000  O
  H65      1.0000 0.51670  0.52300  0.59240  Biso   1.000  H
  H66      1.0000 0.01670  0.02300  0.59240  Biso   1.000  H
  H67      1.0000 0.48330  0.52300  0.90760  Biso   1.000  H
  H68      1.0000 0.98330  0.02300  0.90760  Biso   1.000  H
  H69      1.0000 0.48330  0.47700  0.40760  Biso   1.000  H
  H70      1.0000 0.98330  0.97700  0.40760  Biso   1.000  H
  H71      1.0000 0.51670  0.47700  0.09240  Biso   1.000  H
  H72      1.0000 0.01670  0.97700  0.09240  Biso   1.000  H
  H73      1.0000 0.50860  0.63210  0.62820  Biso   1.000  H
  H74      1.0000 0.00860  0.13210  0.62820  Biso   1.000  H
  H75      1.0000 0.49140  0.63210  0.87180  Biso   1.000  H
  H76      1.0000 0.99140  0.13210  0.87180  Biso   1.000  H
  H77      1.0000 0.49140  0.36790  0.37180  Biso   1.000  H
  H78      1.0000 0.99140  0.86790  0.37180  Biso   1.000  H
  H79      1.0000 0.50860  0.36790  0.12820  Biso   1.000  H
  H80      1.0000 0.00860  0.86790  0.12820  Biso   1.000  H
  O97      1.0000 0.41712  0.73520  0.55460  Biso   1.000  O
  O98      1.0000 0.91712  0.23520  0.55460  Biso   1.000  O
  O99      1.0000 0.58288  0.73520  0.94540  Biso   1.000  O
  O100     1.0000 0.08288  0.23520  0.94540  Biso   1.000  O
  O101     1.0000 0.58288  0.26480  0.44540  Biso   1.000  O
  O102     1.0000 0.08288  0.76480  0.44540  Biso   1.000  O
  O103     1.0000 0.41712  0.26480  0.05460  Biso   1.000  O
  O104     1.0000 0.91712  0.76480  0.05460  Biso   1.000  O
  H81      1.0000 0.43260  0.75470  0.61690  Biso   1.000  H
  H82      1.0000 0.93260  0.25470  0.61690  Biso   1.000  H
  H83      1.0000 0.56740  0.75470  0.88310  Biso   1.000  H
  H84      1.0000 0.06740  0.25470  0.88310  Biso   1.000  H
  H85      1.0000 0.56740  0.24530  0.38310  Biso   1.000  H
  H86      1.0000 0.06740  0.74530  0.38310  Biso   1.000  H
  H87      1.0000 0.43260  0.24530  0.11690  Biso   1.000  H
  H88      1.0000 0.93260  0.74530  0.11690  Biso   1.000  H
  H89      1.0000 0.38690  0.78040  0.55650  Biso   1.000  H
  H90      1.0000 0.88690  0.28040  0.55650  Biso   1.000  H
  H91      1.0000 0.61310  0.78040  0.94350  Biso   1.000  H
  H92      1.0000 0.11310  0.28040  0.94350  Biso   1.000  H
  H93      1.0000 0.61310  0.21960  0.44350  Biso   1.000  H
  H94      1.0000 0.11310  0.71960  0.44350  Biso   1.000  H
  H95      1.0000 0.38690  0.21960  0.05650  Biso   1.000  H
  H96      1.0000 0.88690  0.71960  0.05650  Biso   1.000  H
  O105     1.0000 0.56629  0.99690  0.49680  Biso   1.000  O
  O106     1.0000 0.06629  0.49690  0.49680  Biso   1.000  O
  O107     1.0000 0.43371  0.99690  0.00320  Biso   1.000  O
  O108     1.0000 0.93371  0.49690  0.00320  Biso   1.000  O
  O109     1.0000 0.43371  0.00310  0.50320  Biso   1.000  O
  O110     1.0000 0.93371  0.50310  0.50320  Biso   1.000  O
  O111     1.0000 0.56629  0.00310  0.99680  Biso   1.000  O
  O112     1.0000 0.06629  0.50310  0.99680  Biso   1.000  O
  H97      1.0000 0.58790  0.93900  0.48510  Biso   1.000  H
  H98      1.0000 0.08790  0.43900  0.48510  Biso   1.000  H
  H99      1.0000 0.41210  0.93900  0.01490  Biso   1.000  H
  H100     1.0000 0.91210  0.43900  0.01490  Biso   1.000  H
  H101     1.0000 0.41210  0.06100  0.51490  Biso   1.000  H
  H102     1.0000 0.91210  0.56100  0.51490  Biso   1.000  H
  H103     1.0000 0.58790  0.06100  0.98510  Biso   1.000  H
  H104     1.0000 0.08790  0.56100  0.98510  Biso   1.000  H
  H105     1.0000 0.59280  0.04490  0.47810  Biso   1.000  H
  H106     1.0000 0.09280  0.54490  0.47810  Biso   1.000  H
  H107     1.0000 0.40720  0.04490  0.02190  Biso   1.000  H
  H108     1.0000 0.90720  0.54490  0.02190  Biso   1.000  H
  H109     1.0000 0.40720  0.95510  0.52190  Biso   1.000  H
  H110     1.0000 0.90720  0.45510  0.52190  Biso   1.000  H
  H111     1.0000 0.59280  0.95510  0.97810  Biso   1.000  H
  H112     1.0000 0.09280  0.45510  0.97810  Biso   1.000  H
  O113     1.0000 0.56614  0.04190  0.76640  Biso   1.000  O
  O114     1.0000 0.06614  0.54190  0.76640  Biso   1.000  O
  O115     1.0000 0.43386  0.04190  0.73360  Biso   1.000  O
  O116     1.0000 0.93386  0.54190  0.73360  Biso   1.000  O
  O117     1.0000 0.43386  0.95810  0.23360  Biso   1.000  O
  O118     1.0000 0.93386  0.45810  0.23360  Biso   1.000  O
  O119     1.0000 0.56614  0.95810  0.26640  Biso   1.000  O
  O120     1.0000 0.06614  0.45810  0.26640  Biso   1.000  O
  H113     1.0000 0.58920  0.09920  0.76070  Biso   1.000  H
  H114     1.0000 0.08920  0.59920  0.76070  Biso   1.000  H
  H115     1.0000 0.41080  0.09920  0.73930  Biso   1.000  H
  H116     1.0000 0.91080  0.59920  0.73930  Biso   1.000  H
  H117     1.0000 0.41080  0.90080  0.23930  Biso   1.000  H
  H118     1.0000 0.91080  0.40080  0.23930  Biso   1.000  H
  H119     1.0000 0.58920  0.90080  0.26070  Biso   1.000  H
  H120     1.0000 0.08920  0.40080  0.26070  Biso   1.000  H
  H121     1.0000 0.59450  0.99270  0.76800  Biso   1.000  H
  H122     1.0000 0.09450  0.49270  0.76800  Biso   1.000  H
  H123     1.0000 0.40550  0.99270  0.73200  Biso   1.000  H
  H124     1.0000 0.90550  0.49270  0.73200  Biso   1.000  H
  H125     1.0000 0.40550  0.00730  0.23200  Biso   1.000  H
  H126     1.0000 0.90550  0.50730  0.23200  Biso   1.000  H
  H127     1.0000 0.59450  0.00730  0.26800  Biso   1.000  H
  H128     1.0000 0.09450  0.50730  0.26800  Biso   1.000  H
  O121     1.0000 0.50333  0.84030  0.64900  Biso   1.000  O
  O122     1.0000 0.00333  0.34030  0.64900  Biso   1.000  O
  O123     1.0000 0.49667  0.84030  0.85100  Biso   1.000  O
  O124     1.0000 0.99667  0.34030  0.85100  Biso   1.000  O
  O125     1.0000 0.49667  0.15970  0.35100  Biso   1.000  O
  O126     1.0000 0.99667  0.65970  0.35100  Biso   1.000  O
  O127     1.0000 0.50333  0.15970  0.14900  Biso   1.000  O
  O128     1.0000 0.00333  0.65970  0.14900  Biso   1.000  O
  H129     1.0000 0.53390  0.82600  0.69110  Biso   1.000  H
  H130     1.0000 0.03390  0.32600  0.69110  Biso   1.000  H
  H131     1.0000 0.46610  0.82600  0.80890  Biso   1.000  H
  H132     1.0000 0.96610  0.32600  0.80890  Biso   1.000  H
  H133     1.0000 0.46610  0.17400  0.30890  Biso   1.000  H
  H134     1.0000 0.96610  0.67400  0.30890  Biso   1.000  H
  H135     1.0000 0.53390  0.17400  0.19110  Biso   1.000  H
  H136     1.0000 0.03390  0.67400  0.19110  Biso   1.000  H
  H137     1.0000 0.51760  0.80970  0.59310  Biso   1.000  H
  H138     1.0000 0.01760  0.30970  0.59310  Biso   1.000  H
  H139     1.0000 0.48240  0.80970  0.90690  Biso   1.000  H
  H140     1.0000 0.98240  0.30970  0.90690  Biso   1.000  H
  H141     1.0000 0.48240  0.19030  0.40690  Biso   1.000  H
  H142     1.0000 0.98240  0.69030  0.40690  Biso   1.000  H
  H143     1.0000 0.51760  0.19030  0.09310  Biso   1.000  H
  H144     1.0000 0.01760  0.69030  0.09310  Biso   1.000  H
  O129     1.0000 0.54680  0.19960  0.62230  Biso   1.000  O
  O130     1.0000 0.04680  0.69960  0.62230  Biso   1.000  O
  O131     1.0000 0.45320  0.19960  0.87770  Biso   1.000  O
  O132     1.0000 0.95320  0.69960  0.87770  Biso   1.000  O
  O133     1.0000 0.45320  0.80040  0.37770  Biso   1.000  O
  O134     1.0000 0.95320  0.30040  0.37770  Biso   1.000  O
  O135     1.0000 0.54680  0.80040  0.12230  Biso   1.000  O
  O136     1.0000 0.04680  0.30040  0.12230  Biso   1.000  O
  H145     1.0000 0.55730  0.21990  0.68590  Biso   1.000  H
  H146     1.0000 0.05730  0.71990  0.68590  Biso   1.000  H
  H147     1.0000 0.44270  0.21990  0.81410  Biso   1.000  H
  H148     1.0000 0.94270  0.71990  0.81410  Biso   1.000  H
  H149     1.0000 0.44270  0.78010  0.31410  Biso   1.000  H
  H150     1.0000 0.94270  0.28010  0.31410  Biso   1.000  H
  H151     1.0000 0.55730  0.78010  0.18590  Biso   1.000  H
  H152     1.0000 0.05730  0.28010  0.18590  Biso   1.000  H
  H153     1.0000 0.57670  0.21340  0.58240  Biso   1.000  H
  H154     1.0000 0.07670  0.71340  0.58240  Biso   1.000  H
  H155     1.0000 0.42330  0.21340  0.91760  Biso   1.000  H
  H156     1.0000 0.92330  0.71340  0.91760  Biso   1.000  H
  H157     1.0000 0.42330  0.78660  0.41760  Biso   1.000  H
  H158     1.0000 0.92330  0.28660  0.41760  Biso   1.000  H
  H159     1.0000 0.57670  0.78660  0.08240  Biso   1.000  H
  H160     1.0000 0.07670  0.28660  0.08240  Biso   1.000  H
  O137     1.0000 0.51110  0.19850  0.60130  Biso   1.000  O
  O138     1.0000 0.01110  0.69850  0.60130  Biso   1.000  O
  O139     1.0000 0.48890  0.19850  0.89870  Biso   1.000  O
  O140     1.0000 0.98890  0.69850  0.89870  Biso   1.000  O
  O141     1.0000 0.48890  0.80150  0.39870  Biso   1.000  O
  O142     1.0000 0.98890  0.30150  0.39870  Biso   1.000  O
  O143     1.0000 0.51110  0.80150  0.10130  Biso   1.000  O
  O144     1.0000 0.01110  0.30150  0.10130  Biso   1.000  O
  H161     1.0000 0.53660  0.21340  0.55260  Biso   1.000  H
  H162     1.0000 0.03660  0.71340  0.55260  Biso   1.000  H
  H163     1.0000 0.46340  0.21340  0.94740  Biso   1.000  H
  H164     1.0000 0.96340  0.71340  0.94740  Biso   1.000  H
  H165     1.0000 0.46340  0.78660  0.44740  Biso   1.000  H
  H166     1.0000 0.96340  0.28660  0.44740  Biso   1.000  H
  H167     1.0000 0.53660  0.78660  0.05260  Biso   1.000  H
  H168     1.0000 0.03660  0.28660  0.05260  Biso   1.000  H
  H169     1.0000 0.52280  0.22970  0.66130  Biso   1.000  H
  H170     1.0000 0.02280  0.72970  0.66130  Biso   1.000  H
  H171     1.0000 0.47720  0.22970  0.83870  Biso   1.000  H
  H172     1.0000 0.97720  0.72970  0.83870  Biso   1.000  H
  H173     1.0000 0.47720  0.77030  0.33870  Biso   1.000  H
  H174     1.0000 0.97720  0.27030  0.33870  Biso   1.000  H
  H175     1.0000 0.52280  0.77030  0.16130  Biso   1.000  H
  H176     1.0000 0.02280  0.27030  0.16130  Biso   1.000  H
  O145     1.0000 0.14611  0.64840  0.98780  Biso   1.000  O
  O146     1.0000 0.64611  0.14840  0.98780  Biso   1.000  O
  O147     1.0000 0.85389  0.64840  0.51220  Biso   1.000  O
  O148     1.0000 0.35389  0.14840  0.51220  Biso   1.000  O
  O149     1.0000 0.85389  0.35160  0.01220  Biso   1.000  O
  O150     1.0000 0.35389  0.85160  0.01220  Biso   1.000  O
  O151     1.0000 0.14611  0.35160  0.48780  Biso   1.000  O
  O152     1.0000 0.64611  0.85160  0.48780  Biso   1.000  O
  H177     1.0000 0.13160  0.69670  0.03110  Biso   1.000  H
  H178     1.0000 0.63160  0.19670  0.03110  Biso   1.000  H
  H179     1.0000 0.86840  0.69670  0.46890  Biso   1.000  H
  H180     1.0000 0.36840  0.19670  0.46890  Biso   1.000  H
  H181     1.0000 0.86840  0.30330  0.96890  Biso   1.000  H
  H182     1.0000 0.36840  0.80330  0.96890  Biso   1.000  H
  H183     1.0000 0.13160  0.30330  0.53110  Biso   1.000  H
  H184     1.0000 0.63160  0.80330  0.53110  Biso   1.000  H
  H185     1.0000 0.15500  0.67930  0.92780  Biso   1.000  H
  H186     1.0000 0.65500  0.17930  0.92780  Biso   1.000  H
  H187     1.0000 0.84500  0.67930  0.57220  Biso   1.000  H
  H188     1.0000 0.34500  0.17930  0.57220  Biso   1.000  H
  H189     1.0000 0.84500  0.32070  0.07220  Biso   1.000  H
  H190     1.0000 0.34500  0.82070  0.07220  Biso   1.000  H
  H191     1.0000 0.15500  0.32070  0.42780  Biso   1.000  H
  H192     1.0000 0.65500  0.82070  0.42780  Biso   1.000  H
  O153     1.0000 0.50000  0.33780  0.75000  Biso   1.000  O
  O154     1.0000 0.00000  0.83780  0.75000  Biso   1.000  O
  O155     1.0000 0.50000  0.66220  0.25000  Biso   1.000  O
  O156     1.0000 0.00000  0.16220  0.25000  Biso   1.000  O
  H193     1.0000 0.46610  0.37190  0.75880  Biso   1.000  H
  H194     1.0000 0.96610  0.87190  0.75880  Biso   1.000  H
  H195     1.0000 0.53390  0.37190  0.74120  Biso   1.000  H
  H196     1.0000 0.03390  0.87190  0.74120  Biso   1.000  H
  H197     1.0000 0.53390  0.62810  0.24120  Biso   1.000  H
  H198     1.0000 0.03390  0.12810  0.24120  Biso   1.000  H
  H199     1.0000 0.46610  0.62810  0.25880  Biso   1.000  H
  H200     1.0000 0.96610  0.12810  0.25880  Biso   1.000  H
  H201     1.0000 0.53580  0.36600  0.74160  Biso   1.000  H
  H202     1.0000 0.03580  0.86600  0.74160  Biso   1.000  H
  H203     1.0000 0.46420  0.36600  0.75840  Biso   1.000  H
  H204     1.0000 0.96420  0.86600  0.75840  Biso   1.000  H
  H205     1.0000 0.46420  0.63400  0.25840  Biso   1.000  H
  H206     1.0000 0.96420  0.13400  0.25840  Biso   1.000  H
  H207     1.0000 0.53580  0.63400  0.24160  Biso   1.000  H
  H208     1.0000 0.03580  0.13400  0.24160  Biso   1.000  H
