data_image0
_cell_length_a       24.542
_cell_length_b       13.429
_cell_length_c       13.701
_cell_angle_alpha    90
_cell_angle_beta     92.42
_cell_angle_gamma    90

_symmetry_space_group_name_H-M    "P 1"
_symmetry_int_tables_number       1

loop_
  _symmetry_equiv_pos_as_xyz
  'x, y, z'

loop_
  _atom_site_label
  _atom_site_occupancy
  _atom_site_fract_x
  _atom_site_fract_y
  _atom_site_fract_z
  _atom_site_thermal_displace_type
  _atom_site_B_iso_or_equiv
  _atom_site_type_symbol
  Na1      1.0000 0.50653  0.52104  0.62401  Biso   1.000  Na
  Na2      1.0000 0.00653  0.02104  0.62401  Biso   1.000  Na
  Na3      1.0000 0.49347  0.52104  0.87599  Biso   1.000  Na
  Na4      1.0000 0.99347  0.02104  0.87599  Biso   1.000  Na
  Na5      1.0000 0.49347  0.47896  0.37599  Biso   1.000  Na
  Na6      1.0000 0.99347  0.97896  0.37599  Biso   1.000  Na
  Na7      1.0000 0.50653  0.47896  0.12401  Biso   1.000  Na
  Na8      1.0000 0.00653  0.97896  0.12401  Biso   1.000  Na
  Nd1      1.0000 0.10509  0.55627  0.89339  Biso   1.000  Nd
  Nd2      1.0000 0.60509  0.05627  0.89339  Biso   1.000  Nd
  Nd3      1.0000 0.89491  0.55627  0.60661  Biso   1.000  Nd
  Nd4      1.0000 0.39491  0.05627  0.60661  Biso   1.000  Nd
  Nd5      1.0000 0.89491  0.44373  0.10661  Biso   1.000  Nd
  Nd6      1.0000 0.39491  0.94373  0.10661  Biso   1.000  Nd
  Nd7      1.0000 0.10509  0.44373  0.39339  Biso   1.000  Nd
  Nd8      1.0000 0.60509  0.94373  0.39339  Biso   1.000  Nd
  Cu1      1.0000 0.28566  0.63002  0.93014  Biso   1.000  Cu
  Cu2      1.0000 0.78566  0.13002  0.93014  Biso   1.000  Cu
  Cu3      1.0000 0.71434  0.63002  0.56986  Biso   1.000  Cu
  Cu4      1.0000 0.21434  0.13002  0.56986  Biso   1.000  Cu
  Cu5      1.0000 0.71434  0.36998  0.06986  Biso   1.000  Cu
  Cu6      1.0000 0.21434  0.86998  0.06986  Biso   1.000  Cu
  Cu7      1.0000 0.28566  0.36998  0.43014  Biso   1.000  Cu
  Cu8      1.0000 0.78566  0.86998  0.43014  Biso   1.000  Cu
  C1       1.0000 0.31762  0.70420  0.75320  Biso   1.000  C
  C2       1.0000 0.81762  0.20420  0.75320  Biso   1.000  C
  C3       1.0000 0.68238  0.70420  0.74680  Biso   1.000  C
  C4       1.0000 0.18238  0.20420  0.74680  Biso   1.000  C
  C5       1.0000 0.68238  0.29580  0.24680  Biso   1.000  C
  C6       1.0000 0.18238  0.79580  0.24680  Biso   1.000  C
  C7       1.0000 0.31762  0.29580  0.25320  Biso   1.000  C
  C8       1.0000 0.81762  0.79580  0.25320  Biso   1.000  C
  C9       1.0000 0.25758  0.69250  0.74310  Biso   1.000  C
  C10      1.0000 0.75758  0.19250  0.74310  Biso   1.000  C
  C11      1.0000 0.74242  0.69250  0.75690  Biso   1.000  C
  C12      1.0000 0.24242  0.19250  0.75690  Biso   1.000  C
  C13      1.0000 0.74242  0.30750  0.25690  Biso   1.000  C
  C14      1.0000 0.24242  0.80750  0.25690  Biso   1.000  C
  C15      1.0000 0.25758  0.30750  0.24310  Biso   1.000  C
  C16      1.0000 0.75758  0.80750  0.24310  Biso   1.000  C
  C17      1.0000 0.21655  0.71240  0.67210  Biso   1.000  C
  C18      1.0000 0.71655  0.21240  0.67210  Biso   1.000  C
  C19      1.0000 0.78345  0.71240  0.82790  Biso   1.000  C
  C20      1.0000 0.28345  0.21240  0.82790  Biso   1.000  C
  C21      1.0000 0.78345  0.28760  0.32790  Biso   1.000  C
  C22      1.0000 0.28345  0.78760  0.32790  Biso   1.000  C
  C23      1.0000 0.21655  0.28760  0.17210  Biso   1.000  C
  C24      1.0000 0.71655  0.78760  0.17210  Biso   1.000  C
  H1       1.0000 0.21990  0.73840  0.60970  Biso   1.000  H
  H2       1.0000 0.71990  0.23840  0.60970  Biso   1.000  H
  H3       1.0000 0.78010  0.73840  0.89030  Biso   1.000  H
  H4       1.0000 0.28010  0.23840  0.89030  Biso   1.000  H
  H5       1.0000 0.78010  0.26160  0.39030  Biso   1.000  H
  H6       1.0000 0.28010  0.76160  0.39030  Biso   1.000  H
  H7       1.0000 0.21990  0.26160  0.10970  Biso   1.000  H
  H8       1.0000 0.71990  0.76160  0.10970  Biso   1.000  H
  C25      1.0000 0.16939  0.68490  0.71660  Biso   1.000  C
  C26      1.0000 0.66939  0.18490  0.71660  Biso   1.000  C
  C27      1.0000 0.83061  0.68490  0.78340  Biso   1.000  C
  C28      1.0000 0.33061  0.18490  0.78340  Biso   1.000  C
  C29      1.0000 0.83061  0.31510  0.28340  Biso   1.000  C
  C30      1.0000 0.33061  0.81510  0.28340  Biso   1.000  C
  C31      1.0000 0.16939  0.31510  0.21660  Biso   1.000  C
  C32      1.0000 0.66939  0.81510  0.21660  Biso   1.000  C
  C33      1.0000 0.11040  0.69000  0.68580  Biso   1.000  C
  C34      1.0000 0.61040  0.19000  0.68580  Biso   1.000  C
  C35      1.0000 0.88960  0.69000  0.81420  Biso   1.000  C
  C36      1.0000 0.38960  0.19000  0.81420  Biso   1.000  C
  C37      1.0000 0.88960  0.31000  0.31420  Biso   1.000  C
  C38      1.0000 0.38960  0.81000  0.31420  Biso   1.000  C
  C39      1.0000 0.11040  0.31000  0.18580  Biso   1.000  C
  C40      1.0000 0.61040  0.81000  0.18580  Biso   1.000  C
  N1       1.0000 0.18089  0.65000  0.80820  Biso   1.000  N
  N2       1.0000 0.68089  0.15000  0.80820  Biso   1.000  N
  N3       1.0000 0.81911  0.65000  0.69180  Biso   1.000  N
  N4       1.0000 0.31911  0.15000  0.69180  Biso   1.000  N
  N5       1.0000 0.81911  0.35000  0.19180  Biso   1.000  N
  N6       1.0000 0.31911  0.85000  0.19180  Biso   1.000  N
  N7       1.0000 0.18089  0.35000  0.30820  Biso   1.000  N
  N8       1.0000 0.68089  0.85000  0.30820  Biso   1.000  N
  N9       1.0000 0.23493  0.65570  0.82280  Biso   1.000  N
  N10      1.0000 0.73493  0.15570  0.82280  Biso   1.000  N
  N11      1.0000 0.76507  0.65570  0.67720  Biso   1.000  N
  N12      1.0000 0.26507  0.15570  0.67720  Biso   1.000  N
  N13      1.0000 0.76507  0.34430  0.17720  Biso   1.000  N
  N14      1.0000 0.26507  0.84430  0.17720  Biso   1.000  N
  N15      1.0000 0.23493  0.34430  0.32280  Biso   1.000  N
  N16      1.0000 0.73493  0.84430  0.32280  Biso   1.000  N
  O1       1.0000 0.33905  0.67620  0.83580  Biso   1.000  O
  O2       1.0000 0.83905  0.17620  0.83580  Biso   1.000  O
  O3       1.0000 0.66095  0.67620  0.66420  Biso   1.000  O
  O4       1.0000 0.16095  0.17620  0.66420  Biso   1.000  O
  O5       1.0000 0.66095  0.32380  0.16420  Biso   1.000  O
  O6       1.0000 0.16095  0.82380  0.16420  Biso   1.000  O
  O7       1.0000 0.33905  0.32380  0.33580  Biso   1.000  O
  O8       1.0000 0.83905  0.82380  0.33580  Biso   1.000  O
  O9       1.0000 0.34458  0.73770  0.68580  Biso   1.000  O
  O10      1.0000 0.84458  0.23770  0.68580  Biso   1.000  O
  O11      1.0000 0.65542  0.73770  0.81420  Biso   1.000  O
  O12      1.0000 0.15542  0.23770  0.81420  Biso   1.000  O
  O13      1.0000 0.65542  0.26230  0.31420  Biso   1.000  O
  O14      1.0000 0.15542  0.76230  0.31420  Biso   1.000  O
  O15      1.0000 0.34458  0.26230  0.18580  Biso   1.000  O
  O16      1.0000 0.84458  0.76230  0.18580  Biso   1.000  O
  O17      1.0000 0.07695  0.65910  0.74650  Biso   1.000  O
  O18      1.0000 0.57695  0.15910  0.74650  Biso   1.000  O
  O19      1.0000 0.92305  0.65910  0.75350  Biso   1.000  O
  O20      1.0000 0.42305  0.15910  0.75350  Biso   1.000  O
  O21      1.0000 0.92305  0.34090  0.25350  Biso   1.000  O
  O22      1.0000 0.42305  0.84090  0.25350  Biso   1.000  O
  O23      1.0000 0.07695  0.34090  0.24650  Biso   1.000  O
  O24      1.0000 0.57695  0.84090  0.24650  Biso   1.000  O
  O25      1.0000 0.09600  0.72280  0.60310  Biso   1.000  O
  O26      1.0000 0.59600  0.22280  0.60310  Biso   1.000  O
  O27      1.0000 0.90400  0.72280  0.89690  Biso   1.000  O
  O28      1.0000 0.40400  0.22280  0.89690  Biso   1.000  O
  O29      1.0000 0.90400  0.27720  0.39690  Biso   1.000  O
  O30      1.0000 0.40400  0.77720  0.39690  Biso   1.000  O
  O31      1.0000 0.09600  0.27720  0.10310  Biso   1.000  O
  O32      1.0000 0.59600  0.77720  0.10310  Biso   1.000  O
  C41      1.0000 0.31593  0.59500  0.12540  Biso   1.000  C
  C42      1.0000 0.81593  0.09500  0.12540  Biso   1.000  C
  C43      1.0000 0.68407  0.59500  0.37460  Biso   1.000  C
  C44      1.0000 0.18407  0.09500  0.37460  Biso   1.000  C
  C45      1.0000 0.68407  0.40500  0.87460  Biso   1.000  C
  C46      1.0000 0.18407  0.90500  0.87460  Biso   1.000  C
  C47      1.0000 0.31593  0.40500  0.62540  Biso   1.000  C
  C48      1.0000 0.81593  0.90500  0.62540  Biso   1.000  C
  C49      1.0000 0.25564  0.58750  0.11750  Biso   1.000  C
  C50      1.0000 0.75564  0.08750  0.11750  Biso   1.000  C
  C51      1.0000 0.74436  0.58750  0.38250  Biso   1.000  C
  C52      1.0000 0.24436  0.08750  0.38250  Biso   1.000  C
  C53      1.0000 0.74436  0.41250  0.88250  Biso   1.000  C
  C54      1.0000 0.24436  0.91250  0.88250  Biso   1.000  C
  C55      1.0000 0.25564  0.41250  0.61750  Biso   1.000  C
  C56      1.0000 0.75564  0.91250  0.61750  Biso   1.000  C
  C57      1.0000 0.21512  0.56380  0.17980  Biso   1.000  C
  C58      1.0000 0.71512  0.06380  0.17980  Biso   1.000  C
  C59      1.0000 0.78488  0.56380  0.32020  Biso   1.000  C
  C60      1.0000 0.28488  0.06380  0.32020  Biso   1.000  C
  C61      1.0000 0.78488  0.43620  0.82020  Biso   1.000  C
  C62      1.0000 0.28488  0.93620  0.82020  Biso   1.000  C
  C63      1.0000 0.21512  0.43620  0.67980  Biso   1.000  C
  C64      1.0000 0.71512  0.93620  0.67980  Biso   1.000  C
  H9       1.0000 0.21890  0.54650  0.24550  Biso   1.000  H
  H10      1.0000 0.71890  0.04650  0.24550  Biso   1.000  H
  H11      1.0000 0.78110  0.54650  0.25450  Biso   1.000  H
  H12      1.0000 0.28110  0.04650  0.25450  Biso   1.000  H
  H13      1.0000 0.78110  0.45350  0.75450  Biso   1.000  H
  H14      1.0000 0.28110  0.95350  0.75450  Biso   1.000  H
  H15      1.0000 0.21890  0.45350  0.74550  Biso   1.000  H
  H16      1.0000 0.71890  0.95350  0.74550  Biso   1.000  H
  C65      1.0000 0.16799  0.57110  0.12200  Biso   1.000  C
  C66      1.0000 0.66799  0.07110  0.12200  Biso   1.000  C
  C67      1.0000 0.83201  0.57110  0.37800  Biso   1.000  C
  C68      1.0000 0.33201  0.07110  0.37800  Biso   1.000  C
  C69      1.0000 0.83201  0.42890  0.87800  Biso   1.000  C
  C70      1.0000 0.33201  0.92890  0.87800  Biso   1.000  C
  C71      1.0000 0.16799  0.42890  0.62200  Biso   1.000  C
  C72      1.0000 0.66799  0.92890  0.62200  Biso   1.000  C
  C73      1.0000 0.11036  0.55400  0.14570  Biso   1.000  C
  C74      1.0000 0.61036  0.05400  0.14570  Biso   1.000  C
  C75      1.0000 0.88964  0.55400  0.35430  Biso   1.000  C
  C76      1.0000 0.38964  0.05400  0.35430  Biso   1.000  C
  C77      1.0000 0.88964  0.44600  0.85430  Biso   1.000  C
  C78      1.0000 0.38964  0.94600  0.85430  Biso   1.000  C
  C79      1.0000 0.11036  0.44600  0.64570  Biso   1.000  C
  C80      1.0000 0.61036  0.94600  0.64570  Biso   1.000  C
  N17      1.0000 0.17887  0.59690  0.02960  Biso   1.000  N
  N18      1.0000 0.67887  0.09690  0.02960  Biso   1.000  N
  N19      1.0000 0.82113  0.59690  0.47040  Biso   1.000  N
  N20      1.0000 0.32113  0.09690  0.47040  Biso   1.000  N
  N21      1.0000 0.82113  0.40310  0.97040  Biso   1.000  N
  N22      1.0000 0.32113  0.90310  0.97040  Biso   1.000  N
  N23      1.0000 0.17887  0.40310  0.52960  Biso   1.000  N
  N24      1.0000 0.67887  0.90310  0.52960  Biso   1.000  N
  N25      1.0000 0.23303  0.60730  0.02800  Biso   1.000  N
  N26      1.0000 0.73303  0.10730  0.02800  Biso   1.000  N
  N27      1.0000 0.76697  0.60730  0.47200  Biso   1.000  N
  N28      1.0000 0.26697  0.10730  0.47200  Biso   1.000  N
  N29      1.0000 0.76697  0.39270  0.97200  Biso   1.000  N
  N30      1.0000 0.26697  0.89270  0.97200  Biso   1.000  N
  N31      1.0000 0.23303  0.39270  0.52800  Biso   1.000  N
  N32      1.0000 0.73303  0.89270  0.52800  Biso   1.000  N
  O33      1.0000 0.33832  0.62020  0.04490  Biso   1.000  O
  O34      1.0000 0.83832  0.12020  0.04490  Biso   1.000  O
  O35      1.0000 0.66168  0.62020  0.45510  Biso   1.000  O
  O36      1.0000 0.16168  0.12020  0.45510  Biso   1.000  O
  O37      1.0000 0.66168  0.37980  0.95510  Biso   1.000  O
  O38      1.0000 0.16168  0.87980  0.95510  Biso   1.000  O
  O39      1.0000 0.33832  0.37980  0.54490  Biso   1.000  O
  O40      1.0000 0.83832  0.87980  0.54490  Biso   1.000  O
  O41      1.0000 0.34128  0.57640  0.20290  Biso   1.000  O
  O42      1.0000 0.84128  0.07640  0.20290  Biso   1.000  O
  O43      1.0000 0.65872  0.57640  0.29710  Biso   1.000  O
  O44      1.0000 0.15872  0.07640  0.29710  Biso   1.000  O
  O45      1.0000 0.65872  0.42360  0.79710  Biso   1.000  O
  O46      1.0000 0.15872  0.92360  0.79710  Biso   1.000  O
  O47      1.0000 0.34128  0.42360  0.70290  Biso   1.000  O
  O48      1.0000 0.84128  0.92360  0.70290  Biso   1.000  O
  O49      1.0000 0.07653  0.55020  0.07160  Biso   1.000  O
  O50      1.0000 0.57653  0.05020  0.07160  Biso   1.000  O
  O51      1.0000 0.92347  0.55020  0.42840  Biso   1.000  O
  O52      1.0000 0.42347  0.05020  0.42840  Biso   1.000  O
  O53      1.0000 0.92347  0.44980  0.92840  Biso   1.000  O
  O54      1.0000 0.42347  0.94980  0.92840  Biso   1.000  O
  O55      1.0000 0.07653  0.44980  0.57160  Biso   1.000  O
  O56      1.0000 0.57653  0.94980  0.57160  Biso   1.000  O
  O57      1.0000 0.09755  0.54410  0.23280  Biso   1.000  O
  O58      1.0000 0.59755  0.04410  0.23280  Biso   1.000  O
  O59      1.0000 0.90245  0.54410  0.26720  Biso   1.000  O
  O60      1.0000 0.40245  0.04410  0.26720  Biso   1.000  O
  O61      1.0000 0.90245  0.45590  0.76720  Biso   1.000  O
  O62      1.0000 0.40245  0.95590  0.76720  Biso   1.000  O
  O63      1.0000 0.09755  0.45590  0.73280  Biso   1.000  O
  O64      1.0000 0.59755  0.95590  0.73280  Biso   1.000  O
  O65      1.0000 0.29181  0.46160  0.88830  Biso   1.000  O
  O66      1.0000 0.79181  0.96160  0.88830  Biso   1.000  O
  O67      1.0000 0.70819  0.46160  0.61170  Biso   1.000  O
  O68      1.0000 0.20819  0.96160  0.61170  Biso   1.000  O
  O69      1.0000 0.70819  0.53840  0.11170  Biso   1.000  O
  O70      1.0000 0.20819  0.03840  0.11170  Biso   1.000  O
  O71      1.0000 0.29181  0.53840  0.38830  Biso   1.000  O
  O72      1.0000 0.79181  0.03840  0.38830  Biso   1.000  O
  H17      1.0000 0.31240  0.42230  0.93540  Biso   1.000  H
  H18      1.0000 0.81240  0.92230  0.93540  Biso   1.000  H
  H19      1.0000 0.68760  0.42230  0.56460  Biso   1.000  H
  H20      1.0000 0.18760  0.92230  0.56460  Biso   1.000  H
  H21      1.0000 0.68760  0.57770  0.06460  Biso   1.000  H
  H22      1.0000 0.18760  0.07770  0.06460  Biso   1.000  H
  H23      1.0000 0.31240  0.57770  0.43540  Biso   1.000  H
  H24      1.0000 0.81240  0.07770  0.43540  Biso   1.000  H
  H25      1.0000 0.31290  0.46140  0.83100  Biso   1.000  H
  H26      1.0000 0.81290  0.96140  0.83100  Biso   1.000  H
  H27      1.0000 0.68710  0.46140  0.66900  Biso   1.000  H
  H28      1.0000 0.18710  0.96140  0.66900  Biso   1.000  H
  H29      1.0000 0.68710  0.53860  0.16900  Biso   1.000  H
  H30      1.0000 0.18710  0.03860  0.16900  Biso   1.000  H
  H31      1.0000 0.31290  0.53860  0.33100  Biso   1.000  H
  H32      1.0000 0.81290  0.03860  0.33100  Biso   1.000  H
  O73      1.0000 0.17774  0.42340  0.91020  Biso   1.000  O
  O74      1.0000 0.67774  0.92340  0.91020  Biso   1.000  O
  O75      1.0000 0.82226  0.42340  0.58980  Biso   1.000  O
  O76      1.0000 0.32226  0.92340  0.58980  Biso   1.000  O
  O77      1.0000 0.82226  0.57660  0.08980  Biso   1.000  O
  O78      1.0000 0.32226  0.07660  0.08980  Biso   1.000  O
  O79      1.0000 0.17774  0.57660  0.41020  Biso   1.000  O
  O80      1.0000 0.67774  0.07660  0.41020  Biso   1.000  O
  H33      1.0000 0.21640  0.43440  0.90970  Biso   1.000  H
  H34      1.0000 0.71640  0.93440  0.90970  Biso   1.000  H
  H35      1.0000 0.78360  0.43440  0.59030  Biso   1.000  H
  H36      1.0000 0.28360  0.93440  0.59030  Biso   1.000  H
  H37      1.0000 0.78360  0.56560  0.09030  Biso   1.000  H
  H38      1.0000 0.28360  0.06560  0.09030  Biso   1.000  H
  H39      1.0000 0.21640  0.56560  0.40970  Biso   1.000  H
  H40      1.0000 0.71640  0.06560  0.40970  Biso   1.000  H
  H41      1.0000 0.16920  0.36750  0.86870  Biso   1.000  H
  H42      1.0000 0.66920  0.86750  0.86870  Biso   1.000  H
  H43      1.0000 0.83080  0.36750  0.63130  Biso   1.000  H
  H44      1.0000 0.33080  0.86750  0.63130  Biso   1.000  H
  H45      1.0000 0.83080  0.63250  0.13130  Biso   1.000  H
  H46      1.0000 0.33080  0.13250  0.13130  Biso   1.000  H
  H47      1.0000 0.16920  0.63250  0.36870  Biso   1.000  H
  H48      1.0000 0.66920  0.13250  0.36870  Biso   1.000  H
  O81      1.0000 0.06573  0.38740  0.93140  Biso   1.000  O
  O82      1.0000 0.56573  0.88740  0.93140  Biso   1.000  O
  O83      1.0000 0.93427  0.38740  0.56860  Biso   1.000  O
  O84      1.0000 0.43427  0.88740  0.56860  Biso   1.000  O
  O85      1.0000 0.93427  0.61260  0.06860  Biso   1.000  O
  O86      1.0000 0.43427  0.11260  0.06860  Biso   1.000  O
  O87      1.0000 0.06573  0.61260  0.43140  Biso   1.000  O
  O88      1.0000 0.56573  0.11260  0.43140  Biso   1.000  O
  H49      1.0000 0.02790  0.37210  0.91840  Biso   1.000  H
  H50      1.0000 0.52790  0.87210  0.91840  Biso   1.000  H
  H51      1.0000 0.97210  0.37210  0.58160  Biso   1.000  H
  H52      1.0000 0.47210  0.87210  0.58160  Biso   1.000  H
  H53      1.0000 0.97210  0.62790  0.08160  Biso   1.000  H
  H54      1.0000 0.47210  0.12790  0.08160  Biso   1.000  H
  H55      1.0000 0.02790  0.62790  0.41840  Biso   1.000  H
  H56      1.0000 0.52790  0.12790  0.41840  Biso   1.000  H
  H57      1.0000 0.07060  0.35500  0.99360  Biso   1.000  H
  H58      1.0000 0.57060  0.85500  0.99360  Biso   1.000  H
  H59      1.0000 0.92940  0.35500  0.50640  Biso   1.000  H
  H60      1.0000 0.42940  0.85500  0.50640  Biso   1.000  H
  H61      1.0000 0.92940  0.64500  0.00640  Biso   1.000  H
  H62      1.0000 0.42940  0.14500  0.00640  Biso   1.000  H
  H63      1.0000 0.07060  0.64500  0.49360  Biso   1.000  H
  H64      1.0000 0.57060  0.14500  0.49360  Biso   1.000  H
  O89      1.0000 0.00636  0.56760  0.87530  Biso   1.000  O
  O90      1.0000 0.50636  0.06760  0.87530  Biso   1.000  O
  O91      1.0000 0.99364  0.56760  0.62470  Biso   1.000  O
  O92      1.0000 0.49364  0.06760  0.62470  Biso   1.000  O
  O93      1.0000 0.99364  0.43240  0.12470  Biso   1.000  O
  O94      1.0000 0.49364  0.93240  0.12470  Biso   1.000  O
  O95      1.0000 0.00636  0.43240  0.37530  Biso   1.000  O
  O96      1.0000 0.50636  0.93240  0.37530  Biso   1.000  O
  H65      1.0000 0.98380  0.61280  0.83730  Biso   1.000  H
  H66      1.0000 0.48380  0.11280  0.83730  Biso   1.000  H
  H67      1.0000 0.01620  0.61280  0.66270  Biso   1.000  H
  H68      1.0000 0.51620  0.11280  0.66270  Biso   1.000  H
  H69      1.0000 0.01620  0.38720  0.16270  Biso   1.000  H
  H70      1.0000 0.51620  0.88720  0.16270  Biso   1.000  H
  H71      1.0000 0.98380  0.38720  0.33730  Biso   1.000  H
  H72      1.0000 0.48380  0.88720  0.33730  Biso   1.000  H
  H73      1.0000 0.98160  0.51890  0.89920  Biso   1.000  H
  H74      1.0000 0.48160  0.01890  0.89920  Biso   1.000  H
  H75      1.0000 0.01840  0.51890  0.60080  Biso   1.000  H
  H76      1.0000 0.51840  0.01890  0.60080  Biso   1.000  H
  H77      1.0000 0.01840  0.48110  0.10080  Biso   1.000  H
  H78      1.0000 0.51840  0.98110  0.10080  Biso   1.000  H
  H79      1.0000 0.98160  0.48110  0.39920  Biso   1.000  H
  H80      1.0000 0.48160  0.98110  0.39920  Biso   1.000  H
  O97      1.0000 0.08418  0.73090  0.94490  Biso   1.000  O
  O98      1.0000 0.58418  0.23090  0.94490  Biso   1.000  O
  O99      1.0000 0.91582  0.73090  0.55510  Biso   1.000  O
  O100     1.0000 0.41582  0.23090  0.55510  Biso   1.000  O
  O101     1.0000 0.91582  0.26910  0.05510  Biso   1.000  O
  O102     1.0000 0.41582  0.76910  0.05510  Biso   1.000  O
  O103     1.0000 0.08418  0.26910  0.44490  Biso   1.000  O
  O104     1.0000 0.58418  0.76910  0.44490  Biso   1.000  O
  H81      1.0000 0.11290  0.75230  0.98830  Biso   1.000  H
  H82      1.0000 0.61290  0.25230  0.98830  Biso   1.000  H
  H83      1.0000 0.88710  0.75230  0.51170  Biso   1.000  H
  H84      1.0000 0.38710  0.25230  0.51170  Biso   1.000  H
  H85      1.0000 0.88710  0.24770  0.01170  Biso   1.000  H
  H86      1.0000 0.38710  0.74770  0.01170  Biso   1.000  H
  H87      1.0000 0.11290  0.24770  0.48830  Biso   1.000  H
  H88      1.0000 0.61290  0.74770  0.48830  Biso   1.000  H
  H89      1.0000 0.08340  0.78670  0.90290  Biso   1.000  H
  H90      1.0000 0.58340  0.28670  0.90290  Biso   1.000  H
  H91      1.0000 0.91660  0.78670  0.59710  Biso   1.000  H
  H92      1.0000 0.41660  0.28670  0.59710  Biso   1.000  H
  H93      1.0000 0.91660  0.21330  0.09710  Biso   1.000  H
  H94      1.0000 0.41660  0.71330  0.09710  Biso   1.000  H
  H95      1.0000 0.08340  0.21330  0.40290  Biso   1.000  H
  H96      1.0000 0.58340  0.71330  0.40290  Biso   1.000  H
  O105     1.0000 0.43310  0.50130  0.50250  Biso   1.000  O
  O106     1.0000 0.93310  0.00130  0.50250  Biso   1.000  O
  O107     1.0000 0.56690  0.50130  0.99750  Biso   1.000  O
  O108     1.0000 0.06690  0.00130  0.99750  Biso   1.000  O
  O109     1.0000 0.56690  0.49870  0.49750  Biso   1.000  O
  O110     1.0000 0.06690  0.99870  0.49750  Biso   1.000  O
  O111     1.0000 0.43310  0.49870  0.00250  Biso   1.000  O
  O112     1.0000 0.93310  0.99870  0.00250  Biso   1.000  O
  H97      1.0000 0.40800  0.45200  0.52410  Biso   1.000  H
  H98      1.0000 0.90800  0.95200  0.52410  Biso   1.000  H
  H99      1.0000 0.59200  0.45200  0.97590  Biso   1.000  H
  H100     1.0000 0.09200  0.95200  0.97590  Biso   1.000  H
  H101     1.0000 0.59200  0.54800  0.47590  Biso   1.000  H
  H102     1.0000 0.09200  0.04800  0.47590  Biso   1.000  H
  H103     1.0000 0.40800  0.54800  0.02410  Biso   1.000  H
  H104     1.0000 0.90800  0.04800  0.02410  Biso   1.000  H
  H105     1.0000 0.41060  0.55880  0.51190  Biso   1.000  H
  H106     1.0000 0.91060  0.05880  0.51190  Biso   1.000  H
  H107     1.0000 0.58940  0.55880  0.98810  Biso   1.000  H
  H108     1.0000 0.08940  0.05880  0.98810  Biso   1.000  H
  H109     1.0000 0.58940  0.44120  0.48810  Biso   1.000  H
  H110     1.0000 0.08940  0.94120  0.48810  Biso   1.000  H
  H111     1.0000 0.41060  0.44120  0.01190  Biso   1.000  H
  H112     1.0000 0.91060  0.94120  0.01190  Biso   1.000  H
  O113     1.0000 0.43335  0.54090  0.73460  Biso   1.000  O
  O114     1.0000 0.93335  0.04090  0.73460  Biso   1.000  O
  O115     1.0000 0.56665  0.54090  0.76540  Biso   1.000  O
  O116     1.0000 0.06665  0.04090  0.76540  Biso   1.000  O
  O117     1.0000 0.56665  0.45910  0.26540  Biso   1.000  O
  O118     1.0000 0.06665  0.95910  0.26540  Biso   1.000  O
  O119     1.0000 0.43335  0.45910  0.23460  Biso   1.000  O
  O120     1.0000 0.93335  0.95910  0.23460  Biso   1.000  O
  H113     1.0000 0.40570  0.49110  0.72410  Biso   1.000  H
  H114     1.0000 0.90570  0.99110  0.72410  Biso   1.000  H
  H115     1.0000 0.59430  0.49110  0.77590  Biso   1.000  H
  H116     1.0000 0.09430  0.99110  0.77590  Biso   1.000  H
  H117     1.0000 0.59430  0.50890  0.27590  Biso   1.000  H
  H118     1.0000 0.09430  0.00890  0.27590  Biso   1.000  H
  H119     1.0000 0.40570  0.50890  0.22410  Biso   1.000  H
  H120     1.0000 0.90570  0.00890  0.22410  Biso   1.000  H
  H121     1.0000 0.40960  0.59670  0.74280  Biso   1.000  H
  H122     1.0000 0.90960  0.09670  0.74280  Biso   1.000  H
  H123     1.0000 0.59040  0.59670  0.75720  Biso   1.000  H
  H124     1.0000 0.09040  0.09670  0.75720  Biso   1.000  H
  H125     1.0000 0.59040  0.40330  0.25720  Biso   1.000  H
  H126     1.0000 0.09040  0.90330  0.25720  Biso   1.000  H
  H127     1.0000 0.40960  0.40330  0.24280  Biso   1.000  H
  H128     1.0000 0.90960  0.90330  0.24280  Biso   1.000  H
  O121     1.0000 0.50182  0.33990  0.64860  Biso   1.000  O
  O122     1.0000 0.00182  0.83990  0.64860  Biso   1.000  O
  O123     1.0000 0.49818  0.33990  0.85140  Biso   1.000  O
  O124     1.0000 0.99818  0.83990  0.85140  Biso   1.000  O
  O125     1.0000 0.49818  0.66010  0.35140  Biso   1.000  O
  O126     1.0000 0.99818  0.16010  0.35140  Biso   1.000  O
  O127     1.0000 0.50182  0.66010  0.14860  Biso   1.000  O
  O128     1.0000 0.00182  0.16010  0.14860  Biso   1.000  O
  H129     1.0000 0.50300  0.31150  0.58560  Biso   1.000  H
  H130     1.0000 0.00300  0.81150  0.58560  Biso   1.000  H
  H131     1.0000 0.49700  0.31150  0.91440  Biso   1.000  H
  H132     1.0000 0.99700  0.81150  0.91440  Biso   1.000  H
  H133     1.0000 0.49700  0.68850  0.41440  Biso   1.000  H
  H134     1.0000 0.99700  0.18850  0.41440  Biso   1.000  H
  H135     1.0000 0.50300  0.68850  0.08560  Biso   1.000  H
  H136     1.0000 0.00300  0.18850  0.08560  Biso   1.000  H
  H137     1.0000 0.53580  0.31260  0.67200  Biso   1.000  H
  H138     1.0000 0.03580  0.81260  0.67200  Biso   1.000  H
  H139     1.0000 0.46420  0.31260  0.82800  Biso   1.000  H
  H140     1.0000 0.96420  0.81260  0.82800  Biso   1.000  H
  H141     1.0000 0.46420  0.68740  0.32800  Biso   1.000  H
  H142     1.0000 0.96420  0.18740  0.32800  Biso   1.000  H
  H143     1.0000 0.53580  0.68740  0.17200  Biso   1.000  H
  H144     1.0000 0.03580  0.18740  0.17200  Biso   1.000  H
  O129     1.0000 0.54740  0.70120  0.62250  Biso   1.000  O
  O130     1.0000 0.04740  0.20120  0.62250  Biso   1.000  O
  O131     1.0000 0.45260  0.70120  0.87750  Biso   1.000  O
  O132     1.0000 0.95260  0.20120  0.87750  Biso   1.000  O
  O133     1.0000 0.45260  0.29880  0.37750  Biso   1.000  O
  O134     1.0000 0.95260  0.79880  0.37750  Biso   1.000  O
  O135     1.0000 0.54740  0.29880  0.12250  Biso   1.000  O
  O136     1.0000 0.04740  0.79880  0.12250  Biso   1.000  O
  H145     1.0000 0.58620  0.69770  0.63470  Biso   1.000  H
  H146     1.0000 0.08620  0.19770  0.63470  Biso   1.000  H
  H147     1.0000 0.41380  0.69770  0.86530  Biso   1.000  H
  H148     1.0000 0.91380  0.19770  0.86530  Biso   1.000  H
  H149     1.0000 0.41380  0.30230  0.36530  Biso   1.000  H
  H150     1.0000 0.91380  0.80230  0.36530  Biso   1.000  H
  H151     1.0000 0.58620  0.30230  0.13470  Biso   1.000  H
  H152     1.0000 0.08620  0.80230  0.13470  Biso   1.000  H
  H153     1.0000 0.53140  0.74020  0.67260  Biso   1.000  H
  H154     1.0000 0.03140  0.24020  0.67260  Biso   1.000  H
  H155     1.0000 0.46860  0.74020  0.82740  Biso   1.000  H
  H156     1.0000 0.96860  0.24020  0.82740  Biso   1.000  H
  H157     1.0000 0.46860  0.25980  0.32740  Biso   1.000  H
  H158     1.0000 0.96860  0.75980  0.32740  Biso   1.000  H
  H159     1.0000 0.53140  0.25980  0.17260  Biso   1.000  H
  H160     1.0000 0.03140  0.75980  0.17260  Biso   1.000  H
  O137     1.0000 0.51110  0.69620  0.59950  Biso   1.000  O
  O138     1.0000 0.01110  0.19620  0.59950  Biso   1.000  O
  O139     1.0000 0.48890  0.69620  0.90050  Biso   1.000  O
  O140     1.0000 0.98890  0.19620  0.90050  Biso   1.000  O
  O141     1.0000 0.48890  0.30380  0.40050  Biso   1.000  O
  O142     1.0000 0.98890  0.80380  0.40050  Biso   1.000  O
  O143     1.0000 0.51110  0.30380  0.09950  Biso   1.000  O
  O144     1.0000 0.01110  0.80380  0.09950  Biso   1.000  O
  H161     1.0000 0.54830  0.71290  0.58850  Biso   1.000  H
  H162     1.0000 0.04830  0.21290  0.58850  Biso   1.000  H
  H163     1.0000 0.45170  0.71290  0.91150  Biso   1.000  H
  H164     1.0000 0.95170  0.21290  0.91150  Biso   1.000  H
  H165     1.0000 0.45170  0.28710  0.41150  Biso   1.000  H
  H166     1.0000 0.95170  0.78710  0.41150  Biso   1.000  H
  H167     1.0000 0.54830  0.28710  0.08850  Biso   1.000  H
  H168     1.0000 0.04830  0.78710  0.08850  Biso   1.000  H
  H169     1.0000 0.50440  0.72300  0.66170  Biso   1.000  H
  H170     1.0000 0.00440  0.22300  0.66170  Biso   1.000  H
  H171     1.0000 0.49560  0.72300  0.83830  Biso   1.000  H
  H172     1.0000 0.99560  0.22300  0.83830  Biso   1.000  H
  H173     1.0000 0.49560  0.27700  0.33830  Biso   1.000  H
  H174     1.0000 0.99560  0.77700  0.33830  Biso   1.000  H
  H175     1.0000 0.50440  0.27700  0.16170  Biso   1.000  H
  H176     1.0000 0.00440  0.77700  0.16170  Biso   1.000  H
  O145     1.0000 0.14453  0.85110  0.48930  Biso   1.000  O
  O146     1.0000 0.64453  0.35110  0.48930  Biso   1.000  O
  O147     1.0000 0.85547  0.85110  0.01070  Biso   1.000  O
  O148     1.0000 0.35547  0.35110  0.01070  Biso   1.000  O
  O149     1.0000 0.85547  0.14890  0.51070  Biso   1.000  O
  O150     1.0000 0.35547  0.64890  0.51070  Biso   1.000  O
  O151     1.0000 0.14453  0.14890  0.98930  Biso   1.000  O
  O152     1.0000 0.64453  0.64890  0.98930  Biso   1.000  O
  H177     1.0000 0.13190  0.79970  0.53160  Biso   1.000  H
  H178     1.0000 0.63190  0.29970  0.53160  Biso   1.000  H
  H179     1.0000 0.86810  0.79970  0.96840  Biso   1.000  H
  H180     1.0000 0.36810  0.29970  0.96840  Biso   1.000  H
  H181     1.0000 0.86810  0.20030  0.46840  Biso   1.000  H
  H182     1.0000 0.36810  0.70030  0.46840  Biso   1.000  H
  H183     1.0000 0.13190  0.20030  0.03160  Biso   1.000  H
  H184     1.0000 0.63190  0.70030  0.03160  Biso   1.000  H
  H185     1.0000 0.14860  0.82640  0.42430  Biso   1.000  H
  H186     1.0000 0.64860  0.32640  0.42430  Biso   1.000  H
  H187     1.0000 0.85140  0.82640  0.07570  Biso   1.000  H
  H188     1.0000 0.35140  0.32640  0.07570  Biso   1.000  H
  H189     1.0000 0.85140  0.17360  0.57570  Biso   1.000  H
  H190     1.0000 0.35140  0.67360  0.57570  Biso   1.000  H
  H191     1.0000 0.14860  0.17360  0.92430  Biso   1.000  H
  H192     1.0000 0.64860  0.67360  0.92430  Biso   1.000  H
  O153     1.0000 0.00000  0.34120  0.75000  Biso   1.000  O
  O154     1.0000 0.50000  0.84120  0.75000  Biso   1.000  O
  O155     1.0000 0.00000  0.65880  0.25000  Biso   1.000  O
  O156     1.0000 0.50000  0.15880  0.25000  Biso   1.000  O
  H193     1.0000 0.03420  0.30950  0.76640  Biso   1.000  H
  H194     1.0000 0.53420  0.80950  0.76640  Biso   1.000  H
  H195     1.0000 0.96580  0.30950  0.73360  Biso   1.000  H
  H196     1.0000 0.46580  0.80950  0.73360  Biso   1.000  H
  H197     1.0000 0.96580  0.69050  0.23360  Biso   1.000  H
  H198     1.0000 0.46580  0.19050  0.23360  Biso   1.000  H
  H199     1.0000 0.03420  0.69050  0.26640  Biso   1.000  H
  H200     1.0000 0.53420  0.19050  0.26640  Biso   1.000  H
  H201     1.0000 0.99510  0.40790  0.77310  Biso   1.000  H
  H202     1.0000 0.49510  0.90790  0.77310  Biso   1.000  H
  H203     1.0000 0.00490  0.40790  0.72690  Biso   1.000  H
  H204     1.0000 0.50490  0.90790  0.72690  Biso   1.000  H
  H205     1.0000 0.00490  0.59210  0.22690  Biso   1.000  H
  H206     1.0000 0.50490  0.09210  0.22690  Biso   1.000  H
  H207     1.0000 0.99510  0.59210  0.27310  Biso   1.000  H
  H208     1.0000 0.49510  0.09210  0.27310  Biso   1.000  H
