data_image0
_cell_length_a       24.441
_cell_length_b       13.388
_cell_length_c       13.608
_cell_angle_alpha    90
_cell_angle_beta     92.48
_cell_angle_gamma    90

_symmetry_space_group_name_H-M    "P 1"
_symmetry_int_tables_number       1

loop_
  _symmetry_equiv_pos_as_xyz
  'x, y, z'

loop_
  _atom_site_label
  _atom_site_occupancy
  _atom_site_fract_x
  _atom_site_fract_y
  _atom_site_fract_z
  _atom_site_thermal_displace_type
  _atom_site_B_iso_or_equiv
  _atom_site_type_symbol
  Na1      1.0000 0.49377  0.47889  0.87614  Biso   1.000  Na
  Na2      1.0000 0.99377  0.97889  0.87614  Biso   1.000  Na
  Na3      1.0000 0.50623  0.47889  0.62386  Biso   1.000  Na
  Na4      1.0000 0.00623  0.97889  0.62386  Biso   1.000  Na
  Na5      1.0000 0.50623  0.52111  0.12386  Biso   1.000  Na
  Na6      1.0000 0.00623  0.02111  0.12386  Biso   1.000  Na
  Na7      1.0000 0.49377  0.52111  0.37614  Biso   1.000  Na
  Na8      1.0000 0.99377  0.02111  0.37614  Biso   1.000  Na
  Cu1      1.0000 0.28536  0.62985  0.42946  Biso   1.000  Cu
  Cu2      1.0000 0.78536  0.12985  0.42946  Biso   1.000  Cu
  Cu3      1.0000 0.71464  0.62985  0.07054  Biso   1.000  Cu
  Cu4      1.0000 0.21464  0.12985  0.07054  Biso   1.000  Cu
  Cu5      1.0000 0.71464  0.37015  0.57054  Biso   1.000  Cu
  Cu6      1.0000 0.21464  0.87015  0.57054  Biso   1.000  Cu
  Cu7      1.0000 0.28536  0.37015  0.92946  Biso   1.000  Cu
  Cu8      1.0000 0.78536  0.87015  0.92946  Biso   1.000  Cu
  Sm1      1.0000 0.10522  0.55675  0.39351  Biso   1.000  Sm
  Sm2      1.0000 0.60522  0.05675  0.39351  Biso   1.000  Sm
  Sm3      1.0000 0.89478  0.55675  0.10649  Biso   1.000  Sm
  Sm4      1.0000 0.39478  0.05675  0.10649  Biso   1.000  Sm
  Sm5      1.0000 0.89478  0.44325  0.60649  Biso   1.000  Sm
  Sm6      1.0000 0.39478  0.94325  0.60649  Biso   1.000  Sm
  Sm7      1.0000 0.10521  0.44325  0.89351  Biso   1.000  Sm
  Sm8      1.0000 0.60522  0.94325  0.89351  Biso   1.000  Sm
  C1       1.0000 0.31578  0.59530  0.62620  Biso   1.000  C
  C2       1.0000 0.81578  0.09530  0.62620  Biso   1.000  C
  C3       1.0000 0.68422  0.59530  0.87380  Biso   1.000  C
  C4       1.0000 0.18422  0.09530  0.87380  Biso   1.000  C
  C5       1.0000 0.68422  0.40470  0.37380  Biso   1.000  C
  C6       1.0000 0.18422  0.90470  0.37380  Biso   1.000  C
  C7       1.0000 0.31578  0.40470  0.12620  Biso   1.000  C
  C8       1.0000 0.81578  0.90470  0.12620  Biso   1.000  C
  C9       1.0000 0.25564  0.58830  0.61780  Biso   1.000  C
  C10      1.0000 0.75564  0.08830  0.61780  Biso   1.000  C
  C11      1.0000 0.74436  0.58830  0.88220  Biso   1.000  C
  C12      1.0000 0.24436  0.08830  0.88220  Biso   1.000  C
  C13      1.0000 0.74436  0.41170  0.38220  Biso   1.000  C
  C14      1.0000 0.24436  0.91170  0.38220  Biso   1.000  C
  C15      1.0000 0.25564  0.41170  0.11780  Biso   1.000  C
  C16      1.0000 0.75564  0.91170  0.11780  Biso   1.000  C
  C17      1.0000 0.21493  0.56410  0.68020  Biso   1.000  C
  C18      1.0000 0.71493  0.06410  0.68020  Biso   1.000  C
  C19      1.0000 0.78507  0.56410  0.81980  Biso   1.000  C
  C20      1.0000 0.28507  0.06410  0.81980  Biso   1.000  C
  C21      1.0000 0.78507  0.43590  0.31980  Biso   1.000  C
  C22      1.0000 0.28507  0.93590  0.31980  Biso   1.000  C
  C23      1.0000 0.21493  0.43590  0.18020  Biso   1.000  C
  C24      1.0000 0.71493  0.93590  0.18020  Biso   1.000  C
  H1       1.0000 0.21860  0.54710  0.74640  Biso   1.000  H
  H2       1.0000 0.71860  0.04710  0.74640  Biso   1.000  H
  H3       1.0000 0.78140  0.54710  0.75360  Biso   1.000  H
  H4       1.0000 0.28140  0.04710  0.75360  Biso   1.000  H
  H5       1.0000 0.78140  0.45290  0.25360  Biso   1.000  H
  H6       1.0000 0.28140  0.95290  0.25360  Biso   1.000  H
  H7       1.0000 0.21860  0.45290  0.24640  Biso   1.000  H
  H8       1.0000 0.71860  0.95290  0.24640  Biso   1.000  H
  C25      1.0000 0.16744  0.57060  0.62210  Biso   1.000  C
  C26      1.0000 0.66744  0.07060  0.62210  Biso   1.000  C
  C27      1.0000 0.83256  0.57060  0.87790  Biso   1.000  C
  C28      1.0000 0.33256  0.07060  0.87790  Biso   1.000  C
  C29      1.0000 0.83256  0.42940  0.37790  Biso   1.000  C
  C30      1.0000 0.33256  0.92940  0.37790  Biso   1.000  C
  C31      1.0000 0.16744  0.42940  0.12210  Biso   1.000  C
  C32      1.0000 0.66744  0.92940  0.12210  Biso   1.000  C
  C33      1.0000 0.11002  0.55250  0.64480  Biso   1.000  C
  C34      1.0000 0.61002  0.05250  0.64480  Biso   1.000  C
  C35      1.0000 0.88998  0.55250  0.85520  Biso   1.000  C
  C36      1.0000 0.38998  0.05250  0.85520  Biso   1.000  C
  C37      1.0000 0.88998  0.44750  0.35520  Biso   1.000  C
  C38      1.0000 0.38998  0.94750  0.35520  Biso   1.000  C
  C39      1.0000 0.11002  0.44750  0.14480  Biso   1.000  C
  C40      1.0000 0.61002  0.94750  0.14480  Biso   1.000  C
  C41      1.0000 0.31680  0.70510  0.25150  Biso   1.000  C
  C42      1.0000 0.81680  0.20510  0.25150  Biso   1.000  C
  C43      1.0000 0.68320  0.70510  0.24850  Biso   1.000  C
  C44      1.0000 0.18320  0.20510  0.24850  Biso   1.000  C
  C45      1.0000 0.68320  0.29490  0.74850  Biso   1.000  C
  C46      1.0000 0.18320  0.79490  0.74850  Biso   1.000  C
  C47      1.0000 0.31680  0.29490  0.75150  Biso   1.000  C
  C48      1.0000 0.81680  0.79490  0.75150  Biso   1.000  C
  C49      1.0000 0.25683  0.69240  0.24190  Biso   1.000  C
  C50      1.0000 0.75683  0.19240  0.24190  Biso   1.000  C
  C51      1.0000 0.74317  0.69240  0.25810  Biso   1.000  C
  C52      1.0000 0.24317  0.19240  0.25810  Biso   1.000  C
  C53      1.0000 0.74317  0.30760  0.75810  Biso   1.000  C
  C54      1.0000 0.24317  0.80760  0.75810  Biso   1.000  C
  C55      1.0000 0.25683  0.30760  0.74190  Biso   1.000  C
  C56      1.0000 0.75683  0.80760  0.74190  Biso   1.000  C
  C57      1.0000 0.21544  0.71270  0.17080  Biso   1.000  C
  C58      1.0000 0.71544  0.21270  0.17080  Biso   1.000  C
  C59      1.0000 0.78456  0.71270  0.32920  Biso   1.000  C
  C60      1.0000 0.28456  0.21270  0.32920  Biso   1.000  C
  C61      1.0000 0.78456  0.28730  0.82920  Biso   1.000  C
  C62      1.0000 0.28456  0.78730  0.82920  Biso   1.000  C
  C63      1.0000 0.21544  0.28730  0.67080  Biso   1.000  C
  C64      1.0000 0.71544  0.78730  0.67080  Biso   1.000  C
  H9       1.0000 0.21880  0.73910  0.10820  Biso   1.000  H
  H10      1.0000 0.71880  0.23910  0.10820  Biso   1.000  H
  H11      1.0000 0.78120  0.73910  0.39180  Biso   1.000  H
  H12      1.0000 0.28120  0.23910  0.39180  Biso   1.000  H
  H13      1.0000 0.78120  0.26090  0.89180  Biso   1.000  H
  H14      1.0000 0.28120  0.76090  0.89180  Biso   1.000  H
  H15      1.0000 0.21880  0.26090  0.60820  Biso   1.000  H
  H16      1.0000 0.71880  0.76090  0.60820  Biso   1.000  H
  C65      1.0000 0.16837  0.68410  0.21570  Biso   1.000  C
  C66      1.0000 0.66837  0.18410  0.21570  Biso   1.000  C
  C67      1.0000 0.83163  0.68410  0.28430  Biso   1.000  C
  C68      1.0000 0.33163  0.18410  0.28430  Biso   1.000  C
  C69      1.0000 0.83163  0.31590  0.78430  Biso   1.000  C
  C70      1.0000 0.33163  0.81590  0.78430  Biso   1.000  C
  C71      1.0000 0.16837  0.31590  0.71570  Biso   1.000  C
  C72      1.0000 0.66837  0.81590  0.71570  Biso   1.000  C
  C73      1.0000 0.10934  0.68870  0.18610  Biso   1.000  C
  C74      1.0000 0.60934  0.18870  0.18610  Biso   1.000  C
  C75      1.0000 0.89066  0.68870  0.31390  Biso   1.000  C
  C76      1.0000 0.39066  0.18870  0.31390  Biso   1.000  C
  C77      1.0000 0.89066  0.31130  0.81390  Biso   1.000  C
  C78      1.0000 0.39066  0.81130  0.81390  Biso   1.000  C
  C79      1.0000 0.10934  0.31130  0.68610  Biso   1.000  C
  C80      1.0000 0.60934  0.81130  0.68610  Biso   1.000  C
  N1       1.0000 0.23278  0.60730  0.52770  Biso   1.000  N
  N2       1.0000 0.73278  0.10730  0.52770  Biso   1.000  N
  N3       1.0000 0.76722  0.60730  0.97230  Biso   1.000  N
  N4       1.0000 0.26722  0.10730  0.97230  Biso   1.000  N
  N5       1.0000 0.76722  0.39270  0.47230  Biso   1.000  N
  N6       1.0000 0.26722  0.89270  0.47230  Biso   1.000  N
  N7       1.0000 0.23278  0.39270  0.02770  Biso   1.000  N
  N8       1.0000 0.73278  0.89270  0.02770  Biso   1.000  N
  N9       1.0000 0.17855  0.59610  0.52920  Biso   1.000  N
  N10      1.0000 0.67855  0.09610  0.52920  Biso   1.000  N
  N11      1.0000 0.82145  0.59610  0.97080  Biso   1.000  N
  N12      1.0000 0.32145  0.09610  0.97080  Biso   1.000  N
  N13      1.0000 0.82145  0.40390  0.47080  Biso   1.000  N
  N14      1.0000 0.32145  0.90390  0.47080  Biso   1.000  N
  N15      1.0000 0.17855  0.40390  0.02920  Biso   1.000  N
  N16      1.0000 0.67855  0.90390  0.02920  Biso   1.000  N
  N17      1.0000 0.23410  0.65470  0.32170  Biso   1.000  N
  N18      1.0000 0.73410  0.15470  0.32170  Biso   1.000  N
  N19      1.0000 0.76590  0.65470  0.17830  Biso   1.000  N
  N20      1.0000 0.26590  0.15470  0.17830  Biso   1.000  N
  N21      1.0000 0.76590  0.34530  0.67830  Biso   1.000  N
  N22      1.0000 0.26590  0.84530  0.67830  Biso   1.000  N
  N23      1.0000 0.23410  0.34530  0.82170  Biso   1.000  N
  N24      1.0000 0.73410  0.84530  0.82170  Biso   1.000  N
  N25      1.0000 0.17999  0.64810  0.30720  Biso   1.000  N
  N26      1.0000 0.67999  0.14810  0.30720  Biso   1.000  N
  N27      1.0000 0.82001  0.64810  0.19280  Biso   1.000  N
  N28      1.0000 0.32001  0.14810  0.19280  Biso   1.000  N
  N29      1.0000 0.82001  0.35190  0.69280  Biso   1.000  N
  N30      1.0000 0.32001  0.85190  0.69280  Biso   1.000  N
  N31      1.0000 0.17999  0.35190  0.80720  Biso   1.000  N
  N32      1.0000 0.67999  0.85190  0.80720  Biso   1.000  N
  O1       1.0000 0.33820  0.62090  0.54484  Biso   1.000  O
  O2       1.0000 0.83820  0.12090  0.54484  Biso   1.000  O
  O3       1.0000 0.66180  0.62090  0.95516  Biso   1.000  O
  O4       1.0000 0.16180  0.12090  0.95516  Biso   1.000  O
  O5       1.0000 0.66180  0.37910  0.45516  Biso   1.000  O
  O6       1.0000 0.16180  0.87910  0.45516  Biso   1.000  O
  O7       1.0000 0.33820  0.37910  0.04484  Biso   1.000  O
  O8       1.0000 0.83820  0.87910  0.04484  Biso   1.000  O
  O9       1.0000 0.34096  0.57740  0.70370  Biso   1.000  O
  O10      1.0000 0.84096  0.07740  0.70370  Biso   1.000  O
  O11      1.0000 0.65904  0.57740  0.79630  Biso   1.000  O
  O12      1.0000 0.15904  0.07740  0.79630  Biso   1.000  O
  O13      1.0000 0.65904  0.42260  0.29630  Biso   1.000  O
  O14      1.0000 0.15904  0.92260  0.29630  Biso   1.000  O
  O15      1.0000 0.34096  0.42260  0.20370  Biso   1.000  O
  O16      1.0000 0.84096  0.92260  0.20370  Biso   1.000  O
  O17      1.0000 0.07637  0.54880  0.57116  Biso   1.000  O
  O18      1.0000 0.57637  0.04880  0.57116  Biso   1.000  O
  O19      1.0000 0.92363  0.54880  0.92884  Biso   1.000  O
  O20      1.0000 0.42363  0.04880  0.92884  Biso   1.000  O
  O21      1.0000 0.92363  0.45120  0.42884  Biso   1.000  O
  O22      1.0000 0.42363  0.95120  0.42884  Biso   1.000  O
  O23      1.0000 0.07637  0.45120  0.07116  Biso   1.000  O
  O24      1.0000 0.57637  0.95120  0.07116  Biso   1.000  O
  O25      1.0000 0.09706  0.54336  0.73251  Biso   1.000  O
  O26      1.0000 0.59706  0.04336  0.73251  Biso   1.000  O
  O27      1.0000 0.90294  0.54336  0.76749  Biso   1.000  O
  O28      1.0000 0.40294  0.04336  0.76749  Biso   1.000  O
  O29      1.0000 0.90294  0.45664  0.26749  Biso   1.000  O
  O30      1.0000 0.40294  0.95664  0.26749  Biso   1.000  O
  O31      1.0000 0.09706  0.45664  0.23251  Biso   1.000  O
  O32      1.0000 0.59706  0.95664  0.23251  Biso   1.000  O
  O33      1.0000 0.33855  0.67720  0.33500  Biso   1.000  O
  O34      1.0000 0.83855  0.17720  0.33500  Biso   1.000  O
  O35      1.0000 0.66145  0.67720  0.16500  Biso   1.000  O
  O36      1.0000 0.16145  0.17720  0.16500  Biso   1.000  O
  O37      1.0000 0.66145  0.32280  0.66500  Biso   1.000  O
  O38      1.0000 0.16145  0.82280  0.66500  Biso   1.000  O
  O39      1.0000 0.33855  0.32280  0.83500  Biso   1.000  O
  O40      1.0000 0.83855  0.82280  0.83500  Biso   1.000  O
  O41      1.0000 0.34361  0.73940  0.18430  Biso   1.000  O
  O42      1.0000 0.84361  0.23940  0.18430  Biso   1.000  O
  O43      1.0000 0.65639  0.73940  0.31570  Biso   1.000  O
  O44      1.0000 0.15639  0.23940  0.31570  Biso   1.000  O
  O45      1.0000 0.65639  0.26060  0.81570  Biso   1.000  O
  O46      1.0000 0.15639  0.76060  0.81570  Biso   1.000  O
  O47      1.0000 0.34361  0.26060  0.68430  Biso   1.000  O
  O48      1.0000 0.84361  0.76060  0.68430  Biso   1.000  O
  O49      1.0000 0.07589  0.65800  0.24727  Biso   1.000  O
  O50      1.0000 0.57589  0.15800  0.24727  Biso   1.000  O
  O51      1.0000 0.92411  0.65800  0.25273  Biso   1.000  O
  O52      1.0000 0.42411  0.15800  0.25273  Biso   1.000  O
  O53      1.0000 0.92411  0.34200  0.75273  Biso   1.000  O
  O54      1.0000 0.42411  0.84200  0.75273  Biso   1.000  O
  O55      1.0000 0.07589  0.34200  0.74727  Biso   1.000  O
  O56      1.0000 0.57589  0.84200  0.74727  Biso   1.000  O
  O57      1.0000 0.09478  0.72200  0.10289  Biso   1.000  O
  O58      1.0000 0.59478  0.22200  0.10289  Biso   1.000  O
  O59      1.0000 0.90522  0.72200  0.39711  Biso   1.000  O
  O60      1.0000 0.40522  0.22200  0.39711  Biso   1.000  O
  O61      1.0000 0.90522  0.27800  0.89711  Biso   1.000  O
  O62      1.0000 0.40522  0.77800  0.89711  Biso   1.000  O
  O63      1.0000 0.09478  0.27800  0.60289  Biso   1.000  O
  O64      1.0000 0.59478  0.77800  0.60289  Biso   1.000  O
  O65      1.0000 0.29187  0.46160  0.38880  Biso   1.000  O
  O66      1.0000 0.79187  0.96160  0.38880  Biso   1.000  O
  O67      1.0000 0.70813  0.46160  0.11120  Biso   1.000  O
  O68      1.0000 0.20813  0.96160  0.11120  Biso   1.000  O
  O69      1.0000 0.70813  0.53840  0.61120  Biso   1.000  O
  O70      1.0000 0.20813  0.03840  0.61120  Biso   1.000  O
  O71      1.0000 0.29187  0.53840  0.88880  Biso   1.000  O
  O72      1.0000 0.79187  0.03840  0.88880  Biso   1.000  O
  H17      1.0000 0.31020  0.45700  0.32790  Biso   1.000  H
  H18      1.0000 0.81020  0.95700  0.32790  Biso   1.000  H
  H19      1.0000 0.68980  0.45700  0.17210  Biso   1.000  H
  H20      1.0000 0.18980  0.95700  0.17210  Biso   1.000  H
  H21      1.0000 0.68980  0.54300  0.67210  Biso   1.000  H
  H22      1.0000 0.18980  0.04300  0.67210  Biso   1.000  H
  H23      1.0000 0.31020  0.54300  0.82790  Biso   1.000  H
  H24      1.0000 0.81020  0.04300  0.82790  Biso   1.000  H
  H25      1.0000 0.30990  0.42290  0.44000  Biso   1.000  H
  H26      1.0000 0.80990  0.92290  0.44000  Biso   1.000  H
  H27      1.0000 0.69010  0.42290  0.06000  Biso   1.000  H
  H28      1.0000 0.19010  0.92290  0.06000  Biso   1.000  H
  H29      1.0000 0.69010  0.57710  0.56000  Biso   1.000  H
  H30      1.0000 0.19010  0.07710  0.56000  Biso   1.000  H
  H31      1.0000 0.30990  0.57710  0.94000  Biso   1.000  H
  H32      1.0000 0.80990  0.07710  0.94000  Biso   1.000  H
  O73      1.0000 0.17677  0.42600  0.40920  Biso   1.000  O
  O74      1.0000 0.67677  0.92600  0.40920  Biso   1.000  O
  O75      1.0000 0.82323  0.42600  0.09080  Biso   1.000  O
  O76      1.0000 0.32323  0.92600  0.09080  Biso   1.000  O
  O77      1.0000 0.82323  0.57400  0.59080  Biso   1.000  O
  O78      1.0000 0.32323  0.07400  0.59080  Biso   1.000  O
  O79      1.0000 0.17677  0.57400  0.90920  Biso   1.000  O
  O80      1.0000 0.67677  0.07400  0.90920  Biso   1.000  O
  H33      1.0000 0.21520  0.44130  0.41420  Biso   1.000  H
  H34      1.0000 0.71520  0.94130  0.41420  Biso   1.000  H
  H35      1.0000 0.78480  0.44130  0.08580  Biso   1.000  H
  H36      1.0000 0.28480  0.94130  0.08580  Biso   1.000  H
  H37      1.0000 0.78480  0.55870  0.58580  Biso   1.000  H
  H38      1.0000 0.28480  0.05870  0.58580  Biso   1.000  H
  H39      1.0000 0.21520  0.55870  0.91420  Biso   1.000  H
  H40      1.0000 0.71520  0.05870  0.91420  Biso   1.000  H
  H41      1.0000 0.16870  0.36460  0.37520  Biso   1.000  H
  H42      1.0000 0.66870  0.86460  0.37520  Biso   1.000  H
  H43      1.0000 0.83130  0.36460  0.12480  Biso   1.000  H
  H44      1.0000 0.33130  0.86460  0.12480  Biso   1.000  H
  H45      1.0000 0.83130  0.63540  0.62480  Biso   1.000  H
  H46      1.0000 0.33130  0.13540  0.62480  Biso   1.000  H
  H47      1.0000 0.16870  0.63540  0.87520  Biso   1.000  H
  H48      1.0000 0.66870  0.13540  0.87520  Biso   1.000  H
  O81      1.0000 0.06561  0.38970  0.43040  Biso   1.000  O
  O82      1.0000 0.56561  0.88970  0.43040  Biso   1.000  O
  O83      1.0000 0.93439  0.38970  0.06960  Biso   1.000  O
  O84      1.0000 0.43439  0.88970  0.06960  Biso   1.000  O
  O85      1.0000 0.93439  0.61030  0.56960  Biso   1.000  O
  O86      1.0000 0.43439  0.11030  0.56960  Biso   1.000  O
  O87      1.0000 0.06561  0.61030  0.93040  Biso   1.000  O
  O88      1.0000 0.56561  0.11030  0.93040  Biso   1.000  O
  H49      1.0000 0.07080  0.36570  0.49720  Biso   1.000  H
  H50      1.0000 0.57080  0.86570  0.49720  Biso   1.000  H
  H51      1.0000 0.92920  0.36570  0.00280  Biso   1.000  H
  H52      1.0000 0.42920  0.86570  0.00280  Biso   1.000  H
  H53      1.0000 0.92920  0.63430  0.50280  Biso   1.000  H
  H54      1.0000 0.42920  0.13430  0.50280  Biso   1.000  H
  H55      1.0000 0.07080  0.63430  0.99720  Biso   1.000  H
  H56      1.0000 0.57080  0.13430  0.99720  Biso   1.000  H
  H57      1.0000 0.08810  0.34610  0.39310  Biso   1.000  H
  H58      1.0000 0.58810  0.84610  0.39310  Biso   1.000  H
  H59      1.0000 0.91190  0.34610  0.10690  Biso   1.000  H
  H60      1.0000 0.41190  0.84610  0.10690  Biso   1.000  H
  H61      1.0000 0.91190  0.65390  0.60690  Biso   1.000  H
  H62      1.0000 0.41190  0.15390  0.60690  Biso   1.000  H
  H63      1.0000 0.08810  0.65390  0.89310  Biso   1.000  H
  H64      1.0000 0.58810  0.15390  0.89310  Biso   1.000  H
  O89      1.0000 0.00745  0.56720  0.37570  Biso   1.000  O
  O90      1.0000 0.50745  0.06720  0.37570  Biso   1.000  O
  O91      1.0000 0.99255  0.56720  0.12430  Biso   1.000  O
  O92      1.0000 0.49255  0.06720  0.12430  Biso   1.000  O
  O93      1.0000 0.99255  0.43280  0.62430  Biso   1.000  O
  O94      1.0000 0.49255  0.93280  0.62430  Biso   1.000  O
  O95      1.0000 0.00745  0.43280  0.87570  Biso   1.000  O
  O96      1.0000 0.50745  0.93280  0.87570  Biso   1.000  O
  H65      1.0000 0.99470  0.63540  0.37720  Biso   1.000  H
  H66      1.0000 0.49470  0.13540  0.37720  Biso   1.000  H
  H67      1.0000 0.00530  0.63540  0.12280  Biso   1.000  H
  H68      1.0000 0.50530  0.13540  0.12280  Biso   1.000  H
  H69      1.0000 0.00530  0.36460  0.62280  Biso   1.000  H
  H70      1.0000 0.50530  0.86460  0.62280  Biso   1.000  H
  H71      1.0000 0.99470  0.36460  0.87720  Biso   1.000  H
  H72      1.0000 0.49470  0.86460  0.87720  Biso   1.000  H
  H73      1.0000 0.98530  0.51940  0.41260  Biso   1.000  H
  H74      1.0000 0.48530  0.01940  0.41260  Biso   1.000  H
  H75      1.0000 0.01470  0.51940  0.08740  Biso   1.000  H
  H76      1.0000 0.51470  0.01940  0.08740  Biso   1.000  H
  H77      1.0000 0.01470  0.48060  0.58740  Biso   1.000  H
  H78      1.0000 0.51470  0.98060  0.58740  Biso   1.000  H
  H79      1.0000 0.98530  0.48060  0.91260  Biso   1.000  H
  H80      1.0000 0.48530  0.98060  0.91260  Biso   1.000  H
  O97      1.0000 0.08475  0.72984  0.44444  Biso   1.000  O
  O98      1.0000 0.58475  0.22984  0.44444  Biso   1.000  O
  O99      1.0000 0.91525  0.72984  0.05556  Biso   1.000  O
  O100     1.0000 0.41525  0.22984  0.05556  Biso   1.000  O
  O101     1.0000 0.91525  0.27016  0.55556  Biso   1.000  O
  O102     1.0000 0.41525  0.77016  0.55556  Biso   1.000  O
  O103     1.0000 0.08475  0.27016  0.94444  Biso   1.000  O
  O104     1.0000 0.58475  0.77016  0.94444  Biso   1.000  O
  H81      1.0000 0.08820  0.73690  0.51400  Biso   1.000  H
  H82      1.0000 0.58820  0.23690  0.51400  Biso   1.000  H
  H83      1.0000 0.91180  0.73690  0.98600  Biso   1.000  H
  H84      1.0000 0.41180  0.23690  0.98600  Biso   1.000  H
  H85      1.0000 0.91180  0.26310  0.48600  Biso   1.000  H
  H86      1.0000 0.41180  0.76310  0.48600  Biso   1.000  H
  H87      1.0000 0.08820  0.26310  0.01400  Biso   1.000  H
  H88      1.0000 0.58820  0.76310  0.01400  Biso   1.000  H
  H89      1.0000 0.11560  0.76100  0.41810  Biso   1.000  H
  H90      1.0000 0.61560  0.26100  0.41810  Biso   1.000  H
  H91      1.0000 0.88440  0.76100  0.08190  Biso   1.000  H
  H92      1.0000 0.38440  0.26100  0.08190  Biso   1.000  H
  H93      1.0000 0.88440  0.23900  0.58190  Biso   1.000  H
  H94      1.0000 0.38440  0.73900  0.58190  Biso   1.000  H
  H95      1.0000 0.11560  0.23900  0.91810  Biso   1.000  H
  H96      1.0000 0.61560  0.73900  0.91810  Biso   1.000  H
  O105     1.0000 0.56670  0.45930  0.76400  Biso   1.000  O
  O106     1.0000 0.06670  0.95930  0.76400  Biso   1.000  O
  O107     1.0000 0.43330  0.45930  0.73600  Biso   1.000  O
  O108     1.0000 0.93330  0.95930  0.73600  Biso   1.000  O
  O109     1.0000 0.43330  0.54070  0.23600  Biso   1.000  O
  O110     1.0000 0.93330  0.04070  0.23600  Biso   1.000  O
  O111     1.0000 0.56670  0.54070  0.26400  Biso   1.000  O
  O112     1.0000 0.06670  0.04070  0.26400  Biso   1.000  O
  H97      1.0000 0.59140  0.51500  0.76790  Biso   1.000  H
  H98      1.0000 0.09140  0.01500  0.76790  Biso   1.000  H
  H99      1.0000 0.40860  0.51500  0.73210  Biso   1.000  H
  H100     1.0000 0.90860  0.01500  0.73210  Biso   1.000  H
  H101     1.0000 0.40860  0.48500  0.23210  Biso   1.000  H
  H102     1.0000 0.90860  0.98500  0.23210  Biso   1.000  H
  H103     1.0000 0.59140  0.48500  0.26790  Biso   1.000  H
  H104     1.0000 0.09140  0.98500  0.26790  Biso   1.000  H
  H105     1.0000 0.59310  0.41130  0.78850  Biso   1.000  H
  H106     1.0000 0.09310  0.91130  0.78850  Biso   1.000  H
  H107     1.0000 0.40690  0.41130  0.71150  Biso   1.000  H
  H108     1.0000 0.90690  0.91130  0.71150  Biso   1.000  H
  H109     1.0000 0.40690  0.58870  0.21150  Biso   1.000  H
  H110     1.0000 0.90690  0.08870  0.21150  Biso   1.000  H
  H111     1.0000 0.59310  0.58870  0.28850  Biso   1.000  H
  H112     1.0000 0.09310  0.08870  0.28850  Biso   1.000  H
  O113     1.0000 0.43328  0.50070  0.00270  Biso   1.000  O
  O114     1.0000 0.93328  0.00070  0.00270  Biso   1.000  O
  O115     1.0000 0.56672  0.50070  0.49730  Biso   1.000  O
  O116     1.0000 0.06672  0.00070  0.49730  Biso   1.000  O
  O117     1.0000 0.56672  0.49930  0.99730  Biso   1.000  O
  O118     1.0000 0.06672  0.99930  0.99730  Biso   1.000  O
  O119     1.0000 0.43328  0.49930  0.50270  Biso   1.000  O
  O120     1.0000 0.93328  0.99930  0.50270  Biso   1.000  O
  H113     1.0000 0.40760  0.44620  0.00110  Biso   1.000  H
  H114     1.0000 0.90760  0.94620  0.00110  Biso   1.000  H
  H115     1.0000 0.59240  0.44620  0.49890  Biso   1.000  H
  H116     1.0000 0.09240  0.94620  0.49890  Biso   1.000  H
  H117     1.0000 0.59240  0.55380  0.99890  Biso   1.000  H
  H118     1.0000 0.09240  0.05380  0.99890  Biso   1.000  H
  H119     1.0000 0.40760  0.55380  0.50110  Biso   1.000  H
  H120     1.0000 0.90760  0.05380  0.50110  Biso   1.000  H
  H121     1.0000 0.41050  0.55960  0.01160  Biso   1.000  H
  H122     1.0000 0.91050  0.05960  0.01160  Biso   1.000  H
  H123     1.0000 0.58950  0.55960  0.48840  Biso   1.000  H
  H124     1.0000 0.08950  0.05960  0.48840  Biso   1.000  H
  H125     1.0000 0.58950  0.44040  0.98840  Biso   1.000  H
  H126     1.0000 0.08950  0.94040  0.98840  Biso   1.000  H
  H127     1.0000 0.41050  0.44040  0.51160  Biso   1.000  H
  H128     1.0000 0.91050  0.94040  0.51160  Biso   1.000  H
  O121     1.0000 0.49837  0.66000  0.85150  Biso   1.000  O
  O122     1.0000 0.99837  0.16000  0.85150  Biso   1.000  O
  O123     1.0000 0.50163  0.66000  0.64850  Biso   1.000  O
  O124     1.0000 0.00163  0.16000  0.64850  Biso   1.000  O
  O125     1.0000 0.50163  0.34000  0.14850  Biso   1.000  O
  O126     1.0000 0.00163  0.84000  0.14850  Biso   1.000  O
  O127     1.0000 0.49837  0.34000  0.35150  Biso   1.000  O
  O128     1.0000 0.99837  0.84000  0.35150  Biso   1.000  O
  H129     1.0000 0.52470  0.69500  0.89160  Biso   1.000  H
  H130     1.0000 0.02470  0.19500  0.89160  Biso   1.000  H
  H131     1.0000 0.47530  0.69500  0.60840  Biso   1.000  H
  H132     1.0000 0.97530  0.19500  0.60840  Biso   1.000  H
  H133     1.0000 0.47530  0.30500  0.10840  Biso   1.000  H
  H134     1.0000 0.97530  0.80500  0.10840  Biso   1.000  H
  H135     1.0000 0.52470  0.30500  0.39160  Biso   1.000  H
  H136     1.0000 0.02470  0.80500  0.39160  Biso   1.000  H
  H137     1.0000 0.46790  0.68700  0.88290  Biso   1.000  H
  H138     1.0000 0.96790  0.18700  0.88290  Biso   1.000  H
  H139     1.0000 0.53210  0.68700  0.61710  Biso   1.000  H
  H140     1.0000 0.03210  0.18700  0.61710  Biso   1.000  H
  H141     1.0000 0.53210  0.31300  0.11710  Biso   1.000  H
  H142     1.0000 0.03210  0.81300  0.11710  Biso   1.000  H
  H143     1.0000 0.46790  0.31300  0.38290  Biso   1.000  H
  H144     1.0000 0.96790  0.81300  0.38290  Biso   1.000  H
  O129     1.0000 0.45190  0.29830  0.87830  Biso   1.000  O
  O130     1.0000 0.95190  0.79830  0.87830  Biso   1.000  O
  O131     1.0000 0.54810  0.29830  0.62170  Biso   1.000  O
  O132     1.0000 0.04810  0.79830  0.62170  Biso   1.000  O
  O133     1.0000 0.54810  0.70170  0.12170  Biso   1.000  O
  O134     1.0000 0.04810  0.20170  0.12170  Biso   1.000  O
  O135     1.0000 0.45190  0.70170  0.37830  Biso   1.000  O
  O136     1.0000 0.95190  0.20170  0.37830  Biso   1.000  O
  H145     1.0000 0.42340  0.30850  0.82920  Biso   1.000  H
  H146     1.0000 0.92340  0.80850  0.82920  Biso   1.000  H
  H147     1.0000 0.57660  0.30850  0.67080  Biso   1.000  H
  H148     1.0000 0.07660  0.80850  0.67080  Biso   1.000  H
  H149     1.0000 0.57660  0.69150  0.17080  Biso   1.000  H
  H150     1.0000 0.07660  0.19150  0.17080  Biso   1.000  H
  H151     1.0000 0.42340  0.69150  0.32920  Biso   1.000  H
  H152     1.0000 0.92340  0.19150  0.32920  Biso   1.000  H
  H153     1.0000 0.47300  0.25530  0.83810  Biso   1.000  H
  H154     1.0000 0.97300  0.75530  0.83810  Biso   1.000  H
  H155     1.0000 0.52700  0.25530  0.66190  Biso   1.000  H
  H156     1.0000 0.02700  0.75530  0.66190  Biso   1.000  H
  H157     1.0000 0.52700  0.74470  0.16190  Biso   1.000  H
  H158     1.0000 0.02700  0.24470  0.16190  Biso   1.000  H
  H159     1.0000 0.47300  0.74470  0.33810  Biso   1.000  H
  H160     1.0000 0.97300  0.24470  0.33810  Biso   1.000  H
  O137     1.0000 0.48730  0.30260  0.89900  Biso   1.000  O
  O138     1.0000 0.98730  0.80260  0.89900  Biso   1.000  O
  O139     1.0000 0.51270  0.30260  0.60100  Biso   1.000  O
  O140     1.0000 0.01270  0.80260  0.60100  Biso   1.000  O
  O141     1.0000 0.51270  0.69740  0.10100  Biso   1.000  O
  O142     1.0000 0.01270  0.19740  0.10100  Biso   1.000  O
  O143     1.0000 0.48730  0.69740  0.39900  Biso   1.000  O
  O144     1.0000 0.98730  0.19740  0.39900  Biso   1.000  O
  H161     1.0000 0.46890  0.27320  0.84230  Biso   1.000  H
  H162     1.0000 0.96890  0.77320  0.84230  Biso   1.000  H
  H163     1.0000 0.53110  0.27320  0.65770  Biso   1.000  H
  H164     1.0000 0.03110  0.77320  0.65770  Biso   1.000  H
  H165     1.0000 0.53110  0.72680  0.15770  Biso   1.000  H
  H166     1.0000 0.03110  0.22680  0.15770  Biso   1.000  H
  H167     1.0000 0.46890  0.72680  0.34230  Biso   1.000  H
  H168     1.0000 0.96890  0.22680  0.34230  Biso   1.000  H
  H169     1.0000 0.52360  0.27550  0.90670  Biso   1.000  H
  H170     1.0000 0.02360  0.77550  0.90670  Biso   1.000  H
  H171     1.0000 0.47640  0.27550  0.59330  Biso   1.000  H
  H172     1.0000 0.97640  0.77550  0.59330  Biso   1.000  H
  H173     1.0000 0.47640  0.72450  0.09330  Biso   1.000  H
  H174     1.0000 0.97640  0.22450  0.09330  Biso   1.000  H
  H175     1.0000 0.52360  0.72450  0.40670  Biso   1.000  H
  H176     1.0000 0.02360  0.22450  0.40670  Biso   1.000  H
  O145     1.0000 0.35619  0.35070  0.51040  Biso   1.000  O
  O146     1.0000 0.85619  0.85070  0.51040  Biso   1.000  O
  O147     1.0000 0.64381  0.35070  0.98960  Biso   1.000  O
  O148     1.0000 0.14381  0.85070  0.98960  Biso   1.000  O
  O149     1.0000 0.64381  0.64930  0.48960  Biso   1.000  O
  O150     1.0000 0.14381  0.14930  0.48960  Biso   1.000  O
  O151     1.0000 0.35619  0.64930  0.01040  Biso   1.000  O
  O152     1.0000 0.85619  0.14930  0.01040  Biso   1.000  O
  H177     1.0000 0.35410  0.32490  0.57690  Biso   1.000  H
  H178     1.0000 0.85410  0.82490  0.57690  Biso   1.000  H
  H179     1.0000 0.64590  0.32490  0.92310  Biso   1.000  H
  H180     1.0000 0.14590  0.82490  0.92310  Biso   1.000  H
  H181     1.0000 0.64590  0.67510  0.42310  Biso   1.000  H
  H182     1.0000 0.14590  0.17510  0.42310  Biso   1.000  H
  H183     1.0000 0.35410  0.67510  0.07690  Biso   1.000  H
  H184     1.0000 0.85410  0.17510  0.07690  Biso   1.000  H
  H185     1.0000 0.36990  0.30400  0.46380  Biso   1.000  H
  H186     1.0000 0.86990  0.80400  0.46380  Biso   1.000  H
  H187     1.0000 0.63010  0.30400  0.03620  Biso   1.000  H
  H188     1.0000 0.13010  0.80400  0.03620  Biso   1.000  H
  H189     1.0000 0.63010  0.69600  0.53620  Biso   1.000  H
  H190     1.0000 0.13010  0.19600  0.53620  Biso   1.000  H
  H191     1.0000 0.36990  0.69600  0.96380  Biso   1.000  H
  H192     1.0000 0.86990  0.19600  0.96380  Biso   1.000  H
  O153     1.0000 0.00000  0.65630  0.75000  Biso   1.000  O
  O154     1.0000 0.50000  0.15630  0.75000  Biso   1.000  O
  O155     1.0000 0.00000  0.34370  0.25000  Biso   1.000  O
  O156     1.0000 0.50000  0.84370  0.25000  Biso   1.000  O
  H193     1.0000 0.98500  0.70900  0.70930  Biso   1.000  H
  H194     1.0000 0.48500  0.20900  0.70930  Biso   1.000  H
  H195     1.0000 0.01500  0.70900  0.79070  Biso   1.000  H
  H196     1.0000 0.51500  0.20900  0.79070  Biso   1.000  H
  H197     1.0000 0.01500  0.29100  0.29070  Biso   1.000  H
  H198     1.0000 0.51500  0.79100  0.29070  Biso   1.000  H
  H199     1.0000 0.98500  0.29100  0.20930  Biso   1.000  H
  H200     1.0000 0.48500  0.79100  0.20930  Biso   1.000  H
  H201     1.0000 0.03110  0.61280  0.74630  Biso   1.000  H
  H202     1.0000 0.53110  0.11280  0.74630  Biso   1.000  H
  H203     1.0000 0.96890  0.61280  0.75370  Biso   1.000  H
  H204     1.0000 0.46890  0.11280  0.75370  Biso   1.000  H
  H205     1.0000 0.96890  0.38720  0.25370  Biso   1.000  H
  H206     1.0000 0.46890  0.88720  0.25370  Biso   1.000  H
  H207     1.0000 0.03110  0.38720  0.24630  Biso   1.000  H
  H208     1.0000 0.53110  0.88720  0.24630  Biso   1.000  H
