data_image0
_cell_length_a       24.485
_cell_length_b       13.39
_cell_length_c       13.691
_cell_angle_alpha    90
_cell_angle_beta     92.43
_cell_angle_gamma    90

_symmetry_space_group_name_H-M    "P 1"
_symmetry_int_tables_number       1

loop_
  _symmetry_equiv_pos_as_xyz
  'x, y, z'

loop_
  _atom_site_label
  _atom_site_occupancy
  _atom_site_fract_x
  _atom_site_fract_y
  _atom_site_fract_z
  _atom_site_thermal_displace_type
  _atom_site_B_iso_or_equiv
  _atom_site_type_symbol
  Na1      1.0000 0.50662  0.52079  0.12427  Biso   1.000  Na
  Na2      1.0000 0.00662  0.02079  0.12427  Biso   1.000  Na
  Na3      1.0000 0.49338  0.52079  0.37573  Biso   1.000  Na
  Na4      1.0000 0.99338  0.02079  0.37573  Biso   1.000  Na
  Na5      1.0000 0.49338  0.47921  0.87573  Biso   1.000  Na
  Na6      1.0000 0.99338  0.97921  0.87573  Biso   1.000  Na
  Na7      1.0000 0.50662  0.47921  0.62427  Biso   1.000  Na
  Na8      1.0000 0.00662  0.97921  0.62427  Biso   1.000  Na
  Cu1      1.0000 0.21419  0.13013  0.06956  Biso   1.000  Cu
  Cu2      1.0000 0.71419  0.63013  0.06956  Biso   1.000  Cu
  Cu3      1.0000 0.78581  0.13013  0.43044  Biso   1.000  Cu
  Cu4      1.0000 0.28581  0.63013  0.43044  Biso   1.000  Cu
  Cu5      1.0000 0.78581  0.86987  0.93044  Biso   1.000  Cu
  Cu6      1.0000 0.28581  0.36987  0.93044  Biso   1.000  Cu
  Cu7      1.0000 0.21419  0.86987  0.56956  Biso   1.000  Cu
  Cu8      1.0000 0.71419  0.36987  0.56956  Biso   1.000  Cu
  Pr1      1.0000 0.39499  0.05609  0.10665  Biso   1.000  Pr
  Pr2      1.0000 0.89499  0.55609  0.10665  Biso   1.000  Pr
  Pr3      1.0000 0.60501  0.05609  0.39335  Biso   1.000  Pr
  Pr4      1.0000 0.10501  0.55609  0.39335  Biso   1.000  Pr
  Pr5      1.0000 0.60501  0.94391  0.89335  Biso   1.000  Pr
  Pr6      1.0000 0.10501  0.44391  0.89335  Biso   1.000  Pr
  Pr7      1.0000 0.39499  0.94391  0.60665  Biso   1.000  Pr
  Pr8      1.0000 0.89499  0.44391  0.60665  Biso   1.000  Pr
  C1       1.0000 0.18380  0.09380  0.87430  Biso   1.000  C
  C2       1.0000 0.68380  0.59380  0.87430  Biso   1.000  C
  C3       1.0000 0.81620  0.09380  0.62570  Biso   1.000  C
  C4       1.0000 0.31620  0.59380  0.62570  Biso   1.000  C
  C5       1.0000 0.81620  0.90620  0.12570  Biso   1.000  C
  C6       1.0000 0.31620  0.40620  0.12570  Biso   1.000  C
  C7       1.0000 0.18380  0.90620  0.37430  Biso   1.000  C
  C8       1.0000 0.68380  0.40620  0.37430  Biso   1.000  C
  C9       1.0000 0.24400  0.08710  0.88220  Biso   1.000  C
  C10      1.0000 0.74400  0.58710  0.88220  Biso   1.000  C
  C11      1.0000 0.75600  0.08710  0.61780  Biso   1.000  C
  C12      1.0000 0.25600  0.58710  0.61780  Biso   1.000  C
  C13      1.0000 0.75600  0.91290  0.11780  Biso   1.000  C
  C14      1.0000 0.25600  0.41290  0.11780  Biso   1.000  C
  C15      1.0000 0.24400  0.91290  0.38220  Biso   1.000  C
  C16      1.0000 0.74400  0.41290  0.38220  Biso   1.000  C
  C17      1.0000 0.28450  0.06370  0.82010  Biso   1.000  C
  C18      1.0000 0.78450  0.56370  0.82010  Biso   1.000  C
  C19      1.0000 0.71550  0.06370  0.67990  Biso   1.000  C
  C20      1.0000 0.21550  0.56370  0.67990  Biso   1.000  C
  C21      1.0000 0.71550  0.93630  0.17990  Biso   1.000  C
  C22      1.0000 0.21550  0.43630  0.17990  Biso   1.000  C
  C23      1.0000 0.28450  0.93630  0.32010  Biso   1.000  C
  C24      1.0000 0.78450  0.43630  0.32010  Biso   1.000  C
  H1       1.0000 0.28060  0.04570  0.75230  Biso   1.000  H
  H2       1.0000 0.78060  0.54570  0.75230  Biso   1.000  H
  H3       1.0000 0.71940  0.04570  0.74770  Biso   1.000  H
  H4       1.0000 0.21940  0.54570  0.74770  Biso   1.000  H
  H5       1.0000 0.71940  0.95430  0.24770  Biso   1.000  H
  H6       1.0000 0.21940  0.45430  0.24770  Biso   1.000  H
  H7       1.0000 0.28060  0.95430  0.25230  Biso   1.000  H
  H8       1.0000 0.78060  0.45430  0.25230  Biso   1.000  H
  C25      1.0000 0.33200  0.07130  0.87770  Biso   1.000  C
  C26      1.0000 0.83200  0.57130  0.87770  Biso   1.000  C
  C27      1.0000 0.66800  0.07130  0.62230  Biso   1.000  C
  C28      1.0000 0.16800  0.57130  0.62230  Biso   1.000  C
  C29      1.0000 0.66800  0.92870  0.12230  Biso   1.000  C
  C30      1.0000 0.16800  0.42870  0.12230  Biso   1.000  C
  C31      1.0000 0.33200  0.92870  0.37770  Biso   1.000  C
  C32      1.0000 0.83200  0.42870  0.37770  Biso   1.000  C
  C33      1.0000 0.38960  0.05400  0.85420  Biso   1.000  C
  C34      1.0000 0.88960  0.55400  0.85420  Biso   1.000  C
  C35      1.0000 0.61040  0.05400  0.64580  Biso   1.000  C
  C36      1.0000 0.11040  0.55400  0.64580  Biso   1.000  C
  C37      1.0000 0.61040  0.94600  0.14580  Biso   1.000  C
  C38      1.0000 0.11040  0.44600  0.14580  Biso   1.000  C
  C39      1.0000 0.38960  0.94600  0.35420  Biso   1.000  C
  C40      1.0000 0.88960  0.44600  0.35420  Biso   1.000  C
  N1       1.0000 0.26676  0.10750  0.97130  Biso   1.000  N
  N2       1.0000 0.76676  0.60750  0.97130  Biso   1.000  N
  N3       1.0000 0.73324  0.10750  0.52870  Biso   1.000  N
  N4       1.0000 0.23324  0.60750  0.52870  Biso   1.000  N
  N5       1.0000 0.73324  0.89250  0.02870  Biso   1.000  N
  N6       1.0000 0.23324  0.39250  0.02870  Biso   1.000  N
  N7       1.0000 0.26676  0.89250  0.47130  Biso   1.000  N
  N8       1.0000 0.76676  0.39250  0.47130  Biso   1.000  N
  N9       1.0000 0.32086  0.09650  0.97020  Biso   1.000  N
  N10      1.0000 0.82086  0.59650  0.97020  Biso   1.000  N
  N11      1.0000 0.67914  0.09650  0.52980  Biso   1.000  N
  N12      1.0000 0.17914  0.59650  0.52980  Biso   1.000  N
  N13      1.0000 0.67914  0.90350  0.02980  Biso   1.000  N
  N14      1.0000 0.17914  0.40350  0.02980  Biso   1.000  N
  N15      1.0000 0.32086  0.90350  0.47020  Biso   1.000  N
  N16      1.0000 0.82086  0.40350  0.47020  Biso   1.000  N
  O1       1.0000 0.16156  0.11980  0.95480  Biso   1.000  O
  O2       1.0000 0.66156  0.61980  0.95480  Biso   1.000  O
  O3       1.0000 0.83844  0.11980  0.54520  Biso   1.000  O
  O4       1.0000 0.33844  0.61980  0.54520  Biso   1.000  O
  O5       1.0000 0.83844  0.88020  0.04520  Biso   1.000  O
  O6       1.0000 0.33844  0.38020  0.04520  Biso   1.000  O
  O7       1.0000 0.16156  0.88020  0.45480  Biso   1.000  O
  O8       1.0000 0.66156  0.38020  0.45480  Biso   1.000  O
  O9       1.0000 0.15877  0.07600  0.79690  Biso   1.000  O
  O10      1.0000 0.65877  0.57600  0.79690  Biso   1.000  O
  O11      1.0000 0.84123  0.07600  0.70310  Biso   1.000  O
  O12      1.0000 0.34123  0.57600  0.70310  Biso   1.000  O
  O13      1.0000 0.84123  0.92400  0.20310  Biso   1.000  O
  O14      1.0000 0.34123  0.42400  0.20310  Biso   1.000  O
  O15      1.0000 0.15877  0.92400  0.29690  Biso   1.000  O
  O16      1.0000 0.65877  0.42400  0.29690  Biso   1.000  O
  O17      1.0000 0.42304  0.05070  0.92760  Biso   1.000  O
  O18      1.0000 0.92304  0.55070  0.92760  Biso   1.000  O
  O19      1.0000 0.57696  0.05070  0.57240  Biso   1.000  O
  O20      1.0000 0.07696  0.55070  0.57240  Biso   1.000  O
  O21      1.0000 0.57696  0.94930  0.07240  Biso   1.000  O
  O22      1.0000 0.07696  0.44930  0.07240  Biso   1.000  O
  O23      1.0000 0.42304  0.94930  0.42760  Biso   1.000  O
  O24      1.0000 0.92304  0.44930  0.42760  Biso   1.000  O
  O25      1.0000 0.40210  0.04460  0.76720  Biso   1.000  O
  O26      1.0000 0.90210  0.54460  0.76720  Biso   1.000  O
  O27      1.0000 0.59790  0.04460  0.73280  Biso   1.000  O
  O28      1.0000 0.09790  0.54460  0.73280  Biso   1.000  O
  O29      1.0000 0.59790  0.95540  0.23280  Biso   1.000  O
  O30      1.0000 0.09790  0.45540  0.23280  Biso   1.000  O
  O31      1.0000 0.40210  0.95540  0.26720  Biso   1.000  O
  O32      1.0000 0.90210  0.45540  0.26720  Biso   1.000  O
  C41      1.0000 0.18170  0.20350  0.24700  Biso   1.000  C
  C42      1.0000 0.68170  0.70350  0.24700  Biso   1.000  C
  C43      1.0000 0.81830  0.20350  0.25300  Biso   1.000  C
  C44      1.0000 0.31830  0.70350  0.25300  Biso   1.000  C
  C45      1.0000 0.81830  0.79650  0.75300  Biso   1.000  C
  C46      1.0000 0.31830  0.29650  0.75300  Biso   1.000  C
  C47      1.0000 0.18170  0.79650  0.74700  Biso   1.000  C
  C48      1.0000 0.68170  0.29650  0.74700  Biso   1.000  C
  C49      1.0000 0.24180  0.19280  0.25650  Biso   1.000  C
  C50      1.0000 0.74180  0.69280  0.25650  Biso   1.000  C
  C51      1.0000 0.75820  0.19280  0.24350  Biso   1.000  C
  C52      1.0000 0.25820  0.69280  0.24350  Biso   1.000  C
  C53      1.0000 0.75820  0.80720  0.74350  Biso   1.000  C
  C54      1.0000 0.25820  0.30720  0.74350  Biso   1.000  C
  C55      1.0000 0.24180  0.80720  0.75650  Biso   1.000  C
  C56      1.0000 0.74180  0.30720  0.75650  Biso   1.000  C
  C57      1.0000 0.28270  0.21300  0.32730  Biso   1.000  C
  C58      1.0000 0.78270  0.71300  0.32730  Biso   1.000  C
  C59      1.0000 0.71730  0.21300  0.17270  Biso   1.000  C
  C60      1.0000 0.21730  0.71300  0.17270  Biso   1.000  C
  C61      1.0000 0.71730  0.78700  0.67270  Biso   1.000  C
  C62      1.0000 0.21730  0.28700  0.67270  Biso   1.000  C
  C63      1.0000 0.28270  0.78700  0.82730  Biso   1.000  C
  C64      1.0000 0.78270  0.28700  0.82730  Biso   1.000  C
  H9       1.0000 0.27880  0.23990  0.39160  Biso   1.000  H
  H10      1.0000 0.77880  0.73990  0.39160  Biso   1.000  H
  H11      1.0000 0.72120  0.23990  0.10840  Biso   1.000  H
  H12      1.0000 0.22120  0.73990  0.10840  Biso   1.000  H
  H13      1.0000 0.72120  0.76010  0.60840  Biso   1.000  H
  H14      1.0000 0.22120  0.26010  0.60840  Biso   1.000  H
  H15      1.0000 0.27880  0.76010  0.89160  Biso   1.000  H
  H16      1.0000 0.77880  0.26010  0.89160  Biso   1.000  H
  C65      1.0000 0.33010  0.18530  0.28320  Biso   1.000  C
  C66      1.0000 0.83010  0.68530  0.28320  Biso   1.000  C
  C67      1.0000 0.66990  0.18530  0.21680  Biso   1.000  C
  C68      1.0000 0.16990  0.68530  0.21680  Biso   1.000  C
  C69      1.0000 0.66990  0.81470  0.71680  Biso   1.000  C
  C70      1.0000 0.16990  0.31470  0.71680  Biso   1.000  C
  C71      1.0000 0.33010  0.81470  0.78320  Biso   1.000  C
  C72      1.0000 0.83010  0.31470  0.78320  Biso   1.000  C
  C73      1.0000 0.38890  0.18980  0.31400  Biso   1.000  C
  C74      1.0000 0.88890  0.68980  0.31400  Biso   1.000  C
  C75      1.0000 0.61110  0.18980  0.18600  Biso   1.000  C
  C76      1.0000 0.11110  0.68980  0.18600  Biso   1.000  C
  C77      1.0000 0.61110  0.81020  0.68600  Biso   1.000  C
  C78      1.0000 0.11110  0.31020  0.68600  Biso   1.000  C
  C79      1.0000 0.38890  0.81020  0.81400  Biso   1.000  C
  C80      1.0000 0.88890  0.31020  0.81400  Biso   1.000  C
  N17      1.0000 0.26506  0.15600  0.17740  Biso   1.000  N
  N18      1.0000 0.76506  0.65600  0.17740  Biso   1.000  N
  N19      1.0000 0.73494  0.15600  0.32260  Biso   1.000  N
  N20      1.0000 0.23494  0.65600  0.32260  Biso   1.000  N
  N21      1.0000 0.73494  0.84400  0.82260  Biso   1.000  N
  N22      1.0000 0.23494  0.34400  0.82260  Biso   1.000  N
  N23      1.0000 0.26506  0.84400  0.67740  Biso   1.000  N
  N24      1.0000 0.76506  0.34400  0.67740  Biso   1.000  N
  N25      1.0000 0.31912  0.15050  0.19180  Biso   1.000  N
  N26      1.0000 0.81912  0.65050  0.19180  Biso   1.000  N
  N27      1.0000 0.68088  0.15050  0.30820  Biso   1.000  N
  N28      1.0000 0.18088  0.65050  0.30820  Biso   1.000  N
  N29      1.0000 0.68088  0.84950  0.80820  Biso   1.000  N
  N30      1.0000 0.18088  0.34950  0.80820  Biso   1.000  N
  N31      1.0000 0.31912  0.84950  0.69180  Biso   1.000  N
  N32      1.0000 0.81912  0.34950  0.69180  Biso   1.000  N
  O33      1.0000 0.16079  0.17630  0.16320  Biso   1.000  O
  O34      1.0000 0.66079  0.67630  0.16320  Biso   1.000  O
  O35      1.0000 0.83921  0.17630  0.33680  Biso   1.000  O
  O36      1.0000 0.33921  0.67630  0.33680  Biso   1.000  O
  O37      1.0000 0.83921  0.82370  0.83680  Biso   1.000  O
  O38      1.0000 0.33921  0.32370  0.83680  Biso   1.000  O
  O39      1.0000 0.16079  0.82370  0.66320  Biso   1.000  O
  O40      1.0000 0.66079  0.32370  0.66320  Biso   1.000  O
  O41      1.0000 0.15469  0.23630  0.31370  Biso   1.000  O
  O42      1.0000 0.65469  0.73630  0.31370  Biso   1.000  O
  O43      1.0000 0.84531  0.23630  0.18630  Biso   1.000  O
  O44      1.0000 0.34531  0.73630  0.18630  Biso   1.000  O
  O45      1.0000 0.84531  0.76370  0.68630  Biso   1.000  O
  O46      1.0000 0.34531  0.26370  0.68630  Biso   1.000  O
  O47      1.0000 0.15469  0.76370  0.81370  Biso   1.000  O
  O48      1.0000 0.65469  0.26370  0.81370  Biso   1.000  O
  O49      1.0000 0.42234  0.15970  0.25360  Biso   1.000  O
  O50      1.0000 0.92234  0.65970  0.25360  Biso   1.000  O
  O51      1.0000 0.57766  0.15970  0.24640  Biso   1.000  O
  O52      1.0000 0.07766  0.65970  0.24640  Biso   1.000  O
  O53      1.0000 0.57766  0.84030  0.74640  Biso   1.000  O
  O54      1.0000 0.07766  0.34030  0.74640  Biso   1.000  O
  O55      1.0000 0.42234  0.84030  0.75360  Biso   1.000  O
  O56      1.0000 0.92234  0.34030  0.75360  Biso   1.000  O
  O57      1.0000 0.40299  0.22330  0.39740  Biso   1.000  O
  O58      1.0000 0.90299  0.72330  0.39740  Biso   1.000  O
  O59      1.0000 0.59701  0.22330  0.10260  Biso   1.000  O
  O60      1.0000 0.09701  0.72330  0.10260  Biso   1.000  O
  O61      1.0000 0.59701  0.77670  0.60260  Biso   1.000  O
  O62      1.0000 0.09701  0.27670  0.60260  Biso   1.000  O
  O63      1.0000 0.40299  0.77670  0.89740  Biso   1.000  O
  O64      1.0000 0.90299  0.27670  0.89740  Biso   1.000  O
  O65      1.0000 0.20780  0.96160  0.11200  Biso   1.000  O
  O66      1.0000 0.70780  0.46160  0.11200  Biso   1.000  O
  O67      1.0000 0.79220  0.96160  0.38800  Biso   1.000  O
  O68      1.0000 0.29220  0.46160  0.38800  Biso   1.000  O
  O69      1.0000 0.79220  0.03840  0.88800  Biso   1.000  O
  O70      1.0000 0.29220  0.53840  0.88800  Biso   1.000  O
  O71      1.0000 0.20780  0.03840  0.61200  Biso   1.000  O
  O72      1.0000 0.70780  0.53840  0.61200  Biso   1.000  O
  H17      1.0000 0.18900  0.94490  0.16940  Biso   1.000  H
  H18      1.0000 0.68900  0.44490  0.16940  Biso   1.000  H
  H19      1.0000 0.81100  0.94490  0.33060  Biso   1.000  H
  H20      1.0000 0.31100  0.44490  0.33060  Biso   1.000  H
  H21      1.0000 0.81100  0.05510  0.83060  Biso   1.000  H
  H22      1.0000 0.31100  0.55510  0.83060  Biso   1.000  H
  H23      1.0000 0.18900  0.05510  0.66940  Biso   1.000  H
  H24      1.0000 0.68900  0.55510  0.66940  Biso   1.000  H
  H25      1.0000 0.19510  0.92680  0.05470  Biso   1.000  H
  H26      1.0000 0.69510  0.42680  0.05470  Biso   1.000  H
  H27      1.0000 0.80490  0.92680  0.44530  Biso   1.000  H
  H28      1.0000 0.30490  0.42680  0.44530  Biso   1.000  H
  H29      1.0000 0.80490  0.07320  0.94530  Biso   1.000  H
  H30      1.0000 0.30490  0.57320  0.94530  Biso   1.000  H
  H31      1.0000 0.19510  0.07320  0.55470  Biso   1.000  H
  H32      1.0000 0.69510  0.57320  0.55470  Biso   1.000  H
  O73      1.0000 0.32204  0.92200  0.08980  Biso   1.000  O
  O74      1.0000 0.82204  0.42200  0.08980  Biso   1.000  O
  O75      1.0000 0.67796  0.92200  0.41020  Biso   1.000  O
  O76      1.0000 0.17796  0.42200  0.41020  Biso   1.000  O
  O77      1.0000 0.67796  0.07800  0.91020  Biso   1.000  O
  O78      1.0000 0.17796  0.57800  0.91020  Biso   1.000  O
  O79      1.0000 0.32204  0.07800  0.58980  Biso   1.000  O
  O80      1.0000 0.82204  0.57800  0.58980  Biso   1.000  O
  H33      1.0000 0.33060  0.86540  0.13070  Biso   1.000  H
  H34      1.0000 0.83060  0.36540  0.13070  Biso   1.000  H
  H35      1.0000 0.66940  0.86540  0.36930  Biso   1.000  H
  H36      1.0000 0.16940  0.36540  0.36930  Biso   1.000  H
  H37      1.0000 0.66940  0.13460  0.86930  Biso   1.000  H
  H38      1.0000 0.16940  0.63460  0.86930  Biso   1.000  H
  H39      1.0000 0.33060  0.13460  0.63070  Biso   1.000  H
  H40      1.0000 0.83060  0.63460  0.63070  Biso   1.000  H
  H41      1.0000 0.28350  0.93340  0.09300  Biso   1.000  H
  H42      1.0000 0.78350  0.43340  0.09300  Biso   1.000  H
  H43      1.0000 0.71650  0.93340  0.40700  Biso   1.000  H
  H44      1.0000 0.21650  0.43340  0.40700  Biso   1.000  H
  H45      1.0000 0.71650  0.06660  0.90700  Biso   1.000  H
  H46      1.0000 0.21650  0.56660  0.90700  Biso   1.000  H
  H47      1.0000 0.28350  0.06660  0.59300  Biso   1.000  H
  H48      1.0000 0.78350  0.56660  0.59300  Biso   1.000  H
  O81      1.0000 0.43495  0.88660  0.06670  Biso   1.000  O
  O82      1.0000 0.93495  0.38660  0.06670  Biso   1.000  O
  O83      1.0000 0.56505  0.88660  0.43330  Biso   1.000  O
  O84      1.0000 0.06505  0.38660  0.43330  Biso   1.000  O
  O85      1.0000 0.56505  0.11340  0.93330  Biso   1.000  O
  O86      1.0000 0.06505  0.61340  0.93330  Biso   1.000  O
  O87      1.0000 0.43495  0.11340  0.56670  Biso   1.000  O
  O88      1.0000 0.93495  0.61340  0.56670  Biso   1.000  O
  H49      1.0000 0.47310  0.87610  0.08240  Biso   1.000  H
  H50      1.0000 0.97310  0.37610  0.08240  Biso   1.000  H
  H51      1.0000 0.52690  0.87610  0.41760  Biso   1.000  H
  H52      1.0000 0.02690  0.37610  0.41760  Biso   1.000  H
  H53      1.0000 0.52690  0.12390  0.91760  Biso   1.000  H
  H54      1.0000 0.02690  0.62390  0.91760  Biso   1.000  H
  H55      1.0000 0.47310  0.12390  0.58240  Biso   1.000  H
  H56      1.0000 0.97310  0.62390  0.58240  Biso   1.000  H
  H57      1.0000 0.40770  0.84340  0.09230  Biso   1.000  H
  H58      1.0000 0.90770  0.34340  0.09230  Biso   1.000  H
  H59      1.0000 0.59230  0.84340  0.40770  Biso   1.000  H
  H60      1.0000 0.09230  0.34340  0.40770  Biso   1.000  H
  H61      1.0000 0.59230  0.15660  0.90770  Biso   1.000  H
  H62      1.0000 0.09230  0.65660  0.90770  Biso   1.000  H
  H63      1.0000 0.40770  0.15660  0.59230  Biso   1.000  H
  H64      1.0000 0.90770  0.65660  0.59230  Biso   1.000  H
  O89      1.0000 0.49402  0.06810  0.12550  Biso   1.000  O
  O90      1.0000 0.99402  0.56810  0.12550  Biso   1.000  O
  O91      1.0000 0.50598  0.06810  0.37450  Biso   1.000  O
  O92      1.0000 0.00598  0.56810  0.37450  Biso   1.000  O
  O93      1.0000 0.50598  0.93190  0.87450  Biso   1.000  O
  O94      1.0000 0.00598  0.43190  0.87450  Biso   1.000  O
  O95      1.0000 0.49402  0.93190  0.62550  Biso   1.000  O
  O96      1.0000 0.99402  0.43190  0.62550  Biso   1.000  O
  H65      1.0000 0.51980  0.02170  0.10050  Biso   1.000  H
  H66      1.0000 0.01980  0.52170  0.10050  Biso   1.000  H
  H67      1.0000 0.48020  0.02170  0.39950  Biso   1.000  H
  H68      1.0000 0.98020  0.52170  0.39950  Biso   1.000  H
  H69      1.0000 0.48020  0.97830  0.89950  Biso   1.000  H
  H70      1.0000 0.98020  0.47830  0.89950  Biso   1.000  H
  H71      1.0000 0.51980  0.97830  0.60050  Biso   1.000  H
  H72      1.0000 0.01980  0.47830  0.60050  Biso   1.000  H
  H73      1.0000 0.51620  0.11130  0.16680  Biso   1.000  H
  H74      1.0000 0.01620  0.61130  0.16680  Biso   1.000  H
  H75      1.0000 0.48380  0.11130  0.33320  Biso   1.000  H
  H76      1.0000 0.98380  0.61130  0.33320  Biso   1.000  H
  H77      1.0000 0.48380  0.88870  0.83320  Biso   1.000  H
  H78      1.0000 0.98380  0.38870  0.83320  Biso   1.000  H
  H79      1.0000 0.51620  0.88870  0.66680  Biso   1.000  H
  H80      1.0000 0.01620  0.38870  0.66680  Biso   1.000  H
  O97      1.0000 0.41605  0.23200  0.05450  Biso   1.000  O
  O98      1.0000 0.91605  0.73200  0.05450  Biso   1.000  O
  O99      1.0000 0.58395  0.23200  0.44550  Biso   1.000  O
  O100     1.0000 0.08395  0.73200  0.44550  Biso   1.000  O
  O101     1.0000 0.58395  0.76800  0.94550  Biso   1.000  O
  O102     1.0000 0.08395  0.26800  0.94550  Biso   1.000  O
  O103     1.0000 0.41605  0.76800  0.55450  Biso   1.000  O
  O104     1.0000 0.91605  0.26800  0.55450  Biso   1.000  O
  H81      1.0000 0.38880  0.27260  0.02490  Biso   1.000  H
  H82      1.0000 0.88880  0.77260  0.02490  Biso   1.000  H
  H83      1.0000 0.61120  0.27260  0.47510  Biso   1.000  H
  H84      1.0000 0.11120  0.77260  0.47510  Biso   1.000  H
  H85      1.0000 0.61120  0.72740  0.97510  Biso   1.000  H
  H86      1.0000 0.11120  0.22740  0.97510  Biso   1.000  H
  H87      1.0000 0.38880  0.72740  0.52490  Biso   1.000  H
  H88      1.0000 0.88880  0.22740  0.52490  Biso   1.000  H
  H89      1.0000 0.42280  0.27590  0.10760  Biso   1.000  H
  H90      1.0000 0.92280  0.77590  0.10760  Biso   1.000  H
  H91      1.0000 0.57720  0.27590  0.39240  Biso   1.000  H
  H92      1.0000 0.07720  0.77590  0.39240  Biso   1.000  H
  H93      1.0000 0.57720  0.72410  0.89240  Biso   1.000  H
  H94      1.0000 0.07720  0.22410  0.89240  Biso   1.000  H
  H95      1.0000 0.42280  0.72410  0.60760  Biso   1.000  H
  H96      1.0000 0.92280  0.22410  0.60760  Biso   1.000  H
  O105     1.0000 0.56639  0.49850  0.99780  Biso   1.000  O
  O106     1.0000 0.06639  0.99850  0.99780  Biso   1.000  O
  O107     1.0000 0.43361  0.49850  0.50220  Biso   1.000  O
  O108     1.0000 0.93361  0.99850  0.50220  Biso   1.000  O
  O109     1.0000 0.43361  0.50150  0.00220  Biso   1.000  O
  O110     1.0000 0.93361  0.00150  0.00220  Biso   1.000  O
  O111     1.0000 0.56639  0.50150  0.49780  Biso   1.000  O
  O112     1.0000 0.06639  0.00150  0.49780  Biso   1.000  O
  H97      1.0000 0.59070  0.44290  0.99140  Biso   1.000  H
  H98      1.0000 0.09070  0.94290  0.99140  Biso   1.000  H
  H99      1.0000 0.40930  0.44290  0.50860  Biso   1.000  H
  H100     1.0000 0.90930  0.94290  0.50860  Biso   1.000  H
  H101     1.0000 0.40930  0.55710  0.00860  Biso   1.000  H
  H102     1.0000 0.90930  0.05710  0.00860  Biso   1.000  H
  H103     1.0000 0.59070  0.55710  0.49140  Biso   1.000  H
  H104     1.0000 0.09070  0.05710  0.49140  Biso   1.000  H
  H105     1.0000 0.58950  0.54970  0.97290  Biso   1.000  H
  H106     1.0000 0.08950  0.04970  0.97290  Biso   1.000  H
  H107     1.0000 0.41050  0.54970  0.52710  Biso   1.000  H
  H108     1.0000 0.91050  0.04970  0.52710  Biso   1.000  H
  H109     1.0000 0.41050  0.45030  0.02710  Biso   1.000  H
  H110     1.0000 0.91050  0.95030  0.02710  Biso   1.000  H
  H111     1.0000 0.58950  0.45030  0.47290  Biso   1.000  H
  H112     1.0000 0.08950  0.95030  0.47290  Biso   1.000  H
  O113     1.0000 0.43355  0.54050  0.23410  Biso   1.000  O
  O114     1.0000 0.93355  0.04050  0.23410  Biso   1.000  O
  O115     1.0000 0.56645  0.54050  0.26590  Biso   1.000  O
  O116     1.0000 0.06645  0.04050  0.26590  Biso   1.000  O
  O117     1.0000 0.56645  0.45950  0.76590  Biso   1.000  O
  O118     1.0000 0.06645  0.95950  0.76590  Biso   1.000  O
  O119     1.0000 0.43355  0.45950  0.73410  Biso   1.000  O
  O120     1.0000 0.93355  0.95950  0.73410  Biso   1.000  O
  H113     1.0000 0.41270  0.59650  0.25540  Biso   1.000  H
  H114     1.0000 0.91270  0.09650  0.25540  Biso   1.000  H
  H115     1.0000 0.58730  0.59650  0.24460  Biso   1.000  H
  H116     1.0000 0.08730  0.09650  0.24460  Biso   1.000  H
  H117     1.0000 0.58730  0.40350  0.74460  Biso   1.000  H
  H118     1.0000 0.08730  0.90350  0.74460  Biso   1.000  H
  H119     1.0000 0.41270  0.40350  0.75540  Biso   1.000  H
  H120     1.0000 0.91270  0.90350  0.75540  Biso   1.000  H
  H121     1.0000 0.40580  0.48980  0.23250  Biso   1.000  H
  H122     1.0000 0.90580  0.98980  0.23250  Biso   1.000  H
  H123     1.0000 0.59420  0.48980  0.26750  Biso   1.000  H
  H124     1.0000 0.09420  0.98980  0.26750  Biso   1.000  H
  H125     1.0000 0.59420  0.51020  0.76750  Biso   1.000  H
  H126     1.0000 0.09420  0.01020  0.76750  Biso   1.000  H
  H127     1.0000 0.40580  0.51020  0.73250  Biso   1.000  H
  H128     1.0000 0.90580  0.01020  0.73250  Biso   1.000  H
  O121     1.0000 0.50186  0.33950  0.14840  Biso   1.000  O
  O122     1.0000 0.00186  0.83950  0.14840  Biso   1.000  O
  O123     1.0000 0.49814  0.33950  0.35160  Biso   1.000  O
  O124     1.0000 0.99814  0.83950  0.35160  Biso   1.000  O
  O125     1.0000 0.49814  0.66050  0.85160  Biso   1.000  O
  O126     1.0000 0.99814  0.16050  0.85160  Biso   1.000  O
  O127     1.0000 0.50186  0.66050  0.64840  Biso   1.000  O
  O128     1.0000 0.00186  0.16050  0.64840  Biso   1.000  O
  H129     1.0000 0.52470  0.32350  0.09740  Biso   1.000  H
  H130     1.0000 0.02470  0.82350  0.09740  Biso   1.000  H
  H131     1.0000 0.47530  0.32350  0.40260  Biso   1.000  H
  H132     1.0000 0.97530  0.82350  0.40260  Biso   1.000  H
  H133     1.0000 0.47530  0.67650  0.90260  Biso   1.000  H
  H134     1.0000 0.97530  0.17650  0.90260  Biso   1.000  H
  H135     1.0000 0.52470  0.67650  0.59740  Biso   1.000  H
  H136     1.0000 0.02470  0.17650  0.59740  Biso   1.000  H
  H137     1.0000 0.52810  0.32250  0.19770  Biso   1.000  H
  H138     1.0000 0.02810  0.82250  0.19770  Biso   1.000  H
  H139     1.0000 0.47190  0.32250  0.30230  Biso   1.000  H
  H140     1.0000 0.97190  0.82250  0.30230  Biso   1.000  H
  H141     1.0000 0.47190  0.67750  0.80230  Biso   1.000  H
  H142     1.0000 0.97190  0.17750  0.80230  Biso   1.000  H
  H143     1.0000 0.52810  0.67750  0.69770  Biso   1.000  H
  H144     1.0000 0.02810  0.17750  0.69770  Biso   1.000  H
  O129     1.0000 0.54890  0.70080  0.12340  Biso   1.000  O
  O130     1.0000 0.04890  0.20080  0.12340  Biso   1.000  O
  O131     1.0000 0.45110  0.70080  0.37660  Biso   1.000  O
  O132     1.0000 0.95110  0.20080  0.37660  Biso   1.000  O
  O133     1.0000 0.45110  0.29920  0.87660  Biso   1.000  O
  O134     1.0000 0.95110  0.79920  0.87660  Biso   1.000  O
  O135     1.0000 0.54890  0.29920  0.62340  Biso   1.000  O
  O136     1.0000 0.04890  0.79920  0.62340  Biso   1.000  O
  H145     1.0000 0.53250  0.73490  0.17460  Biso   1.000  H
  H146     1.0000 0.03250  0.23490  0.17460  Biso   1.000  H
  H147     1.0000 0.46750  0.73490  0.32540  Biso   1.000  H
  H148     1.0000 0.96750  0.23490  0.32540  Biso   1.000  H
  H149     1.0000 0.46750  0.26510  0.82540  Biso   1.000  H
  H150     1.0000 0.96750  0.76510  0.82540  Biso   1.000  H
  H151     1.0000 0.53250  0.26510  0.67460  Biso   1.000  H
  H152     1.0000 0.03250  0.76510  0.67460  Biso   1.000  H
  H153     1.0000 0.53240  0.72390  0.06390  Biso   1.000  H
  H154     1.0000 0.03240  0.22390  0.06390  Biso   1.000  H
  H155     1.0000 0.46760  0.72390  0.43610  Biso   1.000  H
  H156     1.0000 0.96760  0.22390  0.43610  Biso   1.000  H
  H157     1.0000 0.46760  0.27610  0.93610  Biso   1.000  H
  H158     1.0000 0.96760  0.77610  0.93610  Biso   1.000  H
  H159     1.0000 0.53240  0.27610  0.56390  Biso   1.000  H
  H160     1.0000 0.03240  0.77610  0.56390  Biso   1.000  H
  O137     1.0000 0.51280  0.69510  0.10290  Biso   1.000  O
  O138     1.0000 0.01280  0.19510  0.10290  Biso   1.000  O
  O139     1.0000 0.48720  0.69510  0.39710  Biso   1.000  O
  O140     1.0000 0.98720  0.19510  0.39710  Biso   1.000  O
  O141     1.0000 0.48720  0.30490  0.89710  Biso   1.000  O
  O142     1.0000 0.98720  0.80490  0.89710  Biso   1.000  O
  O143     1.0000 0.51280  0.30490  0.60290  Biso   1.000  O
  O144     1.0000 0.01280  0.80490  0.60290  Biso   1.000  O
  H161     1.0000 0.49670  0.72750  0.15650  Biso   1.000  H
  H162     1.0000 0.99670  0.22750  0.15650  Biso   1.000  H
  H163     1.0000 0.50330  0.72750  0.34350  Biso   1.000  H
  H164     1.0000 0.00330  0.22750  0.34350  Biso   1.000  H
  H165     1.0000 0.50330  0.27250  0.84350  Biso   1.000  H
  H166     1.0000 0.00330  0.77250  0.84350  Biso   1.000  H
  H167     1.0000 0.49670  0.27250  0.65650  Biso   1.000  H
  H168     1.0000 0.99670  0.77250  0.65650  Biso   1.000  H
  H169     1.0000 0.48500  0.71290  0.05540  Biso   1.000  H
  H170     1.0000 0.98500  0.21290  0.05540  Biso   1.000  H
  H171     1.0000 0.51500  0.71290  0.44460  Biso   1.000  H
  H172     1.0000 0.01500  0.21290  0.44460  Biso   1.000  H
  H173     1.0000 0.51500  0.28710  0.94460  Biso   1.000  H
  H174     1.0000 0.01500  0.78710  0.94460  Biso   1.000  H
  H175     1.0000 0.48500  0.28710  0.55540  Biso   1.000  H
  H176     1.0000 0.98500  0.78710  0.55540  Biso   1.000  H
  O145     1.0000 0.35492  0.35160  0.51080  Biso   1.000  O
  O146     1.0000 0.85492  0.85160  0.51080  Biso   1.000  O
  O147     1.0000 0.64508  0.35160  0.98920  Biso   1.000  O
  O148     1.0000 0.14508  0.85160  0.98920  Biso   1.000  O
  O149     1.0000 0.64508  0.64840  0.48920  Biso   1.000  O
  O150     1.0000 0.14508  0.14840  0.48920  Biso   1.000  O
  O151     1.0000 0.35492  0.64840  0.01080  Biso   1.000  O
  O152     1.0000 0.85492  0.14840  0.01080  Biso   1.000  O
  H177     1.0000 0.36590  0.29720  0.47040  Biso   1.000  H
  H178     1.0000 0.86590  0.79720  0.47040  Biso   1.000  H
  H179     1.0000 0.63410  0.29720  0.02960  Biso   1.000  H
  H180     1.0000 0.13410  0.79720  0.02960  Biso   1.000  H
  H181     1.0000 0.63410  0.70280  0.52960  Biso   1.000  H
  H182     1.0000 0.13410  0.20280  0.52960  Biso   1.000  H
  H183     1.0000 0.36590  0.70280  0.97040  Biso   1.000  H
  H184     1.0000 0.86590  0.20280  0.97040  Biso   1.000  H
  H185     1.0000 0.34760  0.32200  0.57270  Biso   1.000  H
  H186     1.0000 0.84760  0.82200  0.57270  Biso   1.000  H
  H187     1.0000 0.65240  0.32200  0.92730  Biso   1.000  H
  H188     1.0000 0.15240  0.82200  0.92730  Biso   1.000  H
  H189     1.0000 0.65240  0.67800  0.42730  Biso   1.000  H
  H190     1.0000 0.15240  0.17800  0.42730  Biso   1.000  H
  H191     1.0000 0.34760  0.67800  0.07270  Biso   1.000  H
  H192     1.0000 0.84760  0.17800  0.07270  Biso   1.000  H
  O153     1.0000 0.50000  0.16130  0.75000  Biso   1.000  O
  O154     1.0000 0.00000  0.66130  0.75000  Biso   1.000  O
  O155     1.0000 0.50000  0.83870  0.25000  Biso   1.000  O
  O156     1.0000 0.00000  0.33870  0.25000  Biso   1.000  O
  H193     1.0000 0.53700  0.13750  0.75230  Biso   1.000  H
  H194     1.0000 0.03700  0.63750  0.75230  Biso   1.000  H
  H195     1.0000 0.46300  0.13750  0.74770  Biso   1.000  H
  H196     1.0000 0.96300  0.63750  0.74770  Biso   1.000  H
  H197     1.0000 0.46300  0.86250  0.24770  Biso   1.000  H
  H198     1.0000 0.96300  0.36250  0.24770  Biso   1.000  H
  H199     1.0000 0.53700  0.86250  0.25230  Biso   1.000  H
  H200     1.0000 0.03700  0.36250  0.25230  Biso   1.000  H
  H201     1.0000 0.47300  0.11120  0.76170  Biso   1.000  H
  H202     1.0000 0.97300  0.61120  0.76170  Biso   1.000  H
  H203     1.0000 0.52700  0.11120  0.73830  Biso   1.000  H
  H204     1.0000 0.02700  0.61120  0.73830  Biso   1.000  H
  H205     1.0000 0.52700  0.88880  0.23830  Biso   1.000  H
  H206     1.0000 0.02700  0.38880  0.23830  Biso   1.000  H
  H207     1.0000 0.47300  0.88880  0.26170  Biso   1.000  H
  H208     1.0000 0.97300  0.38880  0.26170  Biso   1.000  H
