data_image0
_cell_length_a       6.0471
_cell_length_b       16.9379
_cell_length_c       27.476
_cell_angle_alpha    90
_cell_angle_beta     90
_cell_angle_gamma    90

_symmetry_space_group_name_H-M    "P 1"
_symmetry_int_tables_number       1

loop_
  _symmetry_equiv_pos_as_xyz
  'x, y, z'

loop_
  _atom_site_label
  _atom_site_occupancy
  _atom_site_fract_x
  _atom_site_fract_y
  _atom_site_fract_z
  _atom_site_thermal_displace_type
  _atom_site_B_iso_or_equiv
  _atom_site_type_symbol
  C1       1.0000 0.52650  0.84260  0.66880  Biso   1.000  C
  C2       1.0000 0.97350  0.15740  0.16880  Biso   1.000  C
  C3       1.0000 0.47350  0.34260  0.83120  Biso   1.000  C
  C4       1.0000 0.02650  0.65740  0.33120  Biso   1.000  C
  H1       1.0000 0.38290  0.84000  0.65400  Biso   1.000  H
  H2       1.0000 0.11710  0.16000  0.15400  Biso   1.000  H
  H3       1.0000 0.61710  0.34000  0.84600  Biso   1.000  H
  H4       1.0000 0.88290  0.66000  0.34600  Biso   1.000  H
  H5       1.0000 0.56680  0.89690  0.67370  Biso   1.000  H
  H6       1.0000 0.93320  0.10310  0.17370  Biso   1.000  H
  H7       1.0000 0.43320  0.39690  0.82630  Biso   1.000  H
  H8       1.0000 0.06680  0.60310  0.32630  Biso   1.000  H
  H9       1.0000 0.52320  0.81590  0.69960  Biso   1.000  H
  H10      1.0000 0.97680  0.18410  0.19960  Biso   1.000  H
  H11      1.0000 0.47680  0.31590  0.80040  Biso   1.000  H
  H12      1.0000 0.02320  0.68410  0.30040  Biso   1.000  H
  C5       1.0000 0.69770  0.80270  0.63520  Biso   1.000  C
  C6       1.0000 0.80230  0.19730  0.13520  Biso   1.000  C
  C7       1.0000 0.30230  0.30270  0.86480  Biso   1.000  C
  C8       1.0000 0.19770  0.69730  0.36480  Biso   1.000  C
  H13      1.0000 0.64140  0.80390  0.60220  Biso   1.000  H
  H14      1.0000 0.85860  0.19610  0.10220  Biso   1.000  H
  H15      1.0000 0.35860  0.30390  0.89780  Biso   1.000  H
  H16      1.0000 0.14140  0.69610  0.39780  Biso   1.000  H
  H17      1.0000 0.83240  0.83380  0.63590  Biso   1.000  H
  H18      1.0000 0.66760  0.16620  0.13590  Biso   1.000  H
  H19      1.0000 0.16760  0.33380  0.86410  Biso   1.000  H
  H20      1.0000 0.33240  0.66620  0.36410  Biso   1.000  H
  C9       1.0000 0.75530  0.71850  0.64780  Biso   1.000  C
  C10      1.0000 0.74470  0.28150  0.14780  Biso   1.000  C
  C11      1.0000 0.24470  0.21850  0.85220  Biso   1.000  C
  C12      1.0000 0.25530  0.78150  0.35220  Biso   1.000  C
  H21      1.0000 0.61970  0.68680  0.64820  Biso   1.000  H
  H22      1.0000 0.88030  0.31320  0.14820  Biso   1.000  H
  H23      1.0000 0.38030  0.18680  0.85180  Biso   1.000  H
  H24      1.0000 0.11970  0.81320  0.35180  Biso   1.000  H
  C13      1.0000 0.91630  0.68340  0.61040  Biso   1.000  C
  C14      1.0000 0.58370  0.31660  0.11040  Biso   1.000  C
  C15      1.0000 0.08370  0.18340  0.88960  Biso   1.000  C
  C16      1.0000 0.41630  0.81660  0.38960  Biso   1.000  C
  C17      1.0000 0.88180  0.60670  0.59300  Biso   1.000  C
  C18      1.0000 0.61820  0.39330  0.09300  Biso   1.000  C
  C19      1.0000 0.11820  0.10670  0.90700  Biso   1.000  C
  C20      1.0000 0.38180  0.89330  0.40700  Biso   1.000  C
  H25      1.0000 0.76350  0.57700  0.60450  Biso   1.000  H
  H26      1.0000 0.73650  0.42300  0.10450  Biso   1.000  H
  H27      1.0000 0.23650  0.07700  0.89550  Biso   1.000  H
  H28      1.0000 0.26350  0.92300  0.39550  Biso   1.000  H
  C21      1.0000 0.02430  0.57530  0.55860  Biso   1.000  C
  C22      1.0000 0.47570  0.42470  0.05860  Biso   1.000  C
  C23      1.0000 0.97570  0.07530  0.94140  Biso   1.000  C
  C24      1.0000 0.52430  0.92470  0.44140  Biso   1.000  C
  H29      1.0000 0.00000  0.52490  0.54640  Biso   1.000  H
  H30      1.0000 0.50000  0.47510  0.04640  Biso   1.000  H
  H31      1.0000 0.00000  0.02490  0.95360  Biso   1.000  H
  H32      1.0000 0.50000  0.97510  0.45360  Biso   1.000  H
  C25      1.0000 0.20320  0.61920  0.54250  Biso   1.000  C
  C26      1.0000 0.29680  0.38080  0.04250  Biso   1.000  C
  C27      1.0000 0.79680  0.11920  0.95750  Biso   1.000  C
  C28      1.0000 0.70320  0.88080  0.45750  Biso   1.000  C
  H33      1.0000 0.29870  0.59760  0.51950  Biso   1.000  H
  H34      1.0000 0.20130  0.40240  0.01950  Biso   1.000  H
  H35      1.0000 0.70130  0.09760  0.98050  Biso   1.000  H
  H36      1.0000 0.79870  0.90240  0.48050  Biso   1.000  H
  C29      1.0000 0.24290  0.69540  0.56010  Biso   1.000  C
  C30      1.0000 0.25710  0.30460  0.06010  Biso   1.000  C
  C31      1.0000 0.75710  0.19540  0.93990  Biso   1.000  C
  C32      1.0000 0.74290  0.80460  0.43990  Biso   1.000  C
  H37      1.0000 0.36490  0.72430  0.54970  Biso   1.000  H
  H38      1.0000 0.13510  0.27570  0.04970  Biso   1.000  H
  H39      1.0000 0.63510  0.22430  0.95030  Biso   1.000  H
  H40      1.0000 0.86490  0.77570  0.45030  Biso   1.000  H
  C33      1.0000 0.09360  0.72660  0.59360  Biso   1.000  C
  C34      1.0000 0.40640  0.27340  0.09360  Biso   1.000  C
  C35      1.0000 0.90640  0.22660  0.90640  Biso   1.000  C
  C36      1.0000 0.59360  0.77340  0.40640  Biso   1.000  C
  H41      1.0000 0.11410  0.77790  0.60490  Biso   1.000  H
  H42      1.0000 0.38590  0.22210  0.10490  Biso   1.000  H
  H43      1.0000 0.88590  0.27790  0.89510  Biso   1.000  H
  H44      1.0000 0.61410  0.72210  0.39510  Biso   1.000  H
  C37      1.0000 0.76500  0.61620  0.87870  Biso   1.000  C
  C38      1.0000 0.73500  0.38380  0.37870  Biso   1.000  C
  C39      1.0000 0.23500  0.11620  0.62130  Biso   1.000  C
  C40      1.0000 0.26500  0.88380  0.12130  Biso   1.000  C
  H45      1.0000 0.66290  0.60210  0.90400  Biso   1.000  H
  H46      1.0000 0.83710  0.39790  0.40400  Biso   1.000  H
  H47      1.0000 0.33710  0.10210  0.59600  Biso   1.000  H
  H48      1.0000 0.16290  0.89790  0.09600  Biso   1.000  H
  H49      1.0000 0.89540  0.58410  0.88130  Biso   1.000  H
  H50      1.0000 0.60460  0.41590  0.38130  Biso   1.000  H
  H51      1.0000 0.10460  0.08410  0.61870  Biso   1.000  H
  H52      1.0000 0.39540  0.91590  0.11870  Biso   1.000  H
  H53      1.0000 0.69710  0.60760  0.84750  Biso   1.000  H
  H54      1.0000 0.80290  0.39240  0.34750  Biso   1.000  H
  H55      1.0000 0.30290  0.10760  0.65250  Biso   1.000  H
  H56      1.0000 0.19710  0.89240  0.15250  Biso   1.000  H
  C41      1.0000 0.82610  0.70040  0.88360  Biso   1.000  C
  C42      1.0000 0.67390  0.29960  0.38360  Biso   1.000  C
  C43      1.0000 0.17390  0.20040  0.61640  Biso   1.000  C
  C44      1.0000 0.32610  0.79960  0.11640  Biso   1.000  C
  H57      1.0000 0.95140  0.71240  0.86280  Biso   1.000  H
  H58      1.0000 0.54860  0.28760  0.36280  Biso   1.000  H
  H59      1.0000 0.04860  0.21240  0.63720  Biso   1.000  H
  H60      1.0000 0.45140  0.78760  0.13720  Biso   1.000  H
  H61      1.0000 0.86740  0.71180  0.91700  Biso   1.000  H
  H62      1.0000 0.63260  0.28820  0.41700  Biso   1.000  H
  H63      1.0000 0.13260  0.21180  0.58300  Biso   1.000  H
  H64      1.0000 0.36740  0.78820  0.08300  Biso   1.000  H
  C45      1.0000 0.62550  0.75130  0.86870  Biso   1.000  C
  C46      1.0000 0.87450  0.24870  0.36870  Biso   1.000  C
  C47      1.0000 0.37450  0.25130  0.63130  Biso   1.000  C
  C48      1.0000 0.12550  0.74870  0.13130  Biso   1.000  C
  H65      1.0000 0.50320  0.71710  0.85870  Biso   1.000  H
  H66      1.0000 0.99680  0.28290  0.35870  Biso   1.000  H
  H67      1.0000 0.49680  0.21710  0.64130  Biso   1.000  H
  H68      1.0000 0.00320  0.78290  0.14130  Biso   1.000  H
  C49      1.0000 0.55590  0.80050  0.91250  Biso   1.000  C
  C50      1.0000 0.94410  0.19950  0.41250  Biso   1.000  C
  C51      1.0000 0.44410  0.30050  0.58750  Biso   1.000  C
  C52      1.0000 0.05590  0.69950  0.08750  Biso   1.000  C
  C53      1.0000 0.36670  0.78020  0.93830  Biso   1.000  C
  C54      1.0000 0.13330  0.21980  0.43830  Biso   1.000  C
  C55      1.0000 0.63330  0.28020  0.56170  Biso   1.000  C
  C56      1.0000 0.86670  0.71980  0.06170  Biso   1.000  C
  H69      1.0000 0.28030  0.73760  0.92860  Biso   1.000  H
  H70      1.0000 0.21970  0.26240  0.42860  Biso   1.000  H
  H71      1.0000 0.71970  0.23760  0.57140  Biso   1.000  H
  H72      1.0000 0.78030  0.76240  0.07140  Biso   1.000  H
  C57      1.0000 0.30890  0.82430  0.97880  Biso   1.000  C
  C58      1.0000 0.19110  0.17570  0.47880  Biso   1.000  C
  C59      1.0000 0.69110  0.32430  0.52120  Biso   1.000  C
  C60      1.0000 0.80890  0.67570  0.02120  Biso   1.000  C
  H73      1.0000 0.18540  0.80990  0.99690  Biso   1.000  H
  H74      1.0000 0.31460  0.19010  0.49690  Biso   1.000  H
  H75      1.0000 0.81460  0.30990  0.50310  Biso   1.000  H
  H76      1.0000 0.68540  0.69010  0.00310  Biso   1.000  H
  C61      1.0000 0.43010  0.88870  0.99260  Biso   1.000  C
  C62      1.0000 0.06990  0.11130  0.49260  Biso   1.000  C
  C63      1.0000 0.56990  0.38870  0.50740  Biso   1.000  C
  C64      1.0000 0.93010  0.61130  0.00740  Biso   1.000  C
  H77      1.0000 0.38850  0.91700  0.02010  Biso   1.000  H
  H78      1.0000 0.11150  0.08300  0.52010  Biso   1.000  H
  H79      1.0000 0.61150  0.41700  0.47990  Biso   1.000  H
  H80      1.0000 0.88850  0.58300  0.97990  Biso   1.000  H
  C65      1.0000 0.61310  0.91240  0.96640  Biso   1.000  C
  C66      1.0000 0.88690  0.08760  0.46640  Biso   1.000  C
  C67      1.0000 0.38690  0.41240  0.53360  Biso   1.000  C
  C68      1.0000 0.11310  0.58760  0.03360  Biso   1.000  C
  H81      1.0000 0.69020  0.95760  0.97540  Biso   1.000  H
  H82      1.0000 0.80980  0.04240  0.47540  Biso   1.000  H
  H83      1.0000 0.30980  0.45760  0.52460  Biso   1.000  H
  H84      1.0000 0.19020  0.54240  0.02460  Biso   1.000  H
  C69      1.0000 0.68130  0.86850  0.92660  Biso   1.000  C
  C70      1.0000 0.81870  0.13150  0.42660  Biso   1.000  C
  C71      1.0000 0.31870  0.36850  0.57340  Biso   1.000  C
  C72      1.0000 0.18130  0.63150  0.07340  Biso   1.000  C
  H85      1.0000 0.80700  0.88300  0.90920  Biso   1.000  H
  H86      1.0000 0.69300  0.11700  0.40920  Biso   1.000  H
  H87      1.0000 0.19300  0.38300  0.59080  Biso   1.000  H
  H88      1.0000 0.30700  0.61700  0.09080  Biso   1.000  H
  Cu1      1.0000 0.76237  0.75577  0.76046  Biso   1.000  Cu
  Cu2      1.0000 0.73763  0.24423  0.26046  Biso   1.000  Cu
  Cu3      1.0000 0.23763  0.25577  0.73954  Biso   1.000  Cu
  Cu4      1.0000 0.26237  0.74423  0.23954  Biso   1.000  Cu
  Cu5      1.0000 0.39942  0.01323  0.74741  Biso   1.000  Cu
  Cu6      1.0000 0.10058  0.98677  0.24741  Biso   1.000  Cu
  Cu7      1.0000 0.60058  0.51323  0.75259  Biso   1.000  Cu
  Cu8      1.0000 0.89942  0.48677  0.25259  Biso   1.000  Cu
  Cu9      1.0000 0.89619  0.99600  0.74659  Biso   1.000  Cu
  Cu10     1.0000 0.60381  0.00400  0.24659  Biso   1.000  Cu
  Cu11     1.0000 0.10381  0.49600  0.75341  Biso   1.000  Cu
  Cu12     1.0000 0.39619  0.50400  0.25341  Biso   1.000  Cu
  N1       1.0000 0.87230  0.71020  0.69691  Biso   1.000  N
  N2       1.0000 0.62770  0.28980  0.19691  Biso   1.000  N
  N3       1.0000 0.12770  0.21020  0.80309  Biso   1.000  N
  N4       1.0000 0.37230  0.78980  0.30309  Biso   1.000  N
  H89      1.0000 0.00940  0.72970  0.69260  Biso   1.000  H
  H90      1.0000 0.49060  0.27030  0.19260  Biso   1.000  H
  H91      1.0000 0.99060  0.22970  0.80740  Biso   1.000  H
  H92      1.0000 0.50940  0.77030  0.30740  Biso   1.000  H
  H93      1.0000 0.88840  0.65810  0.70200  Biso   1.000  H
  H94      1.0000 0.61160  0.34190  0.20200  Biso   1.000  H
  H95      1.0000 0.11160  0.15810  0.79800  Biso   1.000  H
  H96      1.0000 0.38840  0.84190  0.29800  Biso   1.000  H
  N5       1.0000 0.69750  0.80140  0.82672  Biso   1.000  N
  N6       1.0000 0.80250  0.19860  0.32672  Biso   1.000  N
  N7       1.0000 0.30250  0.30140  0.67328  Biso   1.000  N
  N8       1.0000 0.19750  0.69860  0.17328  Biso   1.000  N
  H97      1.0000 0.82050  0.82700  0.83630  Biso   1.000  H
  H98      1.0000 0.67950  0.17300  0.33630  Biso   1.000  H
  H99      1.0000 0.17950  0.32700  0.66370  Biso   1.000  H
  H100     1.0000 0.32050  0.67300  0.16370  Biso   1.000  H
  H101     1.0000 0.59240  0.83840  0.82250  Biso   1.000  H
  H102     1.0000 0.90760  0.16160  0.32250  Biso   1.000  H
  H103     1.0000 0.40760  0.33840  0.67750  Biso   1.000  H
  H104     1.0000 0.09240  0.66160  0.17750  Biso   1.000  H
  N9       1.0000 0.54090  0.66420  0.76914  Biso   1.000  N
  N10      1.0000 0.95910  0.33580  0.26914  Biso   1.000  N
  N11      1.0000 0.45910  0.16420  0.73086  Biso   1.000  N
  N12      1.0000 0.04090  0.83580  0.23086  Biso   1.000  N
  N13      1.0000 0.35300  0.67240  0.77248  Biso   1.000  N
  N14      1.0000 0.14700  0.32760  0.27248  Biso   1.000  N
  N15      1.0000 0.64700  0.17240  0.72752  Biso   1.000  N
  N16      1.0000 0.85300  0.82760  0.22752  Biso   1.000  N
  N17      1.0000 0.16940  0.67510  0.77880  Biso   1.000  N
  N18      1.0000 0.33060  0.32490  0.27880  Biso   1.000  N
  N19      1.0000 0.83060  0.17510  0.72120  Biso   1.000  N
  N20      1.0000 0.66940  0.82490  0.22120  Biso   1.000  N
  N21      1.0000 0.66230  0.99150  0.79214  Biso   1.000  N
  N22      1.0000 0.83770  0.00850  0.29214  Biso   1.000  N
  N23      1.0000 0.33770  0.49150  0.70786  Biso   1.000  N
  N24      1.0000 0.16230  0.50850  0.20786  Biso   1.000  N
  N25      1.0000 0.66970  0.02990  0.83220  Biso   1.000  N
  N26      1.0000 0.83030  0.97010  0.33220  Biso   1.000  N
  N27      1.0000 0.33030  0.52990  0.66780  Biso   1.000  N
  N28      1.0000 0.16970  0.47010  0.16780  Biso   1.000  N
  N29      1.0000 0.68410  0.06410  0.86680  Biso   1.000  N
  N30      1.0000 0.81590  0.93590  0.36680  Biso   1.000  N
  N31      1.0000 0.31590  0.56410  0.63320  Biso   1.000  N
  N32      1.0000 0.18410  0.43590  0.13320  Biso   1.000  N
  N33      1.0000 0.63570  0.99930  0.69943  Biso   1.000  N
  N34      1.0000 0.86430  0.00070  0.19943  Biso   1.000  N
  N35      1.0000 0.36430  0.49930  0.80057  Biso   1.000  N
  N36      1.0000 0.13570  0.50070  0.30057  Biso   1.000  N
  N37      1.0000 0.65590  0.99440  0.65539  Biso   1.000  N
  N38      1.0000 0.84410  0.00560  0.15539  Biso   1.000  N
  N39      1.0000 0.34410  0.49440  0.84461  Biso   1.000  N
  N40      1.0000 0.15590  0.50560  0.34461  Biso   1.000  N
  N41      1.0000 0.67130  0.98900  0.61601  Biso   1.000  N
  N42      1.0000 0.82870  0.01100  0.11601  Biso   1.000  N
  N43      1.0000 0.32870  0.48900  0.88399  Biso   1.000  N
  N44      1.0000 0.17130  0.51100  0.38399  Biso   1.000  N
  N45      1.0000 0.14520  0.02230  0.79696  Biso   1.000  N
  N46      1.0000 0.35480  0.97770  0.29696  Biso   1.000  N
  N47      1.0000 0.85480  0.52230  0.70304  Biso   1.000  N
  N48      1.0000 0.64520  0.47770  0.20304  Biso   1.000  N
  N49      1.0000 0.19470  0.99540  0.83626  Biso   1.000  N
  N50      1.0000 0.30530  0.00460  0.33626  Biso   1.000  N
  N51      1.0000 0.80530  0.49540  0.66374  Biso   1.000  N
  N52      1.0000 0.69470  0.50460  0.16374  Biso   1.000  N
  N53      1.0000 0.22560  0.97570  0.87332  Biso   1.000  N
  N54      1.0000 0.27440  0.02430  0.37332  Biso   1.000  N
  N55      1.0000 0.77440  0.47570  0.62668  Biso   1.000  N
  N56      1.0000 0.72560  0.52430  0.12668  Biso   1.000  N
  N57      1.0000 0.14330  0.00630  0.70230  Biso   1.000  N
  N58      1.0000 0.35670  0.99370  0.20230  Biso   1.000  N
  N59      1.0000 0.85670  0.50630  0.79770  Biso   1.000  N
  N60      1.0000 0.64330  0.49370  0.29770  Biso   1.000  N
  N61      1.0000 0.15070  0.97770  0.66366  Biso   1.000  N
  N62      1.0000 0.34930  0.02230  0.16366  Biso   1.000  N
  N63      1.0000 0.84930  0.47770  0.83634  Biso   1.000  N
  N64      1.0000 0.65070  0.52230  0.33634  Biso   1.000  N
  N65      1.0000 0.17240  0.95050  0.62480  Biso   1.000  N
  N66      1.0000 0.32760  0.04950  0.12480  Biso   1.000  N
  N67      1.0000 0.82760  0.45050  0.87520  Biso   1.000  N
  N68      1.0000 0.67240  0.54950  0.37520  Biso   1.000  N
  N69      1.0000 0.95050  0.85250  0.75191  Biso   1.000  N
  N70      1.0000 0.54950  0.14750  0.25191  Biso   1.000  N
  N71      1.0000 0.04950  0.35250  0.74809  Biso   1.000  N
  N72      1.0000 0.45050  0.64750  0.24809  Biso   1.000  N
  N73      1.0000 0.15360  0.84470  0.74780  Biso   1.000  N
  N74      1.0000 0.34640  0.15530  0.24780  Biso   1.000  N
  N75      1.0000 0.84640  0.34470  0.75220  Biso   1.000  N
  N76      1.0000 0.65360  0.65530  0.25220  Biso   1.000  N
  N77      1.0000 0.34420  0.84440  0.74490  Biso   1.000  N
  N78      1.0000 0.15580  0.15560  0.24490  Biso   1.000  N
  N79      1.0000 0.65580  0.34440  0.75510  Biso   1.000  N
  N80      1.0000 0.84420  0.65560  0.25510  Biso   1.000  N
