data_image0
_cell_length_a       13.722
_cell_length_b       6.0487
_cell_length_c       16.91
_cell_angle_alpha    90
_cell_angle_beta     97.687
_cell_angle_gamma    90

_symmetry_space_group_name_H-M    "P 1"
_symmetry_int_tables_number       1

loop_
  _symmetry_equiv_pos_as_xyz
  'x, y, z'

loop_
  _atom_site_label
  _atom_site_occupancy
  _atom_site_fract_x
  _atom_site_fract_y
  _atom_site_fract_z
  _atom_site_thermal_displace_type
  _atom_site_B_iso_or_equiv
  _atom_site_type_symbol
  C1       1.0000 0.21820  0.25160  0.20600  Biso   1.000  C
  C2       1.0000 0.78180  0.75160  0.79400  Biso   1.000  C
  H1       1.0000 0.26430  0.15500  0.18530  Biso   1.000  H
  H2       1.0000 0.73570  0.65500  0.81470  Biso   1.000  H
  H3       1.0000 0.23820  0.40240  0.20050  Biso   1.000  H
  H4       1.0000 0.76180  0.90240  0.79950  Biso   1.000  H
  H5       1.0000 0.15400  0.23020  0.17670  Biso   1.000  H
  H6       1.0000 0.84600  0.73020  0.82330  Biso   1.000  H
  C3       1.0000 0.21540  0.20040  0.29300  Biso   1.000  C
  C4       1.0000 0.78460  0.70040  0.70700  Biso   1.000  C
  H7       1.0000 0.20170  0.34010  0.31870  Biso   1.000  H
  H8       1.0000 0.79830  0.84010  0.68130  Biso   1.000  H
  C5       1.0000 0.31130  0.10830  0.33930  Biso   1.000  C
  C6       1.0000 0.68870  0.60830  0.66070  Biso   1.000  C
  H9       1.0000 0.29400  0.06260  0.39130  Biso   1.000  H
  H10      1.0000 0.70600  0.56260  0.60870  Biso   1.000  H
  C7       1.0000 0.38790  0.27980  0.35740  Biso   1.000  C
  C8       1.0000 0.61210  0.77980  0.64260  Biso   1.000  C
  H11      1.0000 0.36230  0.40340  0.38490  Biso   1.000  H
  H12      1.0000 0.63770  0.90340  0.61510  Biso   1.000  H
  H13      1.0000 0.40910  0.33390  0.30850  Biso   1.000  H
  H14      1.0000 0.59090  0.83390  0.69150  Biso   1.000  H
  C9       1.0000 0.47330  0.17390  0.40990  Biso   1.000  C
  C10      1.0000 0.52670  0.67390  0.59010  Biso   1.000  C
  H15      1.0000 0.52460  0.28300  0.42370  Biso   1.000  H
  H16      1.0000 0.47540  0.78300  0.57630  Biso   1.000  H
  H17      1.0000 0.45130  0.12290  0.45900  Biso   1.000  H
  H18      1.0000 0.54870  0.62290  0.54100  Biso   1.000  H
  C11      1.0000 0.51360  0.98480  0.36890  Biso   1.000  C
  C12      1.0000 0.48640  0.48480  0.63110  Biso   1.000  C
  H19      1.0000 0.57040  0.92400  0.40210  Biso   1.000  H
  H20      1.0000 0.42960  0.42400  0.59790  Biso   1.000  H
  H21      1.0000 0.53410  0.03340  0.31900  Biso   1.000  H
  H22      1.0000 0.46590  0.53340  0.68100  Biso   1.000  H
  C13      1.0000 0.43390  0.80970  0.35290  Biso   1.000  C
  C14      1.0000 0.56610  0.30970  0.64710  Biso   1.000  C
  H23      1.0000 0.45990  0.68380  0.32690  Biso   1.000  H
  H24      1.0000 0.54010  0.18380  0.67310  Biso   1.000  H
  H25      1.0000 0.41530  0.75960  0.40330  Biso   1.000  H
  H26      1.0000 0.58470  0.25960  0.59670  Biso   1.000  H
  C15      1.0000 0.34380  0.89630  0.30080  Biso   1.000  C
  C16      1.0000 0.65620  0.39630  0.69920  Biso   1.000  C
  H27      1.0000 0.29150  0.78720  0.29680  Biso   1.000  H
  H28      1.0000 0.70850  0.28720  0.70320  Biso   1.000  H
  H29      1.0000 0.35920  0.92720  0.24760  Biso   1.000  H
  H30      1.0000 0.64080  0.42720  0.75240  Biso   1.000  H
  C17      1.0000 0.76820  0.27410  0.30960  Biso   1.000  C
  C18      1.0000 0.23180  0.77410  0.69040  Biso   1.000  C
  H31      1.0000 0.74990  0.12100  0.30590  Biso   1.000  H
  H32      1.0000 0.25010  0.62100  0.69410  Biso   1.000  H
  H33      1.0000 0.71540  0.35890  0.32620  Biso   1.000  H
  H34      1.0000 0.28460  0.85890  0.67380  Biso   1.000  H
  H35      1.0000 0.82600  0.29120  0.34790  Biso   1.000  H
  H36      1.0000 0.17400  0.79120  0.65210  Biso   1.000  H
  C19      1.0000 0.78920  0.35500  0.22910  Biso   1.000  C
  C20      1.0000 0.21080  0.85500  0.77090  Biso   1.000  C
  H37      1.0000 0.82240  0.49850  0.23680  Biso   1.000  H
  H38      1.0000 0.17760  0.99850  0.76320  Biso   1.000  H
  C21      1.0000 0.69770  0.38530  0.16760  Biso   1.000  C
  C22      1.0000 0.30230  0.88530  0.83240  Biso   1.000  C
  H39      1.0000 0.72000  0.40930  0.11550  Biso   1.000  H
  H40      1.0000 0.28000  0.90930  0.88450  Biso   1.000  H
  C23      1.0000 0.62920  0.18780  0.15970  Biso   1.000  C
  C24      1.0000 0.37080  0.68780  0.84030  Biso   1.000  C
  H41      1.0000 0.66540  0.05630  0.14840  Biso   1.000  H
  H42      1.0000 0.33460  0.55630  0.85160  Biso   1.000  H
  H43      1.0000 0.60300  0.16460  0.20960  Biso   1.000  H
  H44      1.0000 0.39700  0.66460  0.79040  Biso   1.000  H
  C25      1.0000 0.54590  0.22630  0.09340  Biso   1.000  C
  C26      1.0000 0.45410  0.72630  0.90660  Biso   1.000  C
  H45      1.0000 0.50320  0.09800  0.08750  Biso   1.000  H
  H46      1.0000 0.49680  0.59800  0.91250  Biso   1.000  H
  H47      1.0000 0.57190  0.24920  0.04340  Biso   1.000  H
  H48      1.0000 0.42810  0.74920  0.95660  Biso   1.000  H
  C27      1.0000 0.48820  0.42800  0.11300  Biso   1.000  C
  C28      1.0000 0.51180  0.92800  0.88700  Biso   1.000  C
  H49      1.0000 0.43420  0.45290  0.07070  Biso   1.000  H
  H50      1.0000 0.56580  0.95290  0.92930  Biso   1.000  H
  H51      1.0000 0.46080  0.40270  0.16220  Biso   1.000  H
  H52      1.0000 0.53920  0.90270  0.83780  Biso   1.000  H
  C29      1.0000 0.55290  0.62650  0.12180  Biso   1.000  C
  C30      1.0000 0.44710  0.12650  0.87820  Biso   1.000  C
  H53      1.0000 0.51560  0.75330  0.13610  Biso   1.000  H
  H54      1.0000 0.48440  0.25330  0.86390  Biso   1.000  H
  H55      1.0000 0.57630  0.65830  0.07140  Biso   1.000  H
  H56      1.0000 0.42370  0.15830  0.92860  Biso   1.000  H
  C31      1.0000 0.64100  0.58730  0.18650  Biso   1.000  C
  C32      1.0000 0.35900  0.08730  0.81350  Biso   1.000  C
  H57      1.0000 0.68390  0.71530  0.19000  Biso   1.000  H
  H58      1.0000 0.31610  0.21530  0.81000  Biso   1.000  H
  H59      1.0000 0.61780  0.56820  0.23770  Biso   1.000  H
  H60      1.0000 0.38220  0.06820  0.76230  Biso   1.000  H
  Cu1      1.0000 0.99545  0.13686  0.25269  Biso   1.000  Cu
  Cu2      1.0000 0.00455  0.63686  0.74731  Biso   1.000  Cu
  Cu3      1.0000 0.99920  0.31196  0.48910  Biso   1.000  Cu
  Cu4      1.0000 0.00080  0.81196  0.51090  Biso   1.000  Cu
  Cu5      1.0000 0.00030  0.00811  0.00622  Biso   1.000  Cu
  Cu6      1.0000 0.99970  0.50811  0.99378  Biso   1.000  Cu
  N1       1.0000 0.13170  0.05250  0.30050  Biso   1.000  N
  N2       1.0000 0.86830  0.55250  0.69950  Biso   1.000  N
  H61      1.0000 0.13040  0.02980  0.35290  Biso   1.000  H
  H62      1.0000 0.86960  0.52980  0.64710  Biso   1.000  H
  H63      1.0000 0.14530  0.92130  0.27930  Biso   1.000  H
  H64      1.0000 0.85470  0.42130  0.72070  Biso   1.000  H
  N3       1.0000 0.85860  0.19630  0.19690  Biso   1.000  N
  N4       1.0000 0.14140  0.69630  0.80310  Biso   1.000  N
  H65      1.0000 0.86530  0.24260  0.14730  Biso   1.000  H
  H66      1.0000 0.13470  0.74260  0.85270  Biso   1.000  H
  H67      1.0000 0.82770  0.06500  0.19150  Biso   1.000  H
  H68      1.0000 0.17230  0.56500  0.80850  Biso   1.000  H
  N5       1.0000 0.99030  0.35570  0.34200  Biso   1.000  N
  N6       1.0000 0.00970  0.85570  0.65800  Biso   1.000  N
  N7       1.0000 0.98080  0.55050  0.33310  Biso   1.000  N
  N8       1.0000 0.01920  0.05050  0.66690  Biso   1.000  N
  N9       1.0000 0.97010  0.73210  0.33050  Biso   1.000  N
  N10      1.0000 0.02990  0.23210  0.66950  Biso   1.000  N
  N11      1.0000 0.00850  0.94160  0.15530  Biso   1.000  N
  N12      1.0000 0.99150  0.44160  0.84470  Biso   1.000  N
  N13      1.0000 0.96830  0.77630  0.15830  Biso   1.000  N
  N14      1.0000 0.03170  0.27630  0.84170  Biso   1.000  N
  N15      1.0000 0.92710  0.60540  0.15740  Biso   1.000  N
  N16      1.0000 0.07290  0.10540  0.84260  Biso   1.000  N
  N17      1.0000 0.09600  0.05610  0.49590  Biso   1.000  N
  N18      1.0000 0.90400  0.55610  0.50410  Biso   1.000  N
  N19      1.0000 0.16280  0.05600  0.55270  Biso   1.000  N
  N20      1.0000 0.83720  0.55600  0.44730  Biso   1.000  N
  N21      1.0000 0.22340  0.04730  0.60190  Biso   1.000  N
  N22      1.0000 0.77660  0.54730  0.39810  Biso   1.000  N
  N23      1.0000 0.90920  0.06570  0.49020  Biso   1.000  N
  N24      1.0000 0.09080  0.56570  0.50980  Biso   1.000  N
  N25      1.0000 0.82860  0.08440  0.51390  Biso   1.000  N
  N26      1.0000 0.17140  0.58440  0.48610  Biso   1.000  N
  N27      1.0000 0.75430  0.09980  0.53380  Biso   1.000  N
  N28      1.0000 0.24570  0.59980  0.46620  Biso   1.000  N
  N29      1.0000 0.09450  0.26090  0.01400  Biso   1.000  N
  N30      1.0000 0.90550  0.76090  0.98600  Biso   1.000  N
  N31      1.0000 0.15450  0.29110  0.96770  Biso   1.000  N
  N32      1.0000 0.84550  0.79110  0.03230  Biso   1.000  N
  N33      1.0000 0.20670  0.31200  0.92850  Biso   1.000  N
  N34      1.0000 0.79330  0.81200  0.07150  Biso   1.000  N
  N35      1.0000 0.90500  0.25820  0.00110  Biso   1.000  N
  N36      1.0000 0.09500  0.75820  0.99890  Biso   1.000  N
  N37      1.0000 0.82400  0.25300  0.95880  Biso   1.000  N
  N38      1.0000 0.17600  0.75300  0.04120  Biso   1.000  N
  N39      1.0000 0.75190  0.24340  0.92290  Biso   1.000  N
  N40      1.0000 0.24810  0.74340  0.07710  Biso   1.000  N
