data_image0
_cell_length_a       7.0589
_cell_length_b       7.5727
_cell_length_c       13.0623
_cell_angle_alpha    91.035
_cell_angle_beta     105.557
_cell_angle_gamma    96.258

_symmetry_space_group_name_H-M    "P 1"
_symmetry_int_tables_number       1

loop_
  _symmetry_equiv_pos_as_xyz
  'x, y, z'

loop_
  _atom_site_label
  _atom_site_occupancy
  _atom_site_fract_x
  _atom_site_fract_y
  _atom_site_fract_z
  _atom_site_thermal_displace_type
  _atom_site_B_iso_or_equiv
  _atom_site_type_symbol
  Cu1      1.0000 0.50000  0.50000  0.50000  Biso   1.000  Cu
  O1       1.0000 0.76830  0.63020  0.94694  Biso   1.000  O
  O2       1.0000 0.23170  0.36980  0.05306  Biso   1.000  O
  N1       1.0000 0.32260  0.68050  0.43912  Biso   1.000  N
  N2       1.0000 0.67740  0.31950  0.56088  Biso   1.000  N
  N3       1.0000 0.12890  0.93000  0.42520  Biso   1.000  N
  N4       1.0000 0.87110  0.07000  0.57480  Biso   1.000  N
  N5       1.0000 0.23830  0.24880  0.42722  Biso   1.000  N
  N6       1.0000 0.76170  0.75120  0.57278  Biso   1.000  N
  N7       1.0000 0.40450  0.51500  0.63448  Biso   1.000  N
  N8       1.0000 0.59550  0.48500  0.36552  Biso   1.000  N
  N9       1.0000 0.52890  0.77830  0.97935  Biso   1.000  N
  N10      1.0000 0.47110  0.22170  0.02065  Biso   1.000  N
  H1       1.0000 0.41200  0.81200  0.95600  Biso   1.000  H
  H2       1.0000 0.58800  0.18800  0.04400  Biso   1.000  H
  H3       1.0000 0.61400  0.83200  0.03390  Biso   1.000  H
  H4       1.0000 0.38600  0.16800  0.96610  Biso   1.000  H
  C1       1.0000 0.24210  0.80590  0.43420  Biso   1.000  C
  C2       1.0000 0.75790  0.19410  0.56580  Biso   1.000  C
  C3       1.0000 0.19480  0.09850  0.42650  Biso   1.000  C
  C4       1.0000 0.80520  0.90150  0.57350  Biso   1.000  C
  C5       1.0000 0.52440  0.57540  0.72882  Biso   1.000  C
  C6       1.0000 0.47560  0.42460  0.27118  Biso   1.000  C
  H5       1.0000 0.65890  0.60260  0.73520  Biso   1.000  H
  H6       1.0000 0.34110  0.39740  0.26480  Biso   1.000  H
  C7       1.0000 0.45620  0.59910  0.81783  Biso   1.000  C
  C8       1.0000 0.54380  0.40090  0.18217  Biso   1.000  C
  C9       1.0000 0.25610  0.55500  0.80856  Biso   1.000  C
  C10      1.0000 0.74390  0.44500  0.19144  Biso   1.000  C
  H7       1.0000 0.20590  0.56950  0.86680  Biso   1.000  H
  H8       1.0000 0.79410  0.43050  0.13320  Biso   1.000  H
  C11      1.0000 0.13360  0.48980  0.71200  Biso   1.000  C
  C12      1.0000 0.86640  0.51020  0.28800  Biso   1.000  C
  H9       1.0000 0.99920  0.45800  0.70400  Biso   1.000  H
  H10      1.0000 0.00080  0.54200  0.29600  Biso   1.000  H
  C13      1.0000 0.21190  0.47200  0.62736  Biso   1.000  C
  C14      1.0000 0.78810  0.52800  0.37264  Biso   1.000  C
  H11      1.0000 0.12760  0.42820  0.56210  Biso   1.000  H
  H12      1.0000 0.87240  0.57180  0.43790  Biso   1.000  H
  C15      1.0000 0.59800  0.67160  0.92026  Biso   1.000  C
  C16      1.0000 0.40200  0.32840  0.07974  Biso   1.000  C
  O3       1.0000 0.55470  0.17970  0.78867  Biso   1.000  O
  O4       1.0000 0.44530  0.82030  0.21133  Biso   1.000  O
  N11      1.0000 0.14070  0.93950  0.88800  Biso   1.000  N
  N12      1.0000 0.85930  0.06050  0.11200  Biso   1.000  N
  N13      1.0000 0.79180  0.99180  0.81518  Biso   1.000  N
  N14      1.0000 0.20820  0.00820  0.18482  Biso   1.000  N
  N15      1.0000 0.85260  0.28440  0.88949  Biso   1.000  N
  N16      1.0000 0.14740  0.71560  0.11051  Biso   1.000  N
  H13      1.0000 0.81200  0.38500  0.90300  Biso   1.000  H
  H14      1.0000 0.18800  0.61500  0.09700  Biso   1.000  H
  H15      1.0000 0.96600  0.26900  0.93200  Biso   1.000  H
  H16      1.0000 0.03400  0.73100  0.06800  Biso   1.000  H
  C17      1.0000 0.97930  0.96900  0.85570  Biso   1.000  C
  C18      1.0000 0.02070  0.03100  0.14430  Biso   1.000  C
  C19      1.0000 0.73930  0.14770  0.83227  Biso   1.000  C
  C20      1.0000 0.26070  0.85230  0.16773  Biso   1.000  C
  C21      1.0000 0.42310  0.04900  0.71280  Biso   1.000  C
  C22      1.0000 0.57690  0.95100  0.28720  Biso   1.000  C
  H17      1.0000 0.31490  0.10450  0.67000  Biso   1.000  H
  H18      1.0000 0.68510  0.89550  0.33000  Biso   1.000  H
  H19      1.0000 0.37270  0.95510  0.75020  Biso   1.000  H
  H20      1.0000 0.62730  0.04490  0.24980  Biso   1.000  H
  H21      1.0000 0.49440  0.00080  0.66790  Biso   1.000  H
  H22      1.0000 0.50560  0.99920  0.33210  Biso   1.000  H
