data_image0
_cell_length_a       7.463
_cell_length_b       12.535
_cell_length_c       29.408
_cell_angle_alpha    90
_cell_angle_beta     90
_cell_angle_gamma    106.11

_symmetry_space_group_name_H-M    "P 1"
_symmetry_int_tables_number       1

loop_
  _symmetry_equiv_pos_as_xyz
  'x, y, z'

loop_
  _atom_site_label
  _atom_site_occupancy
  _atom_site_fract_x
  _atom_site_fract_y
  _atom_site_fract_z
  _atom_site_thermal_displace_type
  _atom_site_B_iso_or_equiv
  _atom_site_type_symbol
  Cu1      1.0000 0.60530  0.97470  0.85347  Biso   1.000  Cu
  Cu2      1.0000 0.89470  0.52530  0.35347  Biso   1.000  Cu
  Cu3      1.0000 0.39470  0.02530  0.14653  Biso   1.000  Cu
  Cu4      1.0000 0.10530  0.47470  0.64653  Biso   1.000  Cu
  O1       1.0000 0.68560  0.13210  0.86540  Biso   1.000  O
  O2       1.0000 0.81440  0.36790  0.36540  Biso   1.000  O
  O3       1.0000 0.31440  0.86790  0.13460  Biso   1.000  O
  O4       1.0000 0.18560  0.63210  0.63460  Biso   1.000  O
  N1       1.0000 0.62860  0.00220  0.78850  Biso   1.000  N
  N2       1.0000 0.87140  0.49780  0.28850  Biso   1.000  N
  N3       1.0000 0.37140  0.99780  0.21150  Biso   1.000  N
  N4       1.0000 0.12860  0.50220  0.71150  Biso   1.000  N
  N5       1.0000 0.62820  0.90660  0.76510  Biso   1.000  N
  N6       1.0000 0.87180  0.59340  0.26510  Biso   1.000  N
  N7       1.0000 0.37180  0.09340  0.23490  Biso   1.000  N
  N8       1.0000 0.12820  0.40660  0.73490  Biso   1.000  N
  C1       1.0000 0.60220  0.81520  0.79060  Biso   1.000  C
  C2       1.0000 0.89780  0.68480  0.29060  Biso   1.000  C
  C3       1.0000 0.39780  0.18480  0.20940  Biso   1.000  C
  C4       1.0000 0.10220  0.31520  0.70940  Biso   1.000  C
  N9       1.0000 0.57100  0.82320  0.83450  Biso   1.000  N
  N10      1.0000 0.92900  0.67680  0.33450  Biso   1.000  N
  N11      1.0000 0.42900  0.17680  0.16550  Biso   1.000  N
  N12      1.0000 0.07100  0.32320  0.66550  Biso   1.000  N
  S1       1.0000 0.60790  0.68860  0.76660  Biso   1.000  S
  S2       1.0000 0.89210  0.81140  0.26660  Biso   1.000  S
  S3       1.0000 0.39210  0.31140  0.23340  Biso   1.000  S
  S4       1.0000 0.10790  0.18860  0.73340  Biso   1.000  S
  C5       1.0000 0.66320  0.72020  0.70820  Biso   1.000  C
  C6       1.0000 0.83680  0.77980  0.20820  Biso   1.000  C
  C7       1.0000 0.33680  0.27980  0.29180  Biso   1.000  C
  C8       1.0000 0.16320  0.22020  0.79180  Biso   1.000  C
  C9       1.0000 0.64270  0.09300  0.76730  Biso   1.000  C
  C10      1.0000 0.85730  0.40700  0.26730  Biso   1.000  C
  C11      1.0000 0.35730  0.90700  0.23270  Biso   1.000  C
  C12      1.0000 0.14270  0.59300  0.73270  Biso   1.000  C
  C13      1.0000 0.65810  0.19730  0.78910  Biso   1.000  C
  C14      1.0000 0.84190  0.30270  0.28910  Biso   1.000  C
  C15      1.0000 0.34190  0.80270  0.21090  Biso   1.000  C
  C16      1.0000 0.15810  0.69730  0.71090  Biso   1.000  C
  C17      1.0000 0.68180  0.21490  0.83700  Biso   1.000  C
  C18      1.0000 0.81820  0.28510  0.33700  Biso   1.000  C
  C19      1.0000 0.31820  0.78510  0.16300  Biso   1.000  C
  C20      1.0000 0.18180  0.71490  0.66300  Biso   1.000  C
  C21      1.0000 0.69790  0.32000  0.85320  Biso   1.000  C
  C22      1.0000 0.80210  0.18000  0.35320  Biso   1.000  C
  C23      1.0000 0.30210  0.68000  0.14680  Biso   1.000  C
  C24      1.0000 0.19790  0.82000  0.64680  Biso   1.000  C
  C25      1.0000 0.69310  0.40770  0.82470  Biso   1.000  C
  C26      1.0000 0.80690  0.09230  0.32470  Biso   1.000  C
  C27      1.0000 0.30690  0.59230  0.17530  Biso   1.000  C
  C28      1.0000 0.19310  0.90770  0.67530  Biso   1.000  C
  C29      1.0000 0.67550  0.39240  0.77780  Biso   1.000  C
  C30      1.0000 0.82450  0.10760  0.27780  Biso   1.000  C
  C31      1.0000 0.32450  0.60760  0.22220  Biso   1.000  C
  C32      1.0000 0.17550  0.89240  0.72220  Biso   1.000  C
  C33      1.0000 0.65660  0.28660  0.76120  Biso   1.000  C
  C34      1.0000 0.84340  0.21340  0.26120  Biso   1.000  C
  C35      1.0000 0.34340  0.71340  0.23880  Biso   1.000  C
  C36      1.0000 0.15660  0.78660  0.73880  Biso   1.000  C
  Cl1      1.0000 0.08390  0.95300  0.86460  Biso   1.000  Cl
  Cl2      1.0000 0.41610  0.54700  0.36460  Biso   1.000  Cl
  Cl3      1.0000 0.91610  0.04700  0.13540  Biso   1.000  Cl
  Cl4      1.0000 0.58390  0.45300  0.63540  Biso   1.000  Cl
  O5       1.0000 0.02090  0.85830  0.89130  Biso   1.000  O
  O6       1.0000 0.47910  0.64170  0.39130  Biso   1.000  O
  O7       1.0000 0.97910  0.14170  0.10870  Biso   1.000  O
  O8       1.0000 0.52090  0.35830  0.60870  Biso   1.000  O
  O9       1.0000 0.04290  0.04420  0.88740  Biso   1.000  O
  O10      1.0000 0.45710  0.45580  0.38740  Biso   1.000  O
  O11      1.0000 0.95710  0.95580  0.11260  Biso   1.000  O
  O12      1.0000 0.54290  0.54420  0.61260  Biso   1.000  O
  O13      1.0000 0.99790  0.94160  0.82200  Biso   1.000  O
  O14      1.0000 0.50210  0.55840  0.32200  Biso   1.000  O
  O15      1.0000 0.00210  0.05840  0.17800  Biso   1.000  O
  O16      1.0000 0.49790  0.44160  0.67800  Biso   1.000  O
  O17      1.0000 0.27420  0.98500  0.86050  Biso   1.000  O
  O18      1.0000 0.22580  0.51500  0.36050  Biso   1.000  O
  O19      1.0000 0.72580  0.01500  0.13950  Biso   1.000  O
  O20      1.0000 0.77420  0.48500  0.63950  Biso   1.000  O
  Cu5      1.0000 0.78540  0.12810  0.92649  Biso   1.000  Cu
  Cu6      1.0000 0.71460  0.37190  0.42649  Biso   1.000  Cu
  Cu7      1.0000 0.21460  0.87190  0.07351  Biso   1.000  Cu
  Cu8      1.0000 0.28540  0.62810  0.57351  Biso   1.000  Cu
  O21      1.0000 0.62320  0.97910  0.92020  Biso   1.000  O
  O22      1.0000 0.87680  0.52090  0.42020  Biso   1.000  O
  O23      1.0000 0.37680  0.02090  0.07980  Biso   1.000  O
  O24      1.0000 0.12320  0.47910  0.57980  Biso   1.000  O
  N13      1.0000 0.84220  0.09740  0.98850  Biso   1.000  N
  N14      1.0000 0.65780  0.40260  0.48850  Biso   1.000  N
  N15      1.0000 0.15780  0.90260  0.01150  Biso   1.000  N
  N16      1.0000 0.34220  0.59740  0.51150  Biso   1.000  N
  N17      1.0000 0.96720  0.18770  0.00800  Biso   1.000  N
  N18      1.0000 0.53280  0.31230  0.50800  Biso   1.000  N
  N19      1.0000 0.03280  0.81230  0.99200  Biso   1.000  N
  N20      1.0000 0.46720  0.68770  0.49200  Biso   1.000  N
  C37      1.0000 0.02370  0.27930  0.98120  Biso   1.000  C
  C38      1.0000 0.47630  0.22070  0.48120  Biso   1.000  C
  C39      1.0000 0.97630  0.72070  0.01880  Biso   1.000  C
  C40      1.0000 0.52370  0.77930  0.51880  Biso   1.000  C
  N21      1.0000 0.96290  0.26840  0.93940  Biso   1.000  N
  N22      1.0000 0.53710  0.23160  0.43940  Biso   1.000  N
  N23      1.0000 0.03710  0.73160  0.06060  Biso   1.000  N
  N24      1.0000 0.46290  0.76840  0.56060  Biso   1.000  N
  S5       1.0000 0.16850  0.40170  0.00260  Biso   1.000  S
  S6       1.0000 0.33150  0.09830  0.50260  Biso   1.000  S
  S7       1.0000 0.83150  0.59830  0.99740  Biso   1.000  S
  S8       1.0000 0.66850  0.90170  0.49740  Biso   1.000  S
  C41      1.0000 0.20260  0.37110  0.06140  Biso   1.000  C
  C42      1.0000 0.29740  0.12890  0.56140  Biso   1.000  C
  C43      1.0000 0.79740  0.62890  0.93860  Biso   1.000  C
  C44      1.0000 0.70260  0.87110  0.43860  Biso   1.000  C
  C45      1.0000 0.77770  0.00990  0.01200  Biso   1.000  C
  C46      1.0000 0.72230  0.49010  0.51200  Biso   1.000  C
  C47      1.0000 0.22230  0.99010  0.98800  Biso   1.000  C
  C48      1.0000 0.27770  0.50990  0.48800  Biso   1.000  C
  C49      1.0000 0.64480  0.91120  0.99600  Biso   1.000  C
  C50      1.0000 0.85520  0.58880  0.49600  Biso   1.000  C
  C51      1.0000 0.35520  0.08880  0.00400  Biso   1.000  C
  C52      1.0000 0.14480  0.41120  0.50400  Biso   1.000  C
  C53      1.0000 0.56970  0.89800  0.95140  Biso   1.000  C
  C54      1.0000 0.93030  0.60200  0.45140  Biso   1.000  C
  C55      1.0000 0.43030  0.10200  0.04860  Biso   1.000  C
  C56      1.0000 0.06970  0.39800  0.54860  Biso   1.000  C
  C57      1.0000 0.43570  0.80000  0.94040  Biso   1.000  C
  C58      1.0000 0.06430  0.70000  0.44040  Biso   1.000  C
  C59      1.0000 0.56430  0.20000  0.05960  Biso   1.000  C
  C60      1.0000 0.93570  0.30000  0.55960  Biso   1.000  C
  C61      1.0000 0.38150  0.71390  0.97150  Biso   1.000  C
  C62      1.0000 0.11850  0.78610  0.47150  Biso   1.000  C
  C63      1.0000 0.61850  0.28610  0.02850  Biso   1.000  C
  C64      1.0000 0.88150  0.21390  0.52850  Biso   1.000  C
  C65      1.0000 0.45720  0.72480  0.01510  Biso   1.000  C
  C66      1.0000 0.04280  0.77520  0.51510  Biso   1.000  C
  C67      1.0000 0.54280  0.27520  0.98490  Biso   1.000  C
  C68      1.0000 0.95720  0.22480  0.48490  Biso   1.000  C
  C69      1.0000 0.58490  0.82250  0.02680  Biso   1.000  C
  C70      1.0000 0.91510  0.67750  0.52680  Biso   1.000  C
  C71      1.0000 0.41510  0.17750  0.97320  Biso   1.000  C
  C72      1.0000 0.08490  0.32250  0.47320  Biso   1.000  C
  Cl5      1.0000 0.75840  0.47180  0.13460  Biso   1.000  Cl
  Cl6      1.0000 0.74160  0.02820  0.63460  Biso   1.000  Cl
  Cl7      1.0000 0.24160  0.52820  0.86540  Biso   1.000  Cl
  Cl8      1.0000 0.25840  0.97180  0.36540  Biso   1.000  Cl
  O25      1.0000 0.87800  0.49940  0.09820  Biso   1.000  O
  O26      1.0000 0.62200  0.00060  0.59820  Biso   1.000  O
  O27      1.0000 0.12200  0.50060  0.90180  Biso   1.000  O
  O28      1.0000 0.37800  0.99940  0.40180  Biso   1.000  O
  O29      1.0000 0.79160  0.53870  0.17130  Biso   1.000  O
  O30      1.0000 0.70840  0.96130  0.67130  Biso   1.000  O
  O31      1.0000 0.20840  0.46130  0.82870  Biso   1.000  O
  O32      1.0000 0.29160  0.03870  0.32870  Biso   1.000  O
  O33      1.0000 0.82470  0.36910  0.15350  Biso   1.000  O
  O34      1.0000 0.67530  0.13090  0.65350  Biso   1.000  O
  O35      1.0000 0.17530  0.63090  0.84650  Biso   1.000  O
  O36      1.0000 0.32470  0.86910  0.34650  Biso   1.000  O
  O37      1.0000 0.57330  0.41690  0.12530  Biso   1.000  O
  O38      1.0000 0.92670  0.08310  0.62530  Biso   1.000  O
  O39      1.0000 0.42670  0.58310  0.87470  Biso   1.000  O
  O40      1.0000 0.07330  0.91690  0.37470  Biso   1.000  O
