data_image0
_cell_length_a       10.716
_cell_length_b       12.931
_cell_length_c       25.034
_cell_angle_alpha    90
_cell_angle_beta     99.343
_cell_angle_gamma    90

_symmetry_space_group_name_H-M    "P 1"
_symmetry_int_tables_number       1

loop_
  _symmetry_equiv_pos_as_xyz
  'x, y, z'

loop_
  _atom_site_label
  _atom_site_occupancy
  _atom_site_fract_x
  _atom_site_fract_y
  _atom_site_fract_z
  _atom_site_thermal_displace_type
  _atom_site_B_iso_or_equiv
  _atom_site_type_symbol
  Cu1      1.0000 0.32381  0.96813  0.25621  Biso   1.000  Cu
  Cu2      1.0000 0.67619  0.46813  0.24379  Biso   1.000  Cu
  Cu3      1.0000 0.67619  0.03187  0.74379  Biso   1.000  Cu
  Cu4      1.0000 0.32381  0.53187  0.75621  Biso   1.000  Cu
  Cu5      1.0000 0.81957  0.97348  0.22879  Biso   1.000  Cu
  Cu6      1.0000 0.18043  0.47348  0.27121  Biso   1.000  Cu
  Cu7      1.0000 0.18043  0.02652  0.77121  Biso   1.000  Cu
  Cu8      1.0000 0.81957  0.52652  0.72879  Biso   1.000  Cu
  O1       1.0000 0.30770  0.01190  0.18245  Biso   1.000  O
  O2       1.0000 0.69230  0.51190  0.31755  Biso   1.000  O
  O3       1.0000 0.69230  0.98810  0.81755  Biso   1.000  O
  O4       1.0000 0.30770  0.48810  0.68245  Biso   1.000  O
  O5       1.0000 0.85930  0.02050  0.30238  Biso   1.000  O
  O6       1.0000 0.14070  0.52050  0.19762  Biso   1.000  O
  O7       1.0000 0.14070  0.97950  0.69762  Biso   1.000  O
  O8       1.0000 0.85930  0.47950  0.80238  Biso   1.000  O
  O9       1.0000 0.71350  0.67870  0.00590  Biso   1.000  O
  O10      1.0000 0.28650  0.17870  0.49410  Biso   1.000  O
  O11      1.0000 0.28650  0.32130  0.99410  Biso   1.000  O
  O12      1.0000 0.71350  0.82130  0.50590  Biso   1.000  O
  H1       1.0000 0.69200  0.65600  0.97400  Biso   1.000  H
  H2       1.0000 0.30800  0.15600  0.52600  Biso   1.000  H
  H3       1.0000 0.30800  0.34400  0.02600  Biso   1.000  H
  H4       1.0000 0.69200  0.84400  0.47400  Biso   1.000  H
  H5       1.0000 0.65900  0.66100  0.02400  Biso   1.000  H
  H6       1.0000 0.34100  0.16100  0.47600  Biso   1.000  H
  H7       1.0000 0.34100  0.33900  0.97600  Biso   1.000  H
  H8       1.0000 0.65900  0.83900  0.52400  Biso   1.000  H
  O13      1.0000 0.68660  0.75800  0.98250  Biso   1.000  O
  O14      1.0000 0.31340  0.25800  0.51750  Biso   1.000  O
  O15      1.0000 0.31340  0.24200  0.01750  Biso   1.000  O
  O16      1.0000 0.68660  0.74200  0.48250  Biso   1.000  O
  H9       1.0000 0.75100  0.78200  0.00200  Biso   1.000  H
  H10      1.0000 0.24900  0.28200  0.49800  Biso   1.000  H
  H11      1.0000 0.24900  0.21800  0.99800  Biso   1.000  H
  H12      1.0000 0.75100  0.71800  0.50200  Biso   1.000  H
  H13      1.0000 0.64100  0.80600  0.96800  Biso   1.000  H
  H14      1.0000 0.35900  0.30600  0.53200  Biso   1.000  H
  H15      1.0000 0.35900  0.19400  0.03200  Biso   1.000  H
  H16      1.0000 0.64100  0.69400  0.46800  Biso   1.000  H
  N1       1.0000 0.21800  0.84640  0.23126  Biso   1.000  N
  N2       1.0000 0.78200  0.34640  0.26874  Biso   1.000  N
  N3       1.0000 0.78200  0.15360  0.76874  Biso   1.000  N
  N4       1.0000 0.21800  0.65360  0.73126  Biso   1.000  N
  N5       1.0000 0.35360  0.91910  0.33605  Biso   1.000  N
  N6       1.0000 0.64640  0.41910  0.16395  Biso   1.000  N
  N7       1.0000 0.64640  0.08090  0.66395  Biso   1.000  N
  N8       1.0000 0.35360  0.58090  0.83605  Biso   1.000  N
  N9       1.0000 0.48520  0.04870  0.27240  Biso   1.000  N
  N10      1.0000 0.51480  0.54870  0.22760  Biso   1.000  N
  N11      1.0000 0.51480  0.95130  0.72760  Biso   1.000  N
  N12      1.0000 0.48520  0.45130  0.77240  Biso   1.000  N
  N13      1.0000 0.55620  0.05970  0.24235  Biso   1.000  N
  N14      1.0000 0.44380  0.55970  0.25765  Biso   1.000  N
  N15      1.0000 0.44380  0.94030  0.75765  Biso   1.000  N
  N16      1.0000 0.55620  0.44030  0.74235  Biso   1.000  N
  N17      1.0000 0.63040  0.07380  0.21330  Biso   1.000  N
  N18      1.0000 0.36960  0.57380  0.28670  Biso   1.000  N
  N19      1.0000 0.36960  0.92620  0.78670  Biso   1.000  N
  N20      1.0000 0.63040  0.42620  0.71330  Biso   1.000  N
  N21      1.0000 0.73640  0.85050  0.25468  Biso   1.000  N
  N22      1.0000 0.26360  0.35050  0.24532  Biso   1.000  N
  N23      1.0000 0.26360  0.14950  0.74532  Biso   1.000  N
  N24      1.0000 0.73640  0.64950  0.75468  Biso   1.000  N
  N25      1.0000 0.78790  0.92950  0.14775  Biso   1.000  N
  N26      1.0000 0.21210  0.42950  0.35225  Biso   1.000  N
  N27      1.0000 0.21210  0.07050  0.85225  Biso   1.000  N
  N28      1.0000 0.78790  0.57050  0.64775  Biso   1.000  N
  N29      1.0000 0.96870  0.05490  0.21235  Biso   1.000  N
  N30      1.0000 0.03130  0.55490  0.28765  Biso   1.000  N
  N31      1.0000 0.03130  0.94510  0.78765  Biso   1.000  N
  N32      1.0000 0.96870  0.44510  0.71235  Biso   1.000  N
  N33      1.0000 0.06280  0.06550  0.24341  Biso   1.000  N
  N34      1.0000 0.93720  0.56550  0.25659  Biso   1.000  N
  N35      1.0000 0.93720  0.93450  0.75659  Biso   1.000  N
  N36      1.0000 0.06280  0.43450  0.74341  Biso   1.000  N
  N37      1.0000 0.15860  0.07870  0.27160  Biso   1.000  N
  N38      1.0000 0.84140  0.57870  0.22840  Biso   1.000  N
  N39      1.0000 0.84140  0.92130  0.72840  Biso   1.000  N
  N40      1.0000 0.15860  0.42130  0.77160  Biso   1.000  N
  C1       1.0000 0.29080  0.84180  0.14450  Biso   1.000  C
  C2       1.0000 0.70920  0.34180  0.35550  Biso   1.000  C
  C3       1.0000 0.70920  0.15820  0.85550  Biso   1.000  C
  C4       1.0000 0.29080  0.65820  0.64450  Biso   1.000  C
  C5       1.0000 0.31800  0.94840  0.14360  Biso   1.000  C
  C6       1.0000 0.68200  0.44840  0.35640  Biso   1.000  C
  C7       1.0000 0.68200  0.05160  0.85640  Biso   1.000  C
  C8       1.0000 0.31800  0.55160  0.64360  Biso   1.000  C
  C9       1.0000 0.35460  0.98840  0.09430  Biso   1.000  C
  C10      1.0000 0.64540  0.48840  0.40570  Biso   1.000  C
  C11      1.0000 0.64540  0.01160  0.90570  Biso   1.000  C
  C12      1.0000 0.35460  0.51160  0.59430  Biso   1.000  C
  H17      1.0000 0.36750  0.05910  0.09100  Biso   1.000  H
  H18      1.0000 0.63250  0.55910  0.40900  Biso   1.000  H
  H19      1.0000 0.63250  0.94090  0.90900  Biso   1.000  H
  H20      1.0000 0.36750  0.44090  0.59100  Biso   1.000  H
  C13      1.0000 0.37030  0.92480  0.05330  Biso   1.000  C
  C14      1.0000 0.62970  0.42480  0.44670  Biso   1.000  C
  C15      1.0000 0.62970  0.07520  0.94670  Biso   1.000  C
  C16      1.0000 0.37030  0.57520  0.55330  Biso   1.000  C
  H21      1.0000 0.39370  0.95350  0.02240  Biso   1.000  H
  H22      1.0000 0.60630  0.45350  0.47760  Biso   1.000  H
  H23      1.0000 0.60630  0.04650  0.97760  Biso   1.000  H
  H24      1.0000 0.39370  0.54650  0.52240  Biso   1.000  H
  C17      1.0000 0.35310  0.81740  0.05500  Biso   1.000  C
  C18      1.0000 0.64690  0.31740  0.44500  Biso   1.000  C
  C19      1.0000 0.64690  0.18260  0.94500  Biso   1.000  C
  C20      1.0000 0.35310  0.68260  0.55500  Biso   1.000  C
  C21      1.0000 0.37820  0.75160  0.01340  Biso   1.000  C
  C22      1.0000 0.62180  0.25160  0.48660  Biso   1.000  C
  C23      1.0000 0.62180  0.24840  0.98660  Biso   1.000  C
  C24      1.0000 0.37820  0.74840  0.51340  Biso   1.000  C
  H25      1.0000 0.40320  0.77990  0.98260  Biso   1.000  H
  H26      1.0000 0.59680  0.27990  0.51740  Biso   1.000  H
  H27      1.0000 0.59680  0.22010  0.01740  Biso   1.000  H
  H28      1.0000 0.40320  0.72010  0.48260  Biso   1.000  H
  C25      1.0000 0.36680  0.64860  0.01720  Biso   1.000  C
  C26      1.0000 0.63320  0.14860  0.48280  Biso   1.000  C
  C27      1.0000 0.63320  0.35140  0.98280  Biso   1.000  C
  C28      1.0000 0.36680  0.85140  0.51720  Biso   1.000  C
  H29      1.0000 0.38650  0.60600  0.98980  Biso   1.000  H
  H30      1.0000 0.61350  0.10600  0.51020  Biso   1.000  H
  H31      1.0000 0.61350  0.39400  0.01020  Biso   1.000  H
  H32      1.0000 0.38650  0.89400  0.48980  Biso   1.000  H
  C29      1.0000 0.32600  0.60640  0.06160  Biso   1.000  C
  C30      1.0000 0.67400  0.10640  0.43840  Biso   1.000  C
  C31      1.0000 0.67400  0.39360  0.93840  Biso   1.000  C
  C32      1.0000 0.32600  0.89360  0.56160  Biso   1.000  C
  H33      1.0000 0.31500  0.53520  0.06330  Biso   1.000  H
  H34      1.0000 0.68500  0.03520  0.43670  Biso   1.000  H
  H35      1.0000 0.68500  0.46480  0.93670  Biso   1.000  H
  H36      1.0000 0.31500  0.96480  0.56330  Biso   1.000  H
  C33      1.0000 0.30080  0.66710  0.10380  Biso   1.000  C
  C34      1.0000 0.69920  0.16710  0.39620  Biso   1.000  C
  C35      1.0000 0.69920  0.33290  0.89620  Biso   1.000  C
  C36      1.0000 0.30080  0.83290  0.60380  Biso   1.000  C
  H37      1.0000 0.27610  0.63670  0.13410  Biso   1.000  H
  H38      1.0000 0.72390  0.13670  0.36590  Biso   1.000  H
  H39      1.0000 0.72390  0.36330  0.86590  Biso   1.000  H
  H40      1.0000 0.27610  0.86330  0.63410  Biso   1.000  H
  C37      1.0000 0.31240  0.77510  0.10100  Biso   1.000  C
  C38      1.0000 0.68760  0.27510  0.39900  Biso   1.000  C
  C39      1.0000 0.68760  0.22490  0.89900  Biso   1.000  C
  C40      1.0000 0.31240  0.72490  0.60100  Biso   1.000  C
  C41      1.0000 0.22670  0.80270  0.18603  Biso   1.000  C
  C42      1.0000 0.77330  0.30270  0.31397  Biso   1.000  C
  C43      1.0000 0.77330  0.19730  0.81397  Biso   1.000  C
  C44      1.0000 0.22670  0.69730  0.68603  Biso   1.000  C
  H41      1.0000 0.18710  0.73890  0.17960  Biso   1.000  H
  H42      1.0000 0.81290  0.23890  0.32040  Biso   1.000  H
  H43      1.0000 0.81290  0.26110  0.82040  Biso   1.000  H
  H44      1.0000 0.18710  0.76110  0.67960  Biso   1.000  H
  C45      1.0000 0.12860  0.80250  0.26330  Biso   1.000  C
  C46      1.0000 0.87140  0.30250  0.23670  Biso   1.000  C
  C47      1.0000 0.87140  0.19750  0.73670  Biso   1.000  C
  C48      1.0000 0.12860  0.69750  0.76330  Biso   1.000  C
  H45      1.0000 0.09130  0.74050  0.24560  Biso   1.000  H
  H46      1.0000 0.90870  0.24050  0.25440  Biso   1.000  H
  H47      1.0000 0.90870  0.25950  0.75440  Biso   1.000  H
  H48      1.0000 0.09130  0.75950  0.74560  Biso   1.000  H
  H49      1.0000 0.06110  0.85170  0.26500  Biso   1.000  H
  H50      1.0000 0.93890  0.35170  0.23500  Biso   1.000  H
  H51      1.0000 0.93890  0.14830  0.73500  Biso   1.000  H
  H52      1.0000 0.06110  0.64830  0.76500  Biso   1.000  H
  C49      1.0000 0.19060  0.77600  0.31990  Biso   1.000  C
  C50      1.0000 0.80940  0.27600  0.18010  Biso   1.000  C
  C51      1.0000 0.80940  0.22400  0.68010  Biso   1.000  C
  C52      1.0000 0.19060  0.72400  0.81990  Biso   1.000  C
  H53      1.0000 0.12940  0.74110  0.33820  Biso   1.000  H
  H54      1.0000 0.87060  0.24110  0.16180  Biso   1.000  H
  H55      1.0000 0.87060  0.25890  0.66180  Biso   1.000  H
  H56      1.0000 0.12940  0.75890  0.83820  Biso   1.000  H
  H57      1.0000 0.25940  0.72810  0.31800  Biso   1.000  H
  H58      1.0000 0.74060  0.22810  0.18200  Biso   1.000  H
  H59      1.0000 0.74060  0.27190  0.68200  Biso   1.000  H
  H60      1.0000 0.25940  0.77190  0.81800  Biso   1.000  H
  C53      1.0000 0.24130  0.86720  0.35280  Biso   1.000  C
  C54      1.0000 0.75870  0.36720  0.14720  Biso   1.000  C
  C55      1.0000 0.75870  0.13280  0.64720  Biso   1.000  C
  C56      1.0000 0.24130  0.63280  0.85280  Biso   1.000  C
  H61      1.0000 0.26400  0.84530  0.39020  Biso   1.000  H
  H62      1.0000 0.73600  0.34530  0.10980  Biso   1.000  H
  H63      1.0000 0.73600  0.15470  0.60980  Biso   1.000  H
  H64      1.0000 0.26400  0.65470  0.89020  Biso   1.000  H
  H65      1.0000 0.17410  0.91790  0.35140  Biso   1.000  H
  H66      1.0000 0.82590  0.41790  0.14860  Biso   1.000  H
  H67      1.0000 0.82590  0.08210  0.64860  Biso   1.000  H
  H68      1.0000 0.17410  0.58210  0.85140  Biso   1.000  H
  C57      1.0000 0.38310  0.00830  0.37260  Biso   1.000  C
  C58      1.0000 0.61690  0.50830  0.12740  Biso   1.000  C
  C59      1.0000 0.61690  0.99170  0.62740  Biso   1.000  C
  C60      1.0000 0.38310  0.49170  0.87260  Biso   1.000  C
  H69      1.0000 0.40010  0.98460  0.40940  Biso   1.000  H
  H70      1.0000 0.59990  0.48460  0.09060  Biso   1.000  H
  H71      1.0000 0.59990  0.01540  0.59060  Biso   1.000  H
  H72      1.0000 0.40010  0.51540  0.90940  Biso   1.000  H
  H73      1.0000 0.31230  0.05480  0.36830  Biso   1.000  H
  H74      1.0000 0.68770  0.55480  0.13170  Biso   1.000  H
  H75      1.0000 0.68770  0.94520  0.63170  Biso   1.000  H
  H76      1.0000 0.31230  0.44520  0.86830  Biso   1.000  H
  H77      1.0000 0.45600  0.04370  0.36400  Biso   1.000  H
  H78      1.0000 0.54400  0.54370  0.13600  Biso   1.000  H
  H79      1.0000 0.54400  0.95630  0.63600  Biso   1.000  H
  H80      1.0000 0.45600  0.45630  0.86400  Biso   1.000  H
  C61      1.0000 0.46190  0.84810  0.34340  Biso   1.000  C
  C62      1.0000 0.53810  0.34810  0.15660  Biso   1.000  C
  C63      1.0000 0.53810  0.15190  0.65660  Biso   1.000  C
  C64      1.0000 0.46190  0.65190  0.84340  Biso   1.000  C
  H81      1.0000 0.53360  0.88180  0.33260  Biso   1.000  H
  H82      1.0000 0.46640  0.38180  0.16740  Biso   1.000  H
  H83      1.0000 0.46640  0.11820  0.66740  Biso   1.000  H
  H84      1.0000 0.53360  0.61820  0.83260  Biso   1.000  H
  H85      1.0000 0.44110  0.78750  0.32160  Biso   1.000  H
  H86      1.0000 0.55890  0.28750  0.17840  Biso   1.000  H
  H87      1.0000 0.55890  0.21250  0.67840  Biso   1.000  H
  H88      1.0000 0.44110  0.71250  0.82160  Biso   1.000  H
  H89      1.0000 0.48180  0.82840  0.38080  Biso   1.000  H
  H90      1.0000 0.51820  0.32840  0.11920  Biso   1.000  H
  H91      1.0000 0.51820  0.17160  0.61920  Biso   1.000  H
  H92      1.0000 0.48180  0.67160  0.88080  Biso   1.000  H
  C65      1.0000 0.86540  0.85450  0.34470  Biso   1.000  C
  C66      1.0000 0.13460  0.35450  0.15530  Biso   1.000  C
  C67      1.0000 0.13460  0.14550  0.65530  Biso   1.000  C
  C68      1.0000 0.86540  0.64550  0.84470  Biso   1.000  C
  C69      1.0000 0.89590  0.95930  0.34300  Biso   1.000  C
  C70      1.0000 0.10410  0.45930  0.15700  Biso   1.000  C
  C71      1.0000 0.10410  0.04070  0.65700  Biso   1.000  C
  C72      1.0000 0.89590  0.54070  0.84300  Biso   1.000  C
  C73      1.0000 0.97030  0.00420  0.39030  Biso   1.000  C
  C74      1.0000 0.02970  0.50420  0.10970  Biso   1.000  C
  C75      1.0000 0.02970  0.99580  0.60970  Biso   1.000  C
  C76      1.0000 0.97030  0.49580  0.89030  Biso   1.000  C
  H93      1.0000 0.98770  0.07470  0.39080  Biso   1.000  H
  H94      1.0000 0.01230  0.57470  0.10920  Biso   1.000  H
  H95      1.0000 0.01230  0.92530  0.60920  Biso   1.000  H
  H96      1.0000 0.98770  0.42530  0.89080  Biso   1.000  H
  C77      1.0000 0.01550  0.94640  0.43410  Biso   1.000  C
  C78      1.0000 0.98450  0.44640  0.06590  Biso   1.000  C
  C79      1.0000 0.98450  0.05360  0.56590  Biso   1.000  C
  C80      1.0000 0.01550  0.55360  0.93410  Biso   1.000  C
  H97      1.0000 0.06480  0.97760  0.46370  Biso   1.000  H
  H98      1.0000 0.93520  0.47760  0.03630  Biso   1.000  H
  H99      1.0000 0.93520  0.02240  0.53630  Biso   1.000  H
  H100     1.0000 0.06480  0.52240  0.96370  Biso   1.000  H
  C81      1.0000 0.98940  0.83990  0.43580  Biso   1.000  C
  C82      1.0000 0.01060  0.33990  0.06420  Biso   1.000  C
  C83      1.0000 0.01060  0.16010  0.56420  Biso   1.000  C
  C84      1.0000 0.98940  0.66010  0.93580  Biso   1.000  C
  C85      1.0000 0.03850  0.78010  0.48170  Biso   1.000  C
  C86      1.0000 0.96150  0.28010  0.01830  Biso   1.000  C
  C87      1.0000 0.96150  0.21990  0.51830  Biso   1.000  C
  C88      1.0000 0.03850  0.71990  0.98170  Biso   1.000  C
  H101     1.0000 0.08740  0.81180  0.51120  Biso   1.000  H
  H102     1.0000 0.91260  0.31180  0.98880  Biso   1.000  H
  H103     1.0000 0.91260  0.18820  0.48880  Biso   1.000  H
  H104     1.0000 0.08740  0.68820  0.01120  Biso   1.000  H
  C89      1.0000 0.01540  0.67730  0.48320  Biso   1.000  C
  C90      1.0000 0.98460  0.17730  0.01680  Biso   1.000  C
  C91      1.0000 0.98460  0.32270  0.51680  Biso   1.000  C
  C92      1.0000 0.01540  0.82270  0.98320  Biso   1.000  C
  H105     1.0000 0.04860  0.63890  0.51360  Biso   1.000  H
  H106     1.0000 0.95140  0.13890  0.98640  Biso   1.000  H
  H107     1.0000 0.95140  0.36110  0.48640  Biso   1.000  H
  H108     1.0000 0.04860  0.86110  0.01360  Biso   1.000  H
  C93      1.0000 0.94190  0.62890  0.43920  Biso   1.000  C
  C94      1.0000 0.05810  0.12890  0.06080  Biso   1.000  C
  C95      1.0000 0.05810  0.37110  0.56080  Biso   1.000  C
  C96      1.0000 0.94190  0.87110  0.93920  Biso   1.000  C
  H109     1.0000 0.92650  0.55820  0.44030  Biso   1.000  H
  H110     1.0000 0.07350  0.05820  0.05970  Biso   1.000  H
  H111     1.0000 0.07350  0.44180  0.55970  Biso   1.000  H
  H112     1.0000 0.92650  0.94180  0.94030  Biso   1.000  H
  C97      1.0000 0.89180  0.68550  0.39410  Biso   1.000  C
  C98      1.0000 0.10820  0.18550  0.10590  Biso   1.000  C
  C99      1.0000 0.10820  0.31450  0.60590  Biso   1.000  C
  C100     1.0000 0.89180  0.81450  0.89410  Biso   1.000  C
  H113     1.0000 0.84290  0.65220  0.36510  Biso   1.000  H
  H114     1.0000 0.15710  0.15220  0.13490  Biso   1.000  H
  H115     1.0000 0.15710  0.34780  0.63490  Biso   1.000  H
  H116     1.0000 0.84290  0.84780  0.86510  Biso   1.000  H
  C101     1.0000 0.91320  0.79300  0.39100  Biso   1.000  C
  C102     1.0000 0.08680  0.29300  0.10900  Biso   1.000  C
  C103     1.0000 0.08680  0.20700  0.60900  Biso   1.000  C
  C104     1.0000 0.91320  0.70700  0.89100  Biso   1.000  C
  C105     1.0000 0.77410  0.81150  0.30160  Biso   1.000  C
  C106     1.0000 0.22590  0.31150  0.19840  Biso   1.000  C
  C107     1.0000 0.22590  0.18850  0.69840  Biso   1.000  C
  C108     1.0000 0.77410  0.68850  0.80160  Biso   1.000  C
  H117     1.0000 0.73850  0.74840  0.30880  Biso   1.000  H
  H118     1.0000 0.26150  0.24840  0.19120  Biso   1.000  H
  H119     1.0000 0.26150  0.25160  0.69120  Biso   1.000  H
  H120     1.0000 0.73850  0.75160  0.80880  Biso   1.000  H
  C109     1.0000 0.62780  0.80100  0.22130  Biso   1.000  C
  C110     1.0000 0.37220  0.30100  0.27870  Biso   1.000  C
  C111     1.0000 0.37220  0.19900  0.77870  Biso   1.000  C
  C112     1.0000 0.62780  0.69900  0.72130  Biso   1.000  C
  H121     1.0000 0.55480  0.84600  0.21940  Biso   1.000  H
  H122     1.0000 0.44520  0.34600  0.28060  Biso   1.000  H
  H123     1.0000 0.44520  0.15400  0.78060  Biso   1.000  H
  H124     1.0000 0.55480  0.65400  0.71940  Biso   1.000  H
  H125     1.0000 0.60860  0.73700  0.23840  Biso   1.000  H
  H126     1.0000 0.39140  0.23700  0.26160  Biso   1.000  H
  H127     1.0000 0.39140  0.26300  0.76160  Biso   1.000  H
  H128     1.0000 0.60860  0.76300  0.73840  Biso   1.000  H
  C113     1.0000 0.65110  0.77820  0.16480  Biso   1.000  C
  C114     1.0000 0.34890  0.27820  0.33520  Biso   1.000  C
  C115     1.0000 0.34890  0.22180  0.83520  Biso   1.000  C
  C116     1.0000 0.65110  0.72180  0.66480  Biso   1.000  C
  H129     1.0000 0.72620  0.73550  0.16700  Biso   1.000  H
  H130     1.0000 0.27380  0.23550  0.33300  Biso   1.000  H
  H131     1.0000 0.27380  0.26450  0.83300  Biso   1.000  H
  H132     1.0000 0.72620  0.76450  0.66700  Biso   1.000  H
  H133     1.0000 0.58040  0.73860  0.14610  Biso   1.000  H
  H134     1.0000 0.41960  0.23860  0.35390  Biso   1.000  H
  H135     1.0000 0.41960  0.26140  0.85390  Biso   1.000  H
  H136     1.0000 0.58040  0.76140  0.64610  Biso   1.000  H
  C117     1.0000 0.66810  0.87290  0.13220  Biso   1.000  C
  C118     1.0000 0.33190  0.37290  0.36780  Biso   1.000  C
  C119     1.0000 0.33190  0.12710  0.86780  Biso   1.000  C
  C120     1.0000 0.66810  0.62710  0.63220  Biso   1.000  C
  H137     1.0000 0.66150  0.85270  0.09450  Biso   1.000  H
  H138     1.0000 0.33850  0.35270  0.40550  Biso   1.000  H
  H139     1.0000 0.33850  0.14730  0.90550  Biso   1.000  H
  H140     1.0000 0.66150  0.64730  0.59450  Biso   1.000  H
  H141     1.0000 0.59880  0.91990  0.13480  Biso   1.000  H
  H142     1.0000 0.40120  0.41990  0.36520  Biso   1.000  H
  H143     1.0000 0.40120  0.08010  0.86520  Biso   1.000  H
  H144     1.0000 0.59880  0.58010  0.63480  Biso   1.000  H
  C121     1.0000 0.89580  0.86490  0.13860  Biso   1.000  C
  C122     1.0000 0.10420  0.36490  0.36140  Biso   1.000  C
  C123     1.0000 0.10420  0.13510  0.86140  Biso   1.000  C
  C124     1.0000 0.89580  0.63510  0.63860  Biso   1.000  C
  H145     1.0000 0.88260  0.84110  0.10180  Biso   1.000  H
  H146     1.0000 0.11740  0.34110  0.39820  Biso   1.000  H
  H147     1.0000 0.11740  0.15890  0.89820  Biso   1.000  H
  H148     1.0000 0.88260  0.65890  0.60180  Biso   1.000  H
  H149     1.0000 0.90300  0.80650  0.16260  Biso   1.000  H
  H150     1.0000 0.09700  0.30650  0.33740  Biso   1.000  H
  H151     1.0000 0.09700  0.19350  0.83740  Biso   1.000  H
  H152     1.0000 0.90300  0.69350  0.66260  Biso   1.000  H
  H153     1.0000 0.97220  0.90490  0.14550  Biso   1.000  H
  H154     1.0000 0.02780  0.40490  0.35450  Biso   1.000  H
  H155     1.0000 0.02780  0.09510  0.85450  Biso   1.000  H
  H156     1.0000 0.97220  0.59510  0.64550  Biso   1.000  H
  C125     1.0000 0.78290  0.02020  0.11270  Biso   1.000  C
  C126     1.0000 0.21710  0.52020  0.38730  Biso   1.000  C
  C127     1.0000 0.21710  0.97980  0.88730  Biso   1.000  C
  C128     1.0000 0.78290  0.47980  0.61270  Biso   1.000  C
  H157     1.0000 0.86250  0.05580  0.11950  Biso   1.000  H
  H158     1.0000 0.13750  0.55580  0.38050  Biso   1.000  H
  H159     1.0000 0.13750  0.94420  0.88050  Biso   1.000  H
  H160     1.0000 0.86250  0.44420  0.61950  Biso   1.000  H
  H161     1.0000 0.71690  0.06570  0.12000  Biso   1.000  H
  H162     1.0000 0.28310  0.56570  0.38000  Biso   1.000  H
  H163     1.0000 0.28310  0.93430  0.88000  Biso   1.000  H
  H164     1.0000 0.71690  0.43430  0.62000  Biso   1.000  H
  H165     1.0000 0.76590  0.99880  0.07550  Biso   1.000  H
  H166     1.0000 0.23410  0.49880  0.42450  Biso   1.000  H
  H167     1.0000 0.23410  0.00120  0.92450  Biso   1.000  H
  H168     1.0000 0.76590  0.50120  0.57550  Biso   1.000  H
