data_image0
_cell_length_a       10.1608
_cell_length_b       11.0929
_cell_length_c       12.1839
_cell_angle_alpha    80.391
_cell_angle_beta     67.355
_cell_angle_gamma    75.732

_symmetry_space_group_name_H-M    "P 1"
_symmetry_int_tables_number       1

loop_
  _symmetry_equiv_pos_as_xyz
  'x, y, z'

loop_
  _atom_site_label
  _atom_site_occupancy
  _atom_site_fract_x
  _atom_site_fract_y
  _atom_site_fract_z
  _atom_site_thermal_displace_type
  _atom_site_B_iso_or_equiv
  _atom_site_type_symbol
  Cu1      1.0000 0.45839  0.40437  0.97786  Biso   1.000  Cu
  Cu2      1.0000 0.54161  0.59563  0.02214  Biso   1.000  Cu
  Cu3      1.0000 0.50000  0.00000  0.00000  Biso   1.000  Cu
  O1       1.0000 0.42670  0.23170  0.94350  Biso   1.000  O
  O2       1.0000 0.57330  0.76830  0.05650  Biso   1.000  O
  O3       1.0000 0.46010  0.06670  0.85120  Biso   1.000  O
  O4       1.0000 0.53990  0.93330  0.14880  Biso   1.000  O
  O5       1.0000 0.38190  0.53240  0.86980  Biso   1.000  O
  O6       1.0000 0.61810  0.46760  0.13020  Biso   1.000  O
  O7       1.0000 0.64670  0.38580  0.84770  Biso   1.000  O
  O8       1.0000 0.35330  0.61420  0.15230  Biso   1.000  O
  O9       1.0000 0.28060  0.45270  0.11620  Biso   1.000  O
  O10      1.0000 0.71940  0.54730  0.88380  Biso   1.000  O
  O11      1.0000 0.55390  0.30690  0.08870  Biso   1.000  O
  O12      1.0000 0.44610  0.69310  0.91130  Biso   1.000  O
  N1       1.0000 0.70570  0.01680  0.92070  Biso   1.000  N
  N2       1.0000 0.29430  0.98320  0.07930  Biso   1.000  N
  N3       1.0000 0.75570  0.09820  0.95200  Biso   1.000  N
  N4       1.0000 0.24430  0.90180  0.04800  Biso   1.000  N
  H1       1.0000 0.70310  0.14900  0.00490  Biso   1.000  H
  H2       1.0000 0.29690  0.85100  0.99510  Biso   1.000  H
  C1       1.0000 0.39030  0.64530  0.85550  Biso   1.000  C
  C2       1.0000 0.60970  0.35470  0.14450  Biso   1.000  C
  C3       1.0000 0.34910  0.72500  0.76010  Biso   1.000  C
  C4       1.0000 0.65090  0.27500  0.23990  Biso   1.000  C
  C5       1.0000 0.28800  0.68010  0.69640  Biso   1.000  C
  C6       1.0000 0.71200  0.31990  0.30360  Biso   1.000  C
  H3       1.0000 0.26750  0.60030  0.71810  Biso   1.000  H
  H4       1.0000 0.73250  0.39970  0.28190  Biso   1.000  H
  C7       1.0000 0.25500  0.74890  0.60190  Biso   1.000  C
  C8       1.0000 0.74500  0.25110  0.39810  Biso   1.000  C
  H5       1.0000 0.21400  0.71480  0.56090  Biso   1.000  H
  H6       1.0000 0.78600  0.28520  0.43910  Biso   1.000  H
  C9       1.0000 0.28190  0.86740  0.56770  Biso   1.000  C
  C10      1.0000 0.71810  0.13260  0.43230  Biso   1.000  C
  C11      1.0000 0.34400  0.91440  0.63080  Biso   1.000  C
  C12      1.0000 0.65600  0.08560  0.36920  Biso   1.000  C
  H7       1.0000 0.36390  0.99420  0.60860  Biso   1.000  H
  H8       1.0000 0.63610  0.00580  0.39140  Biso   1.000  H
  C13      1.0000 0.37680  0.84530  0.72570  Biso   1.000  C
  C14      1.0000 0.62320  0.15470  0.27430  Biso   1.000  C
  H9       1.0000 0.41770  0.87930  0.76680  Biso   1.000  H
  H10      1.0000 0.58230  0.12070  0.23320  Biso   1.000  H
  C15      1.0000 0.25100  0.94400  0.46000  Biso   1.000  C
  C16      1.0000 0.74900  0.05600  0.54000  Biso   1.000  C
  H11      1.0000 0.14990  0.95500  0.47300  Biso   1.000  H
  H12      1.0000 0.85010  0.04500  0.52700  Biso   1.000  H
  H13      1.0000 0.27670  0.02390  0.45010  Biso   1.000  H
  H14      1.0000 0.72330  0.97610  0.54990  Biso   1.000  H
  H15      1.0000 0.30840  0.90050  0.38960  Biso   1.000  H
  H16      1.0000 0.69160  0.09950  0.61040  Biso   1.000  H
  C17      1.0000 0.73900  0.45520  0.82720  Biso   1.000  C
  C18      1.0000 0.26100  0.54480  0.17280  Biso   1.000  C
  C19      1.0000 0.87930  0.42470  0.72480  Biso   1.000  C
  C20      1.0000 0.12070  0.57530  0.27520  Biso   1.000  C
  C21      1.0000 0.90160  0.32690  0.65680  Biso   1.000  C
  C22      1.0000 0.09840  0.67310  0.34320  Biso   1.000  C
  H17      1.0000 0.82780  0.28340  0.67330  Biso   1.000  H
  H18      1.0000 0.17220  0.71660  0.32670  Biso   1.000  H
  C23      1.0000 0.03200  0.29500  0.56550  Biso   1.000  C
  C24      1.0000 0.96800  0.70500  0.43450  Biso   1.000  C
  H19      1.0000 0.04480  0.23080  0.51930  Biso   1.000  H
  H20      1.0000 0.95520  0.76920  0.48070  Biso   1.000  H
  C25      1.0000 0.14410  0.35480  0.54150  Biso   1.000  C
  C26      1.0000 0.85590  0.64520  0.45850  Biso   1.000  C
  C27      1.0000 0.12000  0.45270  0.60820  Biso   1.000  C
  C28      1.0000 0.88000  0.54730  0.39180  Biso   1.000  C
  H21      1.0000 0.19320  0.49750  0.59010  Biso   1.000  H
  H22      1.0000 0.80680  0.50250  0.40990  Biso   1.000  H
  C29      1.0000 0.98900  0.48570  0.70180  Biso   1.000  C
  C30      1.0000 0.01100  0.51430  0.29820  Biso   1.000  C
  H23      1.0000 0.96050  0.56640  0.72660  Biso   1.000  H
  H24      1.0000 0.03950  0.43360  0.27340  Biso   1.000  H
  C31      1.0000 0.29000  0.32000  0.44330  Biso   1.000  C
  C32      1.0000 0.71000  0.68000  0.55670  Biso   1.000  C
  H25      1.0000 0.34640  0.24650  0.47010  Biso   1.000  H
  H26      1.0000 0.65360  0.75350  0.52990  Biso   1.000  H
  H27      1.0000 0.34120  0.38750  0.42320  Biso   1.000  H
  H28      1.0000 0.65880  0.61250  0.57680  Biso   1.000  H
  H29      1.0000 0.27580  0.30380  0.37410  Biso   1.000  H
  H30      1.0000 0.72420  0.69620  0.62590  Biso   1.000  H
  C33      1.0000 0.43110  0.18760  0.85440  Biso   1.000  C
  C34      1.0000 0.56890  0.81240  0.14560  Biso   1.000  C
  C35      1.0000 0.98800  0.16900  0.91100  Biso   1.000  C
  C36      1.0000 0.01200  0.83100  0.08900  Biso   1.000  C
  H31      1.0000 0.08830  0.12630  0.88990  Biso   1.000  H
  H32      1.0000 0.91170  0.87370  0.11010  Biso   1.000  H
  H33      1.0000 0.94990  0.18670  0.99280  Biso   1.000  H
  H34      1.0000 0.05010  0.81330  0.00720  Biso   1.000  H
  H35      1.0000 0.98240  0.24520  0.86100  Biso   1.000  H
  H36      1.0000 0.01760  0.75480  0.13900  Biso   1.000  H
  C37      1.0000 0.90300  0.08860  0.89270  Biso   1.000  C
  C38      1.0000 0.09700  0.91140  0.10730  Biso   1.000  C
  C39      1.0000 0.94330  0.99020  0.82320  Biso   1.000  C
  C40      1.0000 0.05670  0.00980  0.17680  Biso   1.000  C
  H37      1.0000 0.03690  0.95810  0.77280  Biso   1.000  H
  H38      1.0000 0.96310  0.04190  0.22720  Biso   1.000  H
  C41      1.0000 0.81980  0.94830  0.84160  Biso   1.000  C
  C42      1.0000 0.18020  0.05170  0.15840  Biso   1.000  C
  C43      1.0000 0.80300  0.84350  0.78800  Biso   1.000  C
  C44      1.0000 0.19700  0.15650  0.21200  Biso   1.000  C
  H39      1.0000 0.77320  0.77870  0.84930  Biso   1.000  H
  H40      1.0000 0.22680  0.22130  0.15070  Biso   1.000  H
  H41      1.0000 0.89490  0.81080  0.72870  Biso   1.000  H
  H42      1.0000 0.10510  0.18920  0.27130  Biso   1.000  H
  H43      1.0000 0.73150  0.87370  0.75150  Biso   1.000  H
  H44      1.0000 0.26850  0.12630  0.24850  Biso   1.000  H
  C45      1.0000 0.39800  0.26520  0.75470  Biso   1.000  C
  C46      1.0000 0.60200  0.73480  0.24530  Biso   1.000  C
  H45      1.0000 0.32500  0.33740  0.78420  Biso   1.000  H
  H46      1.0000 0.67500  0.66260  0.21580  Biso   1.000  H
  H47      1.0000 0.36370  0.21790  0.71610  Biso   1.000  H
  H48      1.0000 0.63630  0.78210  0.28390  Biso   1.000  H
  H49      1.0000 0.48510  0.29110  0.69850  Biso   1.000  H
  H50      1.0000 0.51490  0.70890  0.30150  Biso   1.000  H
