data_image0
_cell_length_a       7.8256
_cell_length_b       22.331
_cell_length_c       8.9976
_cell_angle_alpha    90
_cell_angle_beta     110.04
_cell_angle_gamma    90

_symmetry_space_group_name_H-M    "P 1"
_symmetry_int_tables_number       1

loop_
  _symmetry_equiv_pos_as_xyz
  'x, y, z'

loop_
  _atom_site_label
  _atom_site_occupancy
  _atom_site_fract_x
  _atom_site_fract_y
  _atom_site_fract_z
  _atom_site_thermal_displace_type
  _atom_site_B_iso_or_equiv
  _atom_site_type_symbol
  Cu1      1.0000 0.44720  0.13211  0.83884  Biso   1.000  Cu
  Cu2      1.0000 0.44720  0.86789  0.33884  Biso   1.000  Cu
  Cu3      1.0000 0.94720  0.63211  0.83884  Biso   1.000  Cu
  Cu4      1.0000 0.94720  0.36789  0.33884  Biso   1.000  Cu
  O1       1.0000 0.30720  0.19950  0.20040  Biso   1.000  O
  O2       1.0000 0.30720  0.80050  0.70040  Biso   1.000  O
  O3       1.0000 0.80720  0.69950  0.20040  Biso   1.000  O
  O4       1.0000 0.80720  0.30050  0.70040  Biso   1.000  O
  O5       1.0000 0.59730  0.13260  0.70540  Biso   1.000  O
  O6       1.0000 0.59730  0.86740  0.20540  Biso   1.000  O
  O7       1.0000 0.09730  0.63260  0.70540  Biso   1.000  O
  O8       1.0000 0.09730  0.36740  0.20540  Biso   1.000  O
  O9       1.0000 0.73860  0.04390  0.74640  Biso   1.000  O
  O10      1.0000 0.73860  0.95610  0.24640  Biso   1.000  O
  O11      1.0000 0.23860  0.54390  0.74640  Biso   1.000  O
  O12      1.0000 0.23860  0.45610  0.24640  Biso   1.000  O
  N1       1.0000 0.59580  0.19880  0.96950  Biso   1.000  N
  N2       1.0000 0.59580  0.80120  0.46950  Biso   1.000  N
  N3       1.0000 0.09580  0.69880  0.96950  Biso   1.000  N
  N4       1.0000 0.09580  0.30120  0.46950  Biso   1.000  N
  N5       1.0000 0.76580  0.29330  0.16460  Biso   1.000  N
  N6       1.0000 0.76580  0.70670  0.66460  Biso   1.000  N
  N7       1.0000 0.26580  0.79330  0.16460  Biso   1.000  N
  N8       1.0000 0.26580  0.20670  0.66460  Biso   1.000  N
  N9       1.0000 0.31090  0.14210  0.98440  Biso   1.000  N
  N10      1.0000 0.31090  0.85790  0.48440  Biso   1.000  N
  N11      1.0000 0.81090  0.64210  0.98440  Biso   1.000  N
  N12      1.0000 0.81090  0.35790  0.48440  Biso   1.000  N
  N13      1.0000 0.32550  0.94300  0.23610  Biso   1.000  N
  N14      1.0000 0.32550  0.05700  0.73610  Biso   1.000  N
  N15      1.0000 0.82550  0.44300  0.23610  Biso   1.000  N
  N16      1.0000 0.82550  0.55700  0.73610  Biso   1.000  N
  C1       1.0000 0.73780  0.22550  0.95100  Biso   1.000  C
  C2       1.0000 0.73780  0.77450  0.45100  Biso   1.000  C
  C3       1.0000 0.23780  0.72550  0.95100  Biso   1.000  C
  C4       1.0000 0.23780  0.27450  0.45100  Biso   1.000  C
  H1       1.0000 0.78390  0.21200  0.87200  Biso   1.000  H
  H2       1.0000 0.78390  0.78800  0.37200  Biso   1.000  H
  H3       1.0000 0.28390  0.71200  0.87200  Biso   1.000  H
  H4       1.0000 0.28390  0.28800  0.37200  Biso   1.000  H
  C5       1.0000 0.82060  0.27420  0.04830  Biso   1.000  C
  C6       1.0000 0.82060  0.72580  0.54830  Biso   1.000  C
  C7       1.0000 0.32060  0.77420  0.04830  Biso   1.000  C
  C8       1.0000 0.32060  0.22580  0.54830  Biso   1.000  C
  H5       1.0000 0.91910  0.29400  0.03040  Biso   1.000  H
  H6       1.0000 0.91910  0.70600  0.53040  Biso   1.000  H
  H7       1.0000 0.41910  0.79400  0.03040  Biso   1.000  H
  H8       1.0000 0.41910  0.20600  0.53040  Biso   1.000  H
  C9       1.0000 0.62080  0.26470  0.18310  Biso   1.000  C
  C10      1.0000 0.62080  0.73530  0.68310  Biso   1.000  C
  C11      1.0000 0.12080  0.76470  0.18310  Biso   1.000  C
  C12      1.0000 0.12080  0.23530  0.68310  Biso   1.000  C
  H9       1.0000 0.57710  0.27740  0.26440  Biso   1.000  H
  H10      1.0000 0.57710  0.72260  0.76440  Biso   1.000  H
  H11      1.0000 0.07710  0.77740  0.26440  Biso   1.000  H
  H12      1.0000 0.07710  0.22260  0.76440  Biso   1.000  H
  C13      1.0000 0.53510  0.21740  0.08520  Biso   1.000  C
  C14      1.0000 0.53510  0.78260  0.58520  Biso   1.000  C
  C15      1.0000 0.03510  0.71740  0.08520  Biso   1.000  C
  C16      1.0000 0.03510  0.28260  0.58520  Biso   1.000  C
  C17      1.0000 0.37070  0.18480  0.09320  Biso   1.000  C
  C18      1.0000 0.37070  0.81520  0.59320  Biso   1.000  C
  C19      1.0000 0.87070  0.68480  0.09320  Biso   1.000  C
  C20      1.0000 0.87070  0.31520  0.59320  Biso   1.000  C
  C21      1.0000 0.15120  0.10780  0.98010  Biso   1.000  C
  C22      1.0000 0.15120  0.89220  0.48010  Biso   1.000  C
  C23      1.0000 0.65120  0.60780  0.98010  Biso   1.000  C
  C24      1.0000 0.65120  0.39220  0.48010  Biso   1.000  C
  H13      1.0000 0.07740  0.09870  0.86890  Biso   1.000  H
  H14      1.0000 0.07740  0.90130  0.36890  Biso   1.000  H
  H15      1.0000 0.57740  0.59870  0.86890  Biso   1.000  H
  H16      1.0000 0.57740  0.40130  0.36890  Biso   1.000  H
  H17      1.0000 0.07570  0.13200  0.02620  Biso   1.000  H
  H18      1.0000 0.07570  0.86800  0.52620  Biso   1.000  H
  H19      1.0000 0.57570  0.63200  0.02620  Biso   1.000  H
  H20      1.0000 0.57570  0.36800  0.52620  Biso   1.000  H
  C25      1.0000 0.20580  0.04970  0.07210  Biso   1.000  C
  C26      1.0000 0.20580  0.95030  0.57210  Biso   1.000  C
  C27      1.0000 0.70580  0.54970  0.07210  Biso   1.000  C
  C28      1.0000 0.70580  0.45030  0.57210  Biso   1.000  C
  C29      1.0000 0.13600  0.99550  0.00590  Biso   1.000  C
  C30      1.0000 0.13600  0.00450  0.50590  Biso   1.000  C
  C31      1.0000 0.63600  0.49550  0.00590  Biso   1.000  C
  C32      1.0000 0.63600  0.50450  0.50590  Biso   1.000  C
  H21      1.0000 0.04250  0.99390  0.90530  Biso   1.000  H
  H22      1.0000 0.04250  0.00610  0.40530  Biso   1.000  H
  H23      1.0000 0.54250  0.49390  0.90530  Biso   1.000  H
  H24      1.0000 0.54250  0.50610  0.40530  Biso   1.000  H
  C33      1.0000 0.20440  0.94290  0.08840  Biso   1.000  C
  C34      1.0000 0.20440  0.05710  0.58840  Biso   1.000  C
  C35      1.0000 0.70440  0.44290  0.08840  Biso   1.000  C
  C36      1.0000 0.70440  0.55710  0.58840  Biso   1.000  C
  H25      1.0000 0.16380  0.90560  0.03810  Biso   1.000  H
  H26      1.0000 0.16380  0.09440  0.53810  Biso   1.000  H
  H27      1.0000 0.66380  0.40560  0.03810  Biso   1.000  H
  H28      1.0000 0.66380  0.59440  0.53810  Biso   1.000  H
  C37      1.0000 0.38720  0.99640  0.30010  Biso   1.000  C
  C38      1.0000 0.38720  0.00360  0.80010  Biso   1.000  C
  C39      1.0000 0.88720  0.49640  0.30010  Biso   1.000  C
  C40      1.0000 0.88720  0.50360  0.80010  Biso   1.000  C
  H29      1.0000 0.47470  0.99720  0.40390  Biso   1.000  H
  H30      1.0000 0.47470  0.00280  0.90390  Biso   1.000  H
  H31      1.0000 0.97470  0.49720  0.40390  Biso   1.000  H
  H32      1.0000 0.97470  0.50280  0.90390  Biso   1.000  H
  C41      1.0000 0.33100  0.05030  0.22390  Biso   1.000  C
  C42      1.0000 0.33100  0.94970  0.72390  Biso   1.000  C
  C43      1.0000 0.83100  0.55030  0.22390  Biso   1.000  C
  C44      1.0000 0.83100  0.44970  0.72390  Biso   1.000  C
  H33      1.0000 0.37750  0.08710  0.27480  Biso   1.000  H
  H34      1.0000 0.37750  0.91290  0.77480  Biso   1.000  H
  H35      1.0000 0.87750  0.58710  0.27480  Biso   1.000  H
  H36      1.0000 0.87750  0.41290  0.77480  Biso   1.000  H
  C45      1.0000 0.69270  0.09070  0.67050  Biso   1.000  C
  C46      1.0000 0.69270  0.90930  0.17050  Biso   1.000  C
  C47      1.0000 0.19270  0.59070  0.67050  Biso   1.000  C
  C48      1.0000 0.19270  0.40930  0.17050  Biso   1.000  C
  C49      1.0000 0.75310  0.10580  0.53230  Biso   1.000  C
  C50      1.0000 0.75310  0.89420  0.03230  Biso   1.000  C
  C51      1.0000 0.25310  0.60580  0.53230  Biso   1.000  C
  C52      1.0000 0.25310  0.39420  0.03230  Biso   1.000  C
  H37      1.0000 0.77240  0.06870  0.48200  Biso   1.000  H
  H38      1.0000 0.77240  0.93130  0.98200  Biso   1.000  H
  H39      1.0000 0.27240  0.56870  0.48200  Biso   1.000  H
  H40      1.0000 0.27240  0.43130  0.98200  Biso   1.000  H
  H41      1.0000 0.86690  0.12850  0.57010  Biso   1.000  H
  H42      1.0000 0.86690  0.87150  0.07010  Biso   1.000  H
  H43      1.0000 0.36690  0.62850  0.57010  Biso   1.000  H
  H44      1.0000 0.36690  0.37150  0.07010  Biso   1.000  H
  H45      1.0000 0.65910  0.12980  0.45520  Biso   1.000  H
  H46      1.0000 0.65910  0.87020  0.95520  Biso   1.000  H
  H47      1.0000 0.15910  0.62980  0.45520  Biso   1.000  H
  H48      1.0000 0.15910  0.37020  0.95520  Biso   1.000  H
  O13      1.0000 0.76620  0.06500  0.07910  Biso   1.000  O
  O14      1.0000 0.76620  0.93500  0.57910  Biso   1.000  O
  O15      1.0000 0.26620  0.56500  0.07910  Biso   1.000  O
  O16      1.0000 0.26620  0.43500  0.57910  Biso   1.000  O
  H49      1.0000 0.76400  0.04200  0.15100  Biso   1.000  H
  H50      1.0000 0.76400  0.95800  0.65100  Biso   1.000  H
  H51      1.0000 0.26400  0.54200  0.15100  Biso   1.000  H
  H52      1.0000 0.26400  0.45800  0.65100  Biso   1.000  H
  H53      1.0000 0.75200  0.04400  0.99800  Biso   1.000  H
  H54      1.0000 0.75200  0.95600  0.49800  Biso   1.000  H
  H55      1.0000 0.25200  0.54400  0.99800  Biso   1.000  H
  H56      1.0000 0.25200  0.45600  0.49800  Biso   1.000  H
  O17      1.0000 0.99600  0.15460  0.29890  Biso   1.000  O
  O18      1.0000 0.99600  0.84540  0.79890  Biso   1.000  O
  O19      1.0000 0.49600  0.65460  0.29890  Biso   1.000  O
  O20      1.0000 0.49600  0.34540  0.79890  Biso   1.000  O
  H57      1.0000 0.92500  0.13400  0.22200  Biso   1.000  H
  H58      1.0000 0.92500  0.86600  0.72200  Biso   1.000  H
  H59      1.0000 0.42500  0.63400  0.22200  Biso   1.000  H
  H60      1.0000 0.42500  0.36600  0.72200  Biso   1.000  H
  H61      1.0000 0.07200  0.16900  0.26100  Biso   1.000  H
  H62      1.0000 0.07200  0.83100  0.76100  Biso   1.000  H
  H63      1.0000 0.57200  0.66900  0.26100  Biso   1.000  H
  H64      1.0000 0.57200  0.33100  0.76100  Biso   1.000  H
