data_image0
_cell_length_a       4.673
_cell_length_b       20.476
_cell_length_c       12.026
_cell_angle_alpha    90
_cell_angle_beta     97.38
_cell_angle_gamma    90

_symmetry_space_group_name_H-M    "P 1"
_symmetry_int_tables_number       1

loop_
  _symmetry_equiv_pos_as_xyz
  'x, y, z'

loop_
  _atom_site_label
  _atom_site_occupancy
  _atom_site_fract_x
  _atom_site_fract_y
  _atom_site_fract_z
  _atom_site_thermal_displace_type
  _atom_site_B_iso_or_equiv
  _atom_site_type_symbol
  Cu1      1.0000 0.00000  0.00000  0.00000  Biso   1.000  Cu
  Cu2      1.0000 0.50000  0.50000  0.50000  Biso   1.000  Cu
  O1       1.0000 0.73500  0.07370  0.00230  Biso   1.000  O
  O2       1.0000 0.76500  0.57370  0.49770  Biso   1.000  O
  O3       1.0000 0.26500  0.92630  0.99770  Biso   1.000  O
  O4       1.0000 0.23500  0.42630  0.50230  Biso   1.000  O
  O5       1.0000 0.11750  0.10860  0.11310  Biso   1.000  O
  O6       1.0000 0.38250  0.60860  0.38690  Biso   1.000  O
  O7       1.0000 0.88250  0.89140  0.88690  Biso   1.000  O
  O8       1.0000 0.61750  0.39140  0.61310  Biso   1.000  O
  C1       1.0000 0.87450  0.11750  0.06380  Biso   1.000  C
  C2       1.0000 0.62550  0.61750  0.43620  Biso   1.000  C
  C3       1.0000 0.12550  0.88250  0.93620  Biso   1.000  C
  C4       1.0000 0.37450  0.38250  0.56380  Biso   1.000  C
  C5       1.0000 0.71760  0.18200  0.06850  Biso   1.000  C
  C6       1.0000 0.78240  0.68200  0.43150  Biso   1.000  C
  C7       1.0000 0.28240  0.81800  0.93150  Biso   1.000  C
  C8       1.0000 0.21760  0.31800  0.56850  Biso   1.000  C
  N1       1.0000 0.89100  0.23100  0.13300  Biso   1.000  N
  N2       1.0000 0.60900  0.73100  0.36700  Biso   1.000  N
  N3       1.0000 0.10900  0.76900  0.86700  Biso   1.000  N
  N4       1.0000 0.39100  0.26900  0.63300  Biso   1.000  N
  C9       1.0000 0.99610  0.28280  0.08630  Biso   1.000  C
  C10      1.0000 0.50390  0.78280  0.41370  Biso   1.000  C
  C11      1.0000 0.00390  0.71720  0.91370  Biso   1.000  C
  C12      1.0000 0.49610  0.21720  0.58630  Biso   1.000  C
  O9       1.0000 0.94170  0.29480  0.98360  Biso   1.000  O
  O10      1.0000 0.55830  0.79480  0.51640  Biso   1.000  O
  O11      1.0000 0.05830  0.70520  0.01640  Biso   1.000  O
  O12      1.0000 0.44170  0.20520  0.48360  Biso   1.000  O
  C13      1.0000 0.18420  0.32760  0.16070  Biso   1.000  C
  C14      1.0000 0.31580  0.82760  0.33930  Biso   1.000  C
  C15      1.0000 0.81580  0.67240  0.83930  Biso   1.000  C
  C16      1.0000 0.68420  0.17240  0.66070  Biso   1.000  C
  C17      1.0000 0.36350  0.30540  0.25390  Biso   1.000  C
  C18      1.0000 0.13650  0.80540  0.24610  Biso   1.000  C
  C19      1.0000 0.63650  0.69460  0.74610  Biso   1.000  C
  C20      1.0000 0.86350  0.19460  0.75390  Biso   1.000  C
  C21      1.0000 0.53690  0.34870  0.32080  Biso   1.000  C
  C22      1.0000 0.96310  0.84870  0.17920  Biso   1.000  C
  C23      1.0000 0.46310  0.65130  0.67920  Biso   1.000  C
  C24      1.0000 0.03690  0.15130  0.82080  Biso   1.000  C
  C25      1.0000 0.52760  0.41510  0.29590  Biso   1.000  C
  C26      1.0000 0.97240  0.91510  0.20410  Biso   1.000  C
  C27      1.0000 0.47240  0.58490  0.70410  Biso   1.000  C
  C28      1.0000 0.02760  0.08490  0.79590  Biso   1.000  C
  C29      1.0000 0.35010  0.43740  0.20310  Biso   1.000  C
  C30      1.0000 0.14990  0.93740  0.29690  Biso   1.000  C
  C31      1.0000 0.64990  0.56260  0.79690  Biso   1.000  C
  C32      1.0000 0.85010  0.06260  0.70310  Biso   1.000  C
  C33      1.0000 0.18300  0.39410  0.13500  Biso   1.000  C
  C34      1.0000 0.31700  0.89410  0.36500  Biso   1.000  C
  C35      1.0000 0.81700  0.60590  0.86500  Biso   1.000  C
  C36      1.0000 0.68300  0.10590  0.63500  Biso   1.000  C
  N5       1.0000 0.68920  0.46040  0.36990  Biso   1.000  N
  N6       1.0000 0.81080  0.96040  0.13010  Biso   1.000  N
  N7       1.0000 0.31080  0.53960  0.63010  Biso   1.000  N
  N8       1.0000 0.18920  0.03960  0.86990  Biso   1.000  N
  O13      1.0000 0.89420  0.18090  0.36080  Biso   1.000  O
  O14      1.0000 0.60580  0.68090  0.13920  Biso   1.000  O
  O15      1.0000 0.10580  0.81910  0.63920  Biso   1.000  O
  O16      1.0000 0.39420  0.31910  0.86080  Biso   1.000  O
  O17      1.0000 0.59600  0.06350  0.27240  Biso   1.000  O
  O18      1.0000 0.90400  0.56350  0.22760  Biso   1.000  O
  O19      1.0000 0.40400  0.93650  0.72760  Biso   1.000  O
  O20      1.0000 0.09600  0.43650  0.77240  Biso   1.000  O
  H1       1.0000 0.65620  0.20140  0.98640  Biso   1.000  H
  H2       1.0000 0.84380  0.70140  0.51360  Biso   1.000  H
  H3       1.0000 0.34380  0.79860  0.01360  Biso   1.000  H
  H4       1.0000 0.15620  0.29860  0.48640  Biso   1.000  H
  H5       1.0000 0.53060  0.17640  0.10720  Biso   1.000  H
  H6       1.0000 0.96940  0.67640  0.39280  Biso   1.000  H
  H7       1.0000 0.46940  0.82360  0.89280  Biso   1.000  H
  H8       1.0000 0.03060  0.32360  0.60720  Biso   1.000  H
  H9       1.0000 0.93790  0.22540  0.21800  Biso   1.000  H
  H10      1.0000 0.56210  0.72540  0.28200  Biso   1.000  H
  H11      1.0000 0.06210  0.77460  0.78200  Biso   1.000  H
  H12      1.0000 0.43790  0.27460  0.71800  Biso   1.000  H
  H13      1.0000 0.36460  0.25750  0.27780  Biso   1.000  H
  H14      1.0000 0.13540  0.75750  0.22220  Biso   1.000  H
  H15      1.0000 0.63540  0.74250  0.72220  Biso   1.000  H
  H16      1.0000 0.86460  0.24250  0.77780  Biso   1.000  H
  H17      1.0000 0.67000  0.33490  0.39680  Biso   1.000  H
  H18      1.0000 0.83000  0.83490  0.10320  Biso   1.000  H
  H19      1.0000 0.33000  0.66510  0.60320  Biso   1.000  H
  H20      1.0000 0.17000  0.16510  0.89680  Biso   1.000  H
  H21      1.0000 0.34190  0.48780  0.18520  Biso   1.000  H
  H22      1.0000 0.15810  0.98780  0.31480  Biso   1.000  H
  H23      1.0000 0.65810  0.51220  0.81480  Biso   1.000  H
  H24      1.0000 0.84190  0.01220  0.68520  Biso   1.000  H
  H25      1.0000 0.07670  0.40700  0.06020  Biso   1.000  H
  H26      1.0000 0.42330  0.90700  0.43980  Biso   1.000  H
  H27      1.0000 0.92330  0.59300  0.93980  Biso   1.000  H
  H28      1.0000 0.57670  0.09300  0.56020  Biso   1.000  H
  H29      1.0000 0.85540  0.44210  0.40420  Biso   1.000  H
  H30      1.0000 0.64460  0.94210  0.09580  Biso   1.000  H
  H31      1.0000 0.14460  0.55790  0.59580  Biso   1.000  H
  H32      1.0000 0.35540  0.05790  0.90420  Biso   1.000  H
  H33      1.0000 0.71860  0.49860  0.32960  Biso   1.000  H
  H34      1.0000 0.78140  0.99860  0.17040  Biso   1.000  H
  H35      1.0000 0.28140  0.50140  0.67040  Biso   1.000  H
  H36      1.0000 0.21860  0.00140  0.82960  Biso   1.000  H
  H37      1.0000 0.73740  0.19860  0.40850  Biso   1.000  H
  H38      1.0000 0.76260  0.69860  0.09150  Biso   1.000  H
  H39      1.0000 0.26260  0.80140  0.59150  Biso   1.000  H
  H40      1.0000 0.23740  0.30140  0.90850  Biso   1.000  H
  H41      1.0000 0.05780  0.18550  0.41310  Biso   1.000  H
  H42      1.0000 0.44220  0.68550  0.08690  Biso   1.000  H
  H43      1.0000 0.94220  0.81450  0.58690  Biso   1.000  H
  H44      1.0000 0.55780  0.31450  0.91310  Biso   1.000  H
  H45      1.0000 0.70570  0.09870  0.28970  Biso   1.000  H
  H46      1.0000 0.79430  0.59870  0.21030  Biso   1.000  H
  H47      1.0000 0.29430  0.90130  0.71030  Biso   1.000  H
  H48      1.0000 0.20570  0.40130  0.78970  Biso   1.000  H
  H49      1.0000 0.42900  0.08410  0.22740  Biso   1.000  H
  H50      1.0000 0.07100  0.58410  0.27260  Biso   1.000  H
  H51      1.0000 0.57100  0.91590  0.77260  Biso   1.000  H
  H52      1.0000 0.92900  0.41590  0.72740  Biso   1.000  H
