data_image0
_cell_length_a       24.098
_cell_length_b       11.347
_cell_length_c       9.692
_cell_angle_alpha    90
_cell_angle_beta     99.173
_cell_angle_gamma    90

_symmetry_space_group_name_H-M    "P 1"
_symmetry_int_tables_number       1

loop_
  _symmetry_equiv_pos_as_xyz
  'x, y, z'

loop_
  _atom_site_label
  _atom_site_occupancy
  _atom_site_fract_x
  _atom_site_fract_y
  _atom_site_fract_z
  _atom_site_thermal_displace_type
  _atom_site_B_iso_or_equiv
  _atom_site_type_symbol
  Cu1      1.0000 0.00000  0.00000  0.00000  Biso   1.000  Cu
  Cu2      1.0000 0.50000  0.50000  0.00000  Biso   1.000  Cu
  Cu3      1.0000 0.00000  0.00000  0.50000  Biso   1.000  Cu
  Cu4      1.0000 0.50000  0.50000  0.50000  Biso   1.000  Cu
  N1       1.0000 0.07566  0.92250  0.01380  Biso   1.000  N
  N2       1.0000 0.57566  0.42250  0.01380  Biso   1.000  N
  N3       1.0000 0.92434  0.92250  0.48620  Biso   1.000  N
  N4       1.0000 0.42434  0.42250  0.48620  Biso   1.000  N
  N5       1.0000 0.92434  0.07750  0.98620  Biso   1.000  N
  N6       1.0000 0.42434  0.57750  0.98620  Biso   1.000  N
  N7       1.0000 0.07566  0.07750  0.51380  Biso   1.000  N
  N8       1.0000 0.57566  0.57750  0.51380  Biso   1.000  N
  O1       1.0000 0.00000  0.93880  0.25000  Biso   1.000  O
  O2       1.0000 0.50000  0.43880  0.25000  Biso   1.000  O
  O3       1.0000 0.00000  0.06120  0.75000  Biso   1.000  O
  O4       1.0000 0.50000  0.56120  0.75000  Biso   1.000  O
  O5       1.0000 0.03385  0.15017  0.06690  Biso   1.000  O
  O6       1.0000 0.53385  0.65017  0.06690  Biso   1.000  O
  O7       1.0000 0.96615  0.15017  0.43310  Biso   1.000  O
  O8       1.0000 0.46615  0.65017  0.43310  Biso   1.000  O
  O9       1.0000 0.96615  0.84983  0.93310  Biso   1.000  O
  O10      1.0000 0.46615  0.34983  0.93310  Biso   1.000  O
  O11      1.0000 0.03385  0.84983  0.56690  Biso   1.000  O
  O12      1.0000 0.53385  0.34983  0.56690  Biso   1.000  O
  O13      1.0000 0.09108  0.18320  0.90990  Biso   1.000  O
  O14      1.0000 0.59108  0.68320  0.90990  Biso   1.000  O
  O15      1.0000 0.90892  0.18320  0.59010  Biso   1.000  O
  O16      1.0000 0.40892  0.68320  0.59010  Biso   1.000  O
  O17      1.0000 0.90892  0.81680  0.09010  Biso   1.000  O
  O18      1.0000 0.40892  0.31680  0.09010  Biso   1.000  O
  O19      1.0000 0.09108  0.81680  0.40990  Biso   1.000  O
  O20      1.0000 0.59108  0.31680  0.40990  Biso   1.000  O
  O21      1.0000 0.00000  0.66960  0.25000  Biso   1.000  O
  O22      1.0000 0.50000  0.16960  0.25000  Biso   1.000  O
  O23      1.0000 0.00000  0.33040  0.75000  Biso   1.000  O
  O24      1.0000 0.50000  0.83040  0.75000  Biso   1.000  O
  C1       1.0000 0.08712  0.84950  0.91370  Biso   1.000  C
  C2       1.0000 0.58712  0.34950  0.91370  Biso   1.000  C
  C3       1.0000 0.91288  0.84950  0.58630  Biso   1.000  C
  C4       1.0000 0.41288  0.34950  0.58630  Biso   1.000  C
  C5       1.0000 0.91288  0.15050  0.08630  Biso   1.000  C
  C6       1.0000 0.41288  0.65050  0.08630  Biso   1.000  C
  C7       1.0000 0.08712  0.15050  0.41370  Biso   1.000  C
  C8       1.0000 0.58712  0.65050  0.41370  Biso   1.000  C
  H1       1.0000 0.05930  0.83480  0.83750  Biso   1.000  H
  H2       1.0000 0.55930  0.33480  0.83750  Biso   1.000  H
  H3       1.0000 0.94070  0.83480  0.66250  Biso   1.000  H
  H4       1.0000 0.44070  0.33480  0.66250  Biso   1.000  H
  H5       1.0000 0.94070  0.16520  0.16250  Biso   1.000  H
  H6       1.0000 0.44070  0.66520  0.16250  Biso   1.000  H
  H7       1.0000 0.05930  0.16520  0.33750  Biso   1.000  H
  H8       1.0000 0.55930  0.66520  0.33750  Biso   1.000  H
  C9       1.0000 0.13824  0.79570  0.91950  Biso   1.000  C
  C10      1.0000 0.63824  0.29570  0.91950  Biso   1.000  C
  C11      1.0000 0.86176  0.79570  0.58050  Biso   1.000  C
  C12      1.0000 0.36176  0.29570  0.58050  Biso   1.000  C
  C13      1.0000 0.86176  0.20430  0.08050  Biso   1.000  C
  C14      1.0000 0.36176  0.70430  0.08050  Biso   1.000  C
  C15      1.0000 0.13824  0.20430  0.41950  Biso   1.000  C
  C16      1.0000 0.63824  0.70430  0.41950  Biso   1.000  C
  H9       1.0000 0.14490  0.74780  0.84600  Biso   1.000  H
  H10      1.0000 0.64490  0.24780  0.84600  Biso   1.000  H
  H11      1.0000 0.85510  0.74780  0.65400  Biso   1.000  H
  H12      1.0000 0.35510  0.24780  0.65400  Biso   1.000  H
  H13      1.0000 0.85510  0.25220  0.15400  Biso   1.000  H
  H14      1.0000 0.35510  0.75220  0.15400  Biso   1.000  H
  H15      1.0000 0.14490  0.25220  0.34600  Biso   1.000  H
  H16      1.0000 0.64490  0.75220  0.34600  Biso   1.000  H
  C17      1.0000 0.17976  0.81160  0.03190  Biso   1.000  C
  C18      1.0000 0.67976  0.31160  0.03190  Biso   1.000  C
  C19      1.0000 0.82024  0.81160  0.46810  Biso   1.000  C
  C20      1.0000 0.32024  0.31160  0.46810  Biso   1.000  C
  C21      1.0000 0.82024  0.18840  0.96810  Biso   1.000  C
  C22      1.0000 0.32024  0.68840  0.96810  Biso   1.000  C
  C23      1.0000 0.17976  0.18840  0.53190  Biso   1.000  C
  C24      1.0000 0.67976  0.68840  0.53190  Biso   1.000  C
  C25      1.0000 0.16825  0.88770  0.13390  Biso   1.000  C
  C26      1.0000 0.66825  0.38770  0.13390  Biso   1.000  C
  C27      1.0000 0.83175  0.88770  0.36610  Biso   1.000  C
  C28      1.0000 0.33175  0.38770  0.36610  Biso   1.000  C
  C29      1.0000 0.83175  0.11230  0.86610  Biso   1.000  C
  C30      1.0000 0.33175  0.61230  0.86610  Biso   1.000  C
  C31      1.0000 0.16825  0.11230  0.63390  Biso   1.000  C
  C32      1.0000 0.66825  0.61230  0.63390  Biso   1.000  C
  H17      1.0000 0.19560  0.90360  0.21080  Biso   1.000  H
  H18      1.0000 0.69560  0.40360  0.21080  Biso   1.000  H
  H19      1.0000 0.80440  0.90360  0.28920  Biso   1.000  H
  H20      1.0000 0.30440  0.40360  0.28920  Biso   1.000  H
  H21      1.0000 0.80440  0.09640  0.78920  Biso   1.000  H
  H22      1.0000 0.30440  0.59640  0.78920  Biso   1.000  H
  H23      1.0000 0.19560  0.09640  0.71080  Biso   1.000  H
  H24      1.0000 0.69560  0.59640  0.71080  Biso   1.000  H
  C33      1.0000 0.11639  0.94040  0.12230  Biso   1.000  C
  C34      1.0000 0.61639  0.44040  0.12230  Biso   1.000  C
  C35      1.0000 0.88361  0.94040  0.37770  Biso   1.000  C
  C36      1.0000 0.38361  0.44040  0.37770  Biso   1.000  C
  C37      1.0000 0.88361  0.05960  0.87770  Biso   1.000  C
  C38      1.0000 0.38361  0.55960  0.87770  Biso   1.000  C
  C39      1.0000 0.11639  0.05960  0.62230  Biso   1.000  C
  C40      1.0000 0.61639  0.55960  0.62230  Biso   1.000  C
  H25      1.0000 0.10940  0.99080  0.19320  Biso   1.000  H
  H26      1.0000 0.60940  0.49080  0.19320  Biso   1.000  H
  H27      1.0000 0.89060  0.99080  0.30680  Biso   1.000  H
  H28      1.0000 0.39060  0.49080  0.30680  Biso   1.000  H
  H29      1.0000 0.89060  0.00920  0.80680  Biso   1.000  H
  H30      1.0000 0.39060  0.50920  0.80680  Biso   1.000  H
  H31      1.0000 0.10940  0.00920  0.69320  Biso   1.000  H
  H32      1.0000 0.60940  0.50920  0.69320  Biso   1.000  H
  C41      1.0000 0.24410  0.79600  0.04560  Biso   1.000  C
  C42      1.0000 0.74410  0.29600  0.04560  Biso   1.000  C
  C43      1.0000 0.75590  0.79600  0.45440  Biso   1.000  C
  C44      1.0000 0.25590  0.29600  0.45440  Biso   1.000  C
  C45      1.0000 0.75590  0.20400  0.95440  Biso   1.000  C
  C46      1.0000 0.25590  0.70400  0.95440  Biso   1.000  C
  C47      1.0000 0.24410  0.20400  0.54560  Biso   1.000  C
  C48      1.0000 0.74410  0.70400  0.54560  Biso   1.000  C
  H33      1.0000 0.26110  0.86910  0.02090  Biso   1.000  H
  H34      1.0000 0.76110  0.36910  0.02090  Biso   1.000  H
  H35      1.0000 0.73890  0.86910  0.47910  Biso   1.000  H
  H36      1.0000 0.23890  0.36910  0.47910  Biso   1.000  H
  H37      1.0000 0.73890  0.13090  0.97910  Biso   1.000  H
  H38      1.0000 0.23890  0.63090  0.97910  Biso   1.000  H
  H39      1.0000 0.26110  0.13090  0.52090  Biso   1.000  H
  H40      1.0000 0.76110  0.63090  0.52090  Biso   1.000  H
  H41      1.0000 0.25980  0.77680  0.14130  Biso   1.000  H
  H42      1.0000 0.75980  0.27680  0.14130  Biso   1.000  H
  H43      1.0000 0.74020  0.77680  0.35870  Biso   1.000  H
  H44      1.0000 0.24020  0.27680  0.35870  Biso   1.000  H
  H45      1.0000 0.74020  0.22320  0.85870  Biso   1.000  H
  H46      1.0000 0.24020  0.72320  0.85870  Biso   1.000  H
  H47      1.0000 0.25980  0.22320  0.64130  Biso   1.000  H
  H48      1.0000 0.75980  0.72320  0.64130  Biso   1.000  H
  C49      1.0000 0.23140  0.71870  0.04390  Biso   1.000  C
  C50      1.0000 0.73140  0.21870  0.04390  Biso   1.000  C
  C51      1.0000 0.76860  0.71870  0.45610  Biso   1.000  C
  C52      1.0000 0.26860  0.21870  0.45610  Biso   1.000  C
  C53      1.0000 0.76860  0.28130  0.95610  Biso   1.000  C
  C54      1.0000 0.26860  0.78130  0.95610  Biso   1.000  C
  C55      1.0000 0.23140  0.28130  0.54390  Biso   1.000  C
  C56      1.0000 0.73140  0.78130  0.54390  Biso   1.000  C
  H49      1.0000 0.24980  0.70900  0.13980  Biso   1.000  H
  H50      1.0000 0.74980  0.20900  0.13980  Biso   1.000  H
  H51      1.0000 0.75020  0.70900  0.36020  Biso   1.000  H
  H52      1.0000 0.25020  0.20900  0.36020  Biso   1.000  H
  H53      1.0000 0.75020  0.29100  0.86020  Biso   1.000  H
  H54      1.0000 0.25020  0.79100  0.86020  Biso   1.000  H
  H55      1.0000 0.24980  0.29100  0.63980  Biso   1.000  H
  H56      1.0000 0.74980  0.79100  0.63980  Biso   1.000  H
  H57      1.0000 0.21920  0.64250  0.00510  Biso   1.000  H
  H58      1.0000 0.71920  0.14250  0.00510  Biso   1.000  H
  H59      1.0000 0.78080  0.64250  0.49490  Biso   1.000  H
  H60      1.0000 0.28080  0.14250  0.49490  Biso   1.000  H
  H61      1.0000 0.78080  0.35750  0.99490  Biso   1.000  H
  H62      1.0000 0.28080  0.85750  0.99490  Biso   1.000  H
  H63      1.0000 0.21920  0.35750  0.50510  Biso   1.000  H
  H64      1.0000 0.71920  0.85750  0.50510  Biso   1.000  H
  C57      1.0000 0.06890  0.21120  0.01100  Biso   1.000  C
  C58      1.0000 0.56890  0.71120  0.01100  Biso   1.000  C
  C59      1.0000 0.93110  0.21120  0.48900  Biso   1.000  C
  C60      1.0000 0.43110  0.71120  0.48900  Biso   1.000  C
  C61      1.0000 0.93110  0.78880  0.98900  Biso   1.000  C
  C62      1.0000 0.43110  0.28880  0.98900  Biso   1.000  C
  C63      1.0000 0.06890  0.78880  0.51100  Biso   1.000  C
  C64      1.0000 0.56890  0.28880  0.51100  Biso   1.000  C
  C65      1.0000 0.08145  0.33030  0.07960  Biso   1.000  C
  C66      1.0000 0.58145  0.83030  0.07960  Biso   1.000  C
  C67      1.0000 0.91855  0.33030  0.42040  Biso   1.000  C
  C68      1.0000 0.41855  0.83030  0.42040  Biso   1.000  C
  C69      1.0000 0.91855  0.66970  0.92040  Biso   1.000  C
  C70      1.0000 0.41855  0.16970  0.92040  Biso   1.000  C
  C71      1.0000 0.08145  0.66970  0.57960  Biso   1.000  C
  C72      1.0000 0.58145  0.16970  0.57960  Biso   1.000  C
  C73      1.0000 0.13353  0.38660  0.08790  Biso   1.000  C
  C74      1.0000 0.63353  0.88660  0.08790  Biso   1.000  C
  C75      1.0000 0.86647  0.38660  0.41210  Biso   1.000  C
  C76      1.0000 0.36647  0.88660  0.41210  Biso   1.000  C
  C77      1.0000 0.86647  0.61340  0.91210  Biso   1.000  C
  C78      1.0000 0.36647  0.11340  0.91210  Biso   1.000  C
  C79      1.0000 0.13353  0.61340  0.58790  Biso   1.000  C
  C80      1.0000 0.63353  0.11340  0.58790  Biso   1.000  C
  C81      1.0000 0.14072  0.49710  0.14840  Biso   1.000  C
  C82      1.0000 0.64072  0.99710  0.14840  Biso   1.000  C
  C83      1.0000 0.85928  0.49710  0.35160  Biso   1.000  C
  C84      1.0000 0.35928  0.99710  0.35160  Biso   1.000  C
  C85      1.0000 0.85928  0.50290  0.85160  Biso   1.000  C
  C86      1.0000 0.35928  0.00290  0.85160  Biso   1.000  C
  C87      1.0000 0.14072  0.50290  0.64840  Biso   1.000  C
  C88      1.0000 0.64072  0.00290  0.64840  Biso   1.000  C
  H65      1.0000 0.17530  0.53490  0.15380  Biso   1.000  H
  H66      1.0000 0.67530  0.03490  0.15380  Biso   1.000  H
  H67      1.0000 0.82470  0.53490  0.34620  Biso   1.000  H
  H68      1.0000 0.32470  0.03490  0.34620  Biso   1.000  H
  H69      1.0000 0.82470  0.46510  0.84620  Biso   1.000  H
  H70      1.0000 0.32470  0.96510  0.84620  Biso   1.000  H
  H71      1.0000 0.17530  0.46510  0.65380  Biso   1.000  H
  H72      1.0000 0.67530  0.96510  0.65380  Biso   1.000  H
  C89      1.0000 0.09748  0.55210  0.20070  Biso   1.000  C
  C90      1.0000 0.59748  0.05210  0.20070  Biso   1.000  C
  C91      1.0000 0.90252  0.55210  0.29930  Biso   1.000  C
  C92      1.0000 0.40252  0.05210  0.29930  Biso   1.000  C
  C93      1.0000 0.90252  0.44790  0.79930  Biso   1.000  C
  C94      1.0000 0.40252  0.94790  0.79930  Biso   1.000  C
  C95      1.0000 0.09748  0.44790  0.70070  Biso   1.000  C
  C96      1.0000 0.59748  0.94790  0.70070  Biso   1.000  C
  H73      1.0000 0.10310  0.62670  0.24040  Biso   1.000  H
  H74      1.0000 0.60310  0.12670  0.24040  Biso   1.000  H
  H75      1.0000 0.89690  0.62670  0.25960  Biso   1.000  H
  H76      1.0000 0.39690  0.12670  0.25960  Biso   1.000  H
  H77      1.0000 0.89690  0.37330  0.75960  Biso   1.000  H
  H78      1.0000 0.39690  0.87330  0.75960  Biso   1.000  H
  H79      1.0000 0.10310  0.37330  0.74040  Biso   1.000  H
  H80      1.0000 0.60310  0.87330  0.74040  Biso   1.000  H
  C97      1.0000 0.04598  0.49770  0.19500  Biso   1.000  C
  C98      1.0000 0.54598  0.99770  0.19500  Biso   1.000  C
  C99      1.0000 0.95402  0.49770  0.30500  Biso   1.000  C
  C100     1.0000 0.45402  0.99770  0.30500  Biso   1.000  C
  C101     1.0000 0.95402  0.50230  0.80500  Biso   1.000  C
  C102     1.0000 0.45402  0.00230  0.80500  Biso   1.000  C
  C103     1.0000 0.04598  0.50230  0.69500  Biso   1.000  C
  C104     1.0000 0.54598  0.00230  0.69500  Biso   1.000  C
  C105     1.0000 0.03861  0.38740  0.13460  Biso   1.000  C
  C106     1.0000 0.53861  0.88740  0.13460  Biso   1.000  C
  C107     1.0000 0.96139  0.38740  0.36540  Biso   1.000  C
  C108     1.0000 0.46139  0.88740  0.36540  Biso   1.000  C
  C109     1.0000 0.96139  0.61260  0.86540  Biso   1.000  C
  C110     1.0000 0.46139  0.11260  0.86540  Biso   1.000  C
  C111     1.0000 0.03861  0.61260  0.63460  Biso   1.000  C
  C112     1.0000 0.53861  0.11260  0.63460  Biso   1.000  C
  H81      1.0000 0.00400  0.35010  0.13060  Biso   1.000  H
  H82      1.0000 0.50400  0.85010  0.13060  Biso   1.000  H
  H83      1.0000 0.99600  0.35010  0.36940  Biso   1.000  H
  H84      1.0000 0.49600  0.85010  0.36940  Biso   1.000  H
  H85      1.0000 0.99600  0.64990  0.86940  Biso   1.000  H
  H86      1.0000 0.49600  0.14990  0.86940  Biso   1.000  H
  H87      1.0000 0.00400  0.64990  0.63060  Biso   1.000  H
  H88      1.0000 0.50400  0.14990  0.63060  Biso   1.000  H
  C113     1.0000 0.18371  0.32890  0.04140  Biso   1.000  C
  C114     1.0000 0.68371  0.82890  0.04140  Biso   1.000  C
  C115     1.0000 0.81629  0.32890  0.45860  Biso   1.000  C
  C116     1.0000 0.31629  0.82890  0.45860  Biso   1.000  C
  C117     1.0000 0.81629  0.67110  0.95860  Biso   1.000  C
  C118     1.0000 0.31629  0.17110  0.95860  Biso   1.000  C
  C119     1.0000 0.18371  0.67110  0.54140  Biso   1.000  C
  C120     1.0000 0.68371  0.17110  0.54140  Biso   1.000  C
  C121     1.0000 0.00000  0.56210  0.25000  Biso   1.000  C
  C122     1.0000 0.50000  0.06210  0.25000  Biso   1.000  C
  C123     1.0000 0.00000  0.43790  0.75000  Biso   1.000  C
  C124     1.0000 0.50000  0.93790  0.75000  Biso   1.000  C
  O25      1.0000 0.19661  0.22510  0.09810  Biso   1.000  O
  O26      1.0000 0.69661  0.72510  0.09810  Biso   1.000  O
  O27      1.0000 0.80339  0.22510  0.40190  Biso   1.000  O
  O28      1.0000 0.30339  0.72510  0.40190  Biso   1.000  O
  O29      1.0000 0.80339  0.77490  0.90190  Biso   1.000  O
  O30      1.0000 0.30339  0.27490  0.90190  Biso   1.000  O
  O31      1.0000 0.19661  0.77490  0.59810  Biso   1.000  O
  O32      1.0000 0.69661  0.27490  0.59810  Biso   1.000  O
  H89      1.0000 0.22560  0.20090  0.07340  Biso   1.000  H
  H90      1.0000 0.72560  0.70090  0.07340  Biso   1.000  H
  H91      1.0000 0.77440  0.20090  0.42660  Biso   1.000  H
  H92      1.0000 0.27440  0.70090  0.42660  Biso   1.000  H
  H93      1.0000 0.77440  0.79910  0.92660  Biso   1.000  H
  H94      1.0000 0.27440  0.29910  0.92660  Biso   1.000  H
  H95      1.0000 0.22560  0.79910  0.57340  Biso   1.000  H
  H96      1.0000 0.72560  0.29910  0.57340  Biso   1.000  H
  O33      1.0000 0.21010  0.37960  0.96420  Biso   1.000  O
  O34      1.0000 0.71010  0.87960  0.96420  Biso   1.000  O
  O35      1.0000 0.78990  0.37960  0.53580  Biso   1.000  O
  O36      1.0000 0.28990  0.87960  0.53580  Biso   1.000  O
  O37      1.0000 0.78990  0.62040  0.03580  Biso   1.000  O
  O38      1.0000 0.28990  0.12040  0.03580  Biso   1.000  O
  O39      1.0000 0.21010  0.62040  0.46420  Biso   1.000  O
  O40      1.0000 0.71010  0.12040  0.46420  Biso   1.000  O
  O41      1.0000 0.18180  0.27450  0.92260  Biso   1.000  O
  O42      1.0000 0.68180  0.77450  0.92260  Biso   1.000  O
  O43      1.0000 0.81820  0.27450  0.57740  Biso   1.000  O
  O44      1.0000 0.31820  0.77450  0.57740  Biso   1.000  O
  O45      1.0000 0.81820  0.72550  0.07740  Biso   1.000  O
  O46      1.0000 0.31820  0.22550  0.07740  Biso   1.000  O
  O47      1.0000 0.18180  0.72550  0.42260  Biso   1.000  O
  O48      1.0000 0.68180  0.22550  0.42260  Biso   1.000  O
  H97      1.0000 0.14960  0.27620  0.87990  Biso   1.000  H
  H98      1.0000 0.64960  0.77620  0.87990  Biso   1.000  H
  H99      1.0000 0.85040  0.27620  0.62010  Biso   1.000  H
  H100     1.0000 0.35040  0.77620  0.62010  Biso   1.000  H
  H101     1.0000 0.85040  0.72380  0.12010  Biso   1.000  H
  H102     1.0000 0.35040  0.22380  0.12010  Biso   1.000  H
  H103     1.0000 0.14960  0.72380  0.37990  Biso   1.000  H
  H104     1.0000 0.64960  0.22380  0.37990  Biso   1.000  H
  O49      1.0000 0.23010  0.39890  0.04800  Biso   1.000  O
  O50      1.0000 0.73010  0.89890  0.04800  Biso   1.000  O
  O51      1.0000 0.76990  0.39890  0.45200  Biso   1.000  O
  O52      1.0000 0.26990  0.89890  0.45200  Biso   1.000  O
  O53      1.0000 0.76990  0.60110  0.95200  Biso   1.000  O
  O54      1.0000 0.26990  0.10110  0.95200  Biso   1.000  O
  O55      1.0000 0.23010  0.60110  0.54800  Biso   1.000  O
  O56      1.0000 0.73010  0.10110  0.54800  Biso   1.000  O
  H105     1.0000 0.97400  0.89800  0.21900  Biso   1.000  H
  H106     1.0000 0.47400  0.39800  0.21900  Biso   1.000  H
  H107     1.0000 0.02600  0.89800  0.28100  Biso   1.000  H
  H108     1.0000 0.52600  0.39800  0.28100  Biso   1.000  H
  H109     1.0000 0.02600  0.10200  0.78100  Biso   1.000  H
  H110     1.0000 0.52600  0.60200  0.78100  Biso   1.000  H
  H111     1.0000 0.97400  0.10200  0.71900  Biso   1.000  H
  H112     1.0000 0.47400  0.60200  0.71900  Biso   1.000  H
