data_image0
_cell_length_a       21.765
_cell_length_b       13.122
_cell_length_c       16.206
_cell_angle_alpha    90
_cell_angle_beta     111.7
_cell_angle_gamma    90

_symmetry_space_group_name_H-M    "P 1"
_symmetry_int_tables_number       1

loop_
  _symmetry_equiv_pos_as_xyz
  'x, y, z'

loop_
  _atom_site_label
  _atom_site_occupancy
  _atom_site_fract_x
  _atom_site_fract_y
  _atom_site_fract_z
  _atom_site_thermal_displace_type
  _atom_site_B_iso_or_equiv
  _atom_site_type_symbol
  C1       1.0000 0.44823  0.14880  0.80550  Biso   1.000  C
  C2       1.0000 0.94823  0.64880  0.80550  Biso   1.000  C
  C3       1.0000 0.55177  0.14880  0.69450  Biso   1.000  C
  C4       1.0000 0.05177  0.64880  0.69450  Biso   1.000  C
  C5       1.0000 0.55177  0.85120  0.19450  Biso   1.000  C
  C6       1.0000 0.05177  0.35120  0.19450  Biso   1.000  C
  C7       1.0000 0.44823  0.85120  0.30550  Biso   1.000  C
  C8       1.0000 0.94823  0.35120  0.30550  Biso   1.000  C
  C9       1.0000 0.45213  0.04520  0.84550  Biso   1.000  C
  C10      1.0000 0.95213  0.54520  0.84550  Biso   1.000  C
  C11      1.0000 0.54787  0.04520  0.65450  Biso   1.000  C
  C12      1.0000 0.04787  0.54520  0.65450  Biso   1.000  C
  C13      1.0000 0.54787  0.95480  0.15450  Biso   1.000  C
  C14      1.0000 0.04787  0.45480  0.15450  Biso   1.000  C
  C15      1.0000 0.45213  0.95480  0.34550  Biso   1.000  C
  C16      1.0000 0.95213  0.45480  0.34550  Biso   1.000  C
  C17      1.0000 0.51208  0.99870  0.89350  Biso   1.000  C
  C18      1.0000 0.01208  0.49870  0.89350  Biso   1.000  C
  C19      1.0000 0.48792  0.99870  0.60650  Biso   1.000  C
  C20      1.0000 0.98792  0.49870  0.60650  Biso   1.000  C
  C21      1.0000 0.48792  0.00130  0.10650  Biso   1.000  C
  C22      1.0000 0.98792  0.50130  0.10650  Biso   1.000  C
  C23      1.0000 0.51208  0.00130  0.39350  Biso   1.000  C
  C24      1.0000 0.01208  0.50130  0.39350  Biso   1.000  C
  H1       1.0000 0.55160  0.03170  0.90100  Biso   1.000  H
  H2       1.0000 0.05160  0.53170  0.90100  Biso   1.000  H
  H3       1.0000 0.44840  0.03170  0.59900  Biso   1.000  H
  H4       1.0000 0.94840  0.53170  0.59900  Biso   1.000  H
  H5       1.0000 0.44840  0.96830  0.09900  Biso   1.000  H
  H6       1.0000 0.94840  0.46830  0.09900  Biso   1.000  H
  H7       1.0000 0.55160  0.96830  0.40100  Biso   1.000  H
  H8       1.0000 0.05160  0.46830  0.40100  Biso   1.000  H
  C25      1.0000 0.51290  0.90380  0.93010  Biso   1.000  C
  C26      1.0000 0.01290  0.40380  0.93010  Biso   1.000  C
  C27      1.0000 0.48710  0.90380  0.56990  Biso   1.000  C
  C28      1.0000 0.98710  0.40380  0.56990  Biso   1.000  C
  C29      1.0000 0.48710  0.09620  0.06990  Biso   1.000  C
  C30      1.0000 0.98710  0.59620  0.06990  Biso   1.000  C
  C31      1.0000 0.51290  0.09620  0.43010  Biso   1.000  C
  C32      1.0000 0.01290  0.59620  0.43010  Biso   1.000  C
  H9       1.0000 0.55310  0.87310  0.96280  Biso   1.000  H
  H10      1.0000 0.05310  0.37310  0.96280  Biso   1.000  H
  H11      1.0000 0.44690  0.87310  0.53720  Biso   1.000  H
  H12      1.0000 0.94690  0.37310  0.53720  Biso   1.000  H
  H13      1.0000 0.44690  0.12690  0.03720  Biso   1.000  H
  H14      1.0000 0.94690  0.62690  0.03720  Biso   1.000  H
  H15      1.0000 0.55310  0.12690  0.46280  Biso   1.000  H
  H16      1.0000 0.05310  0.62690  0.46280  Biso   1.000  H
  C33      1.0000 0.45440  0.85360  0.91870  Biso   1.000  C
  C34      1.0000 0.95440  0.35360  0.91870  Biso   1.000  C
  C35      1.0000 0.54560  0.85360  0.58130  Biso   1.000  C
  C36      1.0000 0.04560  0.35360  0.58130  Biso   1.000  C
  C37      1.0000 0.54560  0.14640  0.08130  Biso   1.000  C
  C38      1.0000 0.04560  0.64640  0.08130  Biso   1.000  C
  C39      1.0000 0.45440  0.14640  0.41870  Biso   1.000  C
  C40      1.0000 0.95440  0.64640  0.41870  Biso   1.000  C
  H17      1.0000 0.45530  0.79030  0.94480  Biso   1.000  H
  H18      1.0000 0.95530  0.29030  0.94480  Biso   1.000  H
  H19      1.0000 0.54470  0.79030  0.55520  Biso   1.000  H
  H20      1.0000 0.04470  0.29030  0.55520  Biso   1.000  H
  H21      1.0000 0.54470  0.20970  0.05520  Biso   1.000  H
  H22      1.0000 0.04470  0.70970  0.05520  Biso   1.000  H
  H23      1.0000 0.45530  0.20970  0.44480  Biso   1.000  H
  H24      1.0000 0.95530  0.70970  0.44480  Biso   1.000  H
  C41      1.0000 0.39335  0.99360  0.83200  Biso   1.000  C
  C42      1.0000 0.89335  0.49360  0.83200  Biso   1.000  C
  C43      1.0000 0.60665  0.99360  0.66800  Biso   1.000  C
  C44      1.0000 0.10665  0.49360  0.66800  Biso   1.000  C
  C45      1.0000 0.60665  0.00640  0.16800  Biso   1.000  C
  C46      1.0000 0.10665  0.50640  0.16800  Biso   1.000  C
  C47      1.0000 0.39335  0.00640  0.33200  Biso   1.000  C
  C48      1.0000 0.89335  0.50640  0.33200  Biso   1.000  C
  H25      1.0000 0.35310  0.02350  0.79830  Biso   1.000  H
  H26      1.0000 0.85310  0.52350  0.79830  Biso   1.000  H
  H27      1.0000 0.64690  0.02350  0.70170  Biso   1.000  H
  H28      1.0000 0.14690  0.52350  0.70170  Biso   1.000  H
  H29      1.0000 0.64690  0.97650  0.20170  Biso   1.000  H
  H30      1.0000 0.14690  0.47650  0.20170  Biso   1.000  H
  H31      1.0000 0.35310  0.97650  0.29830  Biso   1.000  H
  H32      1.0000 0.85310  0.47650  0.29830  Biso   1.000  H
  C49      1.0000 0.39449  0.89790  0.86840  Biso   1.000  C
  C50      1.0000 0.89449  0.39790  0.86840  Biso   1.000  C
  C51      1.0000 0.60551  0.89790  0.63160  Biso   1.000  C
  C52      1.0000 0.10551  0.39790  0.63160  Biso   1.000  C
  C53      1.0000 0.60551  0.10210  0.13160  Biso   1.000  C
  C54      1.0000 0.10551  0.60210  0.13160  Biso   1.000  C
  C55      1.0000 0.39449  0.10210  0.36840  Biso   1.000  C
  C56      1.0000 0.89449  0.60210  0.36840  Biso   1.000  C
  C57      1.0000 0.32982  0.84510  0.85280  Biso   1.000  C
  C58      1.0000 0.82982  0.34510  0.85280  Biso   1.000  C
  C59      1.0000 0.67018  0.84510  0.64720  Biso   1.000  C
  C60      1.0000 0.17018  0.34510  0.64720  Biso   1.000  C
  C61      1.0000 0.67018  0.15490  0.14720  Biso   1.000  C
  C62      1.0000 0.17018  0.65490  0.14720  Biso   1.000  C
  C63      1.0000 0.32982  0.15490  0.35280  Biso   1.000  C
  C64      1.0000 0.82982  0.65490  0.35280  Biso   1.000  C
  C65      1.0000 0.23895  0.57330  0.97650  Biso   1.000  C
  C66      1.0000 0.73895  0.07330  0.97650  Biso   1.000  C
  C67      1.0000 0.76105  0.57330  0.52350  Biso   1.000  C
  C68      1.0000 0.26105  0.07330  0.52350  Biso   1.000  C
  C69      1.0000 0.76105  0.42670  0.02350  Biso   1.000  C
  C70      1.0000 0.26105  0.92670  0.02350  Biso   1.000  C
  C71      1.0000 0.23895  0.42670  0.47650  Biso   1.000  C
  C72      1.0000 0.73895  0.92670  0.47650  Biso   1.000  C
  C73      1.0000 0.21656  0.46620  0.98140  Biso   1.000  C
  C74      1.0000 0.71656  0.96620  0.98140  Biso   1.000  C
  C75      1.0000 0.78344  0.46620  0.51860  Biso   1.000  C
  C76      1.0000 0.28344  0.96620  0.51860  Biso   1.000  C
  C77      1.0000 0.78344  0.53380  0.01860  Biso   1.000  C
  C78      1.0000 0.28344  0.03380  0.01860  Biso   1.000  C
  C79      1.0000 0.21656  0.53380  0.48140  Biso   1.000  C
  C80      1.0000 0.71656  0.03380  0.48140  Biso   1.000  C
  C81      1.0000 0.18887  0.40750  0.90480  Biso   1.000  C
  C82      1.0000 0.68887  0.90750  0.90480  Biso   1.000  C
  C83      1.0000 0.81113  0.40750  0.59520  Biso   1.000  C
  C84      1.0000 0.31113  0.90750  0.59520  Biso   1.000  C
  C85      1.0000 0.81113  0.59250  0.09520  Biso   1.000  C
  C86      1.0000 0.31113  0.09250  0.09520  Biso   1.000  C
  C87      1.0000 0.18887  0.59250  0.40480  Biso   1.000  C
  C88      1.0000 0.68887  0.09250  0.40480  Biso   1.000  C
  H33      1.0000 0.18560  0.43400  0.85010  Biso   1.000  H
  H34      1.0000 0.68560  0.93400  0.85010  Biso   1.000  H
  H35      1.0000 0.81440  0.43400  0.64990  Biso   1.000  H
  H36      1.0000 0.31440  0.93400  0.64990  Biso   1.000  H
  H37      1.0000 0.81440  0.56600  0.14990  Biso   1.000  H
  H38      1.0000 0.31440  0.06600  0.14990  Biso   1.000  H
  H39      1.0000 0.18560  0.56600  0.35010  Biso   1.000  H
  H40      1.0000 0.68560  0.06600  0.35010  Biso   1.000  H
  C89      1.0000 0.16620  0.30990  0.90980  Biso   1.000  C
  C90      1.0000 0.66620  0.80990  0.90980  Biso   1.000  C
  C91      1.0000 0.83380  0.30990  0.59020  Biso   1.000  C
  C92      1.0000 0.33380  0.80990  0.59020  Biso   1.000  C
  C93      1.0000 0.83380  0.69010  0.09020  Biso   1.000  C
  C94      1.0000 0.33380  0.19010  0.09020  Biso   1.000  C
  C95      1.0000 0.16620  0.69010  0.40980  Biso   1.000  C
  C96      1.0000 0.66620  0.19010  0.40980  Biso   1.000  C
  H41      1.0000 0.14800  0.27090  0.85850  Biso   1.000  H
  H42      1.0000 0.64800  0.77090  0.85850  Biso   1.000  H
  H43      1.0000 0.85200  0.27090  0.64150  Biso   1.000  H
  H44      1.0000 0.35200  0.77090  0.64150  Biso   1.000  H
  H45      1.0000 0.85200  0.72910  0.14150  Biso   1.000  H
  H46      1.0000 0.35200  0.22910  0.14150  Biso   1.000  H
  H47      1.0000 0.14800  0.72910  0.35850  Biso   1.000  H
  H48      1.0000 0.64800  0.22910  0.35850  Biso   1.000  H
  C97      1.0000 0.17056  0.27040  0.99080  Biso   1.000  C
  C98      1.0000 0.67056  0.77040  0.99080  Biso   1.000  C
  C99      1.0000 0.82944  0.27040  0.50920  Biso   1.000  C
  C100     1.0000 0.32944  0.77040  0.50920  Biso   1.000  C
  C101     1.0000 0.82944  0.72960  0.00920  Biso   1.000  C
  C102     1.0000 0.32944  0.22960  0.00920  Biso   1.000  C
  C103     1.0000 0.17056  0.72960  0.49080  Biso   1.000  C
  C104     1.0000 0.67056  0.22960  0.49080  Biso   1.000  C
  H49      1.0000 0.15490  0.20510  0.99380  Biso   1.000  H
  H50      1.0000 0.65490  0.70510  0.99380  Biso   1.000  H
  H51      1.0000 0.84510  0.20510  0.50620  Biso   1.000  H
  H52      1.0000 0.34510  0.70510  0.50620  Biso   1.000  H
  H53      1.0000 0.84510  0.79490  0.00620  Biso   1.000  H
  H54      1.0000 0.34510  0.29490  0.00620  Biso   1.000  H
  H55      1.0000 0.15490  0.79490  0.49380  Biso   1.000  H
  H56      1.0000 0.65490  0.29490  0.49380  Biso   1.000  H
  C105     1.0000 0.19830  0.32780  0.06810  Biso   1.000  C
  C106     1.0000 0.69830  0.82780  0.06810  Biso   1.000  C
  C107     1.0000 0.80170  0.32780  0.43190  Biso   1.000  C
  C108     1.0000 0.30170  0.82780  0.43190  Biso   1.000  C
  C109     1.0000 0.80170  0.67220  0.93190  Biso   1.000  C
  C110     1.0000 0.30170  0.17220  0.93190  Biso   1.000  C
  C111     1.0000 0.19830  0.67220  0.56810  Biso   1.000  C
  C112     1.0000 0.69830  0.17220  0.56810  Biso   1.000  C
  C113     1.0000 0.22129  0.42540  0.06240  Biso   1.000  C
  C114     1.0000 0.72129  0.92540  0.06240  Biso   1.000  C
  C115     1.0000 0.77871  0.42540  0.43760  Biso   1.000  C
  C116     1.0000 0.27871  0.92540  0.43760  Biso   1.000  C
  C117     1.0000 0.77871  0.57460  0.93760  Biso   1.000  C
  C118     1.0000 0.27871  0.07460  0.93760  Biso   1.000  C
  C119     1.0000 0.22129  0.57460  0.56240  Biso   1.000  C
  C120     1.0000 0.72129  0.07460  0.56240  Biso   1.000  C
  H57      1.0000 0.24010  0.46390  0.11380  Biso   1.000  H
  H58      1.0000 0.74010  0.96390  0.11380  Biso   1.000  H
  H59      1.0000 0.75990  0.46390  0.38620  Biso   1.000  H
  H60      1.0000 0.25990  0.96390  0.38620  Biso   1.000  H
  H61      1.0000 0.75990  0.53610  0.88620  Biso   1.000  H
  H62      1.0000 0.25990  0.03610  0.88620  Biso   1.000  H
  H63      1.0000 0.24010  0.53610  0.61380  Biso   1.000  H
  H64      1.0000 0.74010  0.03610  0.61380  Biso   1.000  H
  C121     1.0000 0.20253  0.28690  0.15640  Biso   1.000  C
  C122     1.0000 0.70253  0.78690  0.15640  Biso   1.000  C
  C123     1.0000 0.79747  0.28690  0.34360  Biso   1.000  C
  C124     1.0000 0.29747  0.78690  0.34360  Biso   1.000  C
  C125     1.0000 0.79747  0.71310  0.84360  Biso   1.000  C
  C126     1.0000 0.29747  0.21310  0.84360  Biso   1.000  C
  C127     1.0000 0.20253  0.71310  0.65640  Biso   1.000  C
  C128     1.0000 0.70253  0.21310  0.65640  Biso   1.000  C
  C129     1.0000 0.58500  0.43900  0.71020  Biso   1.000  C
  C130     1.0000 0.08500  0.93900  0.71020  Biso   1.000  C
  C131     1.0000 0.41500  0.43900  0.78980  Biso   1.000  C
  C132     1.0000 0.91500  0.93900  0.78980  Biso   1.000  C
  C133     1.0000 0.41500  0.56100  0.28980  Biso   1.000  C
  C134     1.0000 0.91500  0.06100  0.28980  Biso   1.000  C
  C135     1.0000 0.58500  0.56100  0.21020  Biso   1.000  C
  C136     1.0000 0.08500  0.06100  0.21020  Biso   1.000  C
  C137     1.0000 0.60370  0.51920  0.65610  Biso   1.000  C
  C138     1.0000 0.10370  0.01920  0.65610  Biso   1.000  C
  C139     1.0000 0.39630  0.51920  0.84390  Biso   1.000  C
  C140     1.0000 0.89630  0.01920  0.84390  Biso   1.000  C
  C141     1.0000 0.39630  0.48080  0.34390  Biso   1.000  C
  C142     1.0000 0.89630  0.98080  0.34390  Biso   1.000  C
  C143     1.0000 0.60370  0.48080  0.15610  Biso   1.000  C
  C144     1.0000 0.10370  0.98080  0.15610  Biso   1.000  C
  C145     1.0000 0.58780  0.61770  0.68750  Biso   1.000  C
  C146     1.0000 0.08780  0.11770  0.68750  Biso   1.000  C
  C147     1.0000 0.41220  0.61770  0.81250  Biso   1.000  C
  C148     1.0000 0.91220  0.11770  0.81250  Biso   1.000  C
  C149     1.0000 0.41220  0.38230  0.31250  Biso   1.000  C
  C150     1.0000 0.91220  0.88230  0.31250  Biso   1.000  C
  C151     1.0000 0.58780  0.38230  0.18750  Biso   1.000  C
  C152     1.0000 0.08780  0.88230  0.18750  Biso   1.000  C
  H65      1.0000 0.61300  0.62490  0.74990  Biso   1.000  H
  H66      1.0000 0.11300  0.12490  0.74990  Biso   1.000  H
  H67      1.0000 0.38700  0.62490  0.75010  Biso   1.000  H
  H68      1.0000 0.88700  0.12490  0.75010  Biso   1.000  H
  H69      1.0000 0.38700  0.37510  0.25010  Biso   1.000  H
  H70      1.0000 0.88700  0.87510  0.25010  Biso   1.000  H
  H71      1.0000 0.61300  0.37510  0.24990  Biso   1.000  H
  H72      1.0000 0.11300  0.87510  0.24990  Biso   1.000  H
  H73      1.0000 0.54150  0.62000  0.67740  Biso   1.000  H
  H74      1.0000 0.04150  0.12000  0.67740  Biso   1.000  H
  H75      1.0000 0.45850  0.62000  0.82260  Biso   1.000  H
  H76      1.0000 0.95850  0.12000  0.82260  Biso   1.000  H
  H77      1.0000 0.45850  0.38000  0.32260  Biso   1.000  H
  H78      1.0000 0.95850  0.88000  0.32260  Biso   1.000  H
  H79      1.0000 0.54150  0.38000  0.17740  Biso   1.000  H
  H80      1.0000 0.04150  0.88000  0.17740  Biso   1.000  H
  H81      1.0000 0.59850  0.67230  0.65570  Biso   1.000  H
  H82      1.0000 0.09850  0.17230  0.65570  Biso   1.000  H
  H83      1.0000 0.40150  0.67230  0.84430  Biso   1.000  H
  H84      1.0000 0.90150  0.17230  0.84430  Biso   1.000  H
  H85      1.0000 0.40150  0.32770  0.34430  Biso   1.000  H
  H86      1.0000 0.90150  0.82770  0.34430  Biso   1.000  H
  H87      1.0000 0.59850  0.32770  0.15570  Biso   1.000  H
  H88      1.0000 0.09850  0.82770  0.15570  Biso   1.000  H
  C153     1.0000 0.57220  0.51000  0.55790  Biso   1.000  C
  C154     1.0000 0.07220  0.01000  0.55790  Biso   1.000  C
  C155     1.0000 0.42780  0.51000  0.94210  Biso   1.000  C
  C156     1.0000 0.92780  0.01000  0.94210  Biso   1.000  C
  C157     1.0000 0.42780  0.49000  0.44210  Biso   1.000  C
  C158     1.0000 0.92780  0.99000  0.44210  Biso   1.000  C
  C159     1.0000 0.57220  0.49000  0.05790  Biso   1.000  C
  C160     1.0000 0.07220  0.99000  0.05790  Biso   1.000  C
  H89      1.0000 0.52740  0.53360  0.53860  Biso   1.000  H
  H90      1.0000 0.02740  0.03360  0.53860  Biso   1.000  H
  H91      1.0000 0.47260  0.53360  0.96140  Biso   1.000  H
  H92      1.0000 0.97260  0.03360  0.96140  Biso   1.000  H
  H93      1.0000 0.47260  0.46640  0.46140  Biso   1.000  H
  H94      1.0000 0.97260  0.96640  0.46140  Biso   1.000  H
  H95      1.0000 0.52740  0.46640  0.03860  Biso   1.000  H
  H96      1.0000 0.02740  0.96640  0.03860  Biso   1.000  H
  H97      1.0000 0.57270  0.43990  0.54100  Biso   1.000  H
  H98      1.0000 0.07270  0.93990  0.54100  Biso   1.000  H
  H99      1.0000 0.42730  0.43990  0.95900  Biso   1.000  H
  H100     1.0000 0.92730  0.93990  0.95900  Biso   1.000  H
  H101     1.0000 0.42730  0.56010  0.45900  Biso   1.000  H
  H102     1.0000 0.92730  0.06010  0.45900  Biso   1.000  H
  H103     1.0000 0.57270  0.56010  0.04100  Biso   1.000  H
  H104     1.0000 0.07270  0.06010  0.04100  Biso   1.000  H
  H105     1.0000 0.59630  0.55040  0.53070  Biso   1.000  H
  H106     1.0000 0.09630  0.05040  0.53070  Biso   1.000  H
  H107     1.0000 0.40370  0.55040  0.96930  Biso   1.000  H
  H108     1.0000 0.90370  0.05040  0.96930  Biso   1.000  H
  H109     1.0000 0.40370  0.44960  0.46930  Biso   1.000  H
  H110     1.0000 0.90370  0.94960  0.46930  Biso   1.000  H
  H111     1.0000 0.59630  0.44960  0.03070  Biso   1.000  H
  H112     1.0000 0.09630  0.94960  0.03070  Biso   1.000  H
  Cu1      1.0000 0.50000  0.31292  0.75000  Biso   1.000  Cu
  Cu2      1.0000 0.00000  0.81292  0.75000  Biso   1.000  Cu
  Cu3      1.0000 0.50000  0.68708  0.25000  Biso   1.000  Cu
  Cu4      1.0000 0.00000  0.18708  0.25000  Biso   1.000  Cu
  Gd1      1.0000 0.20273  0.76524  0.83104  Biso   1.000  Gd
  Gd2      1.0000 0.70273  0.26524  0.83104  Biso   1.000  Gd
  Gd3      1.0000 0.79727  0.76524  0.66896  Biso   1.000  Gd
  Gd4      1.0000 0.29727  0.26524  0.66896  Biso   1.000  Gd
  Gd5      1.0000 0.79727  0.23476  0.16896  Biso   1.000  Gd
  Gd6      1.0000 0.29727  0.73476  0.16896  Biso   1.000  Gd
  Gd7      1.0000 0.20273  0.23476  0.33104  Biso   1.000  Gd
  Gd8      1.0000 0.70273  0.73476  0.33104  Biso   1.000  Gd
  H113     1.0000 0.14780  0.74900  0.97840  Biso   1.000  H
  H114     1.0000 0.64780  0.24900  0.97840  Biso   1.000  H
  H115     1.0000 0.85220  0.74900  0.52160  Biso   1.000  H
  H116     1.0000 0.35220  0.24900  0.52160  Biso   1.000  H
  H117     1.0000 0.85220  0.25100  0.02160  Biso   1.000  H
  H118     1.0000 0.35220  0.75100  0.02160  Biso   1.000  H
  H119     1.0000 0.14780  0.25100  0.47840  Biso   1.000  H
  H120     1.0000 0.64780  0.75100  0.47840  Biso   1.000  H
  H121     1.0000 0.09650  0.71300  0.89800  Biso   1.000  H
  H122     1.0000 0.59650  0.21300  0.89800  Biso   1.000  H
  H123     1.0000 0.90350  0.71300  0.60200  Biso   1.000  H
  H124     1.0000 0.40350  0.21300  0.60200  Biso   1.000  H
  H125     1.0000 0.90350  0.28700  0.10200  Biso   1.000  H
  H126     1.0000 0.40350  0.78700  0.10200  Biso   1.000  H
  H127     1.0000 0.09650  0.28700  0.39800  Biso   1.000  H
  H128     1.0000 0.59650  0.78700  0.39800  Biso   1.000  H
  N1       1.0000 0.67509  0.51170  0.67140  Biso   1.000  N
  N2       1.0000 0.17509  0.01170  0.67140  Biso   1.000  N
  N3       1.0000 0.32491  0.51170  0.82860  Biso   1.000  N
  N4       1.0000 0.82491  0.01170  0.82860  Biso   1.000  N
  N5       1.0000 0.32491  0.48830  0.32860  Biso   1.000  N
  N6       1.0000 0.82491  0.98830  0.32860  Biso   1.000  N
  N7       1.0000 0.67509  0.48830  0.17140  Biso   1.000  N
  N8       1.0000 0.17509  0.98830  0.17140  Biso   1.000  N
  H129     1.0000 0.68270  0.54120  0.62660  Biso   1.000  H
  H130     1.0000 0.18270  0.04120  0.62660  Biso   1.000  H
  H131     1.0000 0.31730  0.54120  0.87340  Biso   1.000  H
  H132     1.0000 0.81730  0.04120  0.87340  Biso   1.000  H
  H133     1.0000 0.31730  0.45880  0.37340  Biso   1.000  H
  H134     1.0000 0.81730  0.95880  0.37340  Biso   1.000  H
  H135     1.0000 0.68270  0.45880  0.12660  Biso   1.000  H
  H136     1.0000 0.18270  0.95880  0.12660  Biso   1.000  H
  H137     1.0000 0.68690  0.44640  0.67490  Biso   1.000  H
  H138     1.0000 0.18690  0.94640  0.67490  Biso   1.000  H
  H139     1.0000 0.31310  0.44640  0.82510  Biso   1.000  H
  H140     1.0000 0.81310  0.94640  0.82510  Biso   1.000  H
  H141     1.0000 0.31310  0.55360  0.32510  Biso   1.000  H
  H142     1.0000 0.81310  0.05360  0.32510  Biso   1.000  H
  H143     1.0000 0.68690  0.55360  0.17490  Biso   1.000  H
  H144     1.0000 0.18690  0.05360  0.17490  Biso   1.000  H
  H145     1.0000 0.69860  0.54310  0.72200  Biso   1.000  H
  H146     1.0000 0.19860  0.04310  0.72200  Biso   1.000  H
  H147     1.0000 0.30140  0.54310  0.77800  Biso   1.000  H
  H148     1.0000 0.80140  0.04310  0.77800  Biso   1.000  H
  H149     1.0000 0.30140  0.45690  0.27800  Biso   1.000  H
  H150     1.0000 0.80140  0.95690  0.27800  Biso   1.000  H
  H151     1.0000 0.69860  0.45690  0.22200  Biso   1.000  H
  H152     1.0000 0.19860  0.95690  0.22200  Biso   1.000  H
  O1       1.0000 0.27748  0.88416  0.79904  Biso   1.000  O
  O2       1.0000 0.77748  0.38416  0.79904  Biso   1.000  O
  O3       1.0000 0.72252  0.88416  0.70096  Biso   1.000  O
  O4       1.0000 0.22252  0.38416  0.70096  Biso   1.000  O
  O5       1.0000 0.72252  0.11584  0.20096  Biso   1.000  O
  O6       1.0000 0.22252  0.61584  0.20096  Biso   1.000  O
  O7       1.0000 0.27748  0.11584  0.29904  Biso   1.000  O
  O8       1.0000 0.77748  0.61584  0.29904  Biso   1.000  O
  O9       1.0000 0.32836  0.76327  0.89325  Biso   1.000  O
  O10      1.0000 0.82836  0.26327  0.89325  Biso   1.000  O
  O11      1.0000 0.67164  0.76327  0.60675  Biso   1.000  O
  O12      1.0000 0.17164  0.26327  0.60675  Biso   1.000  O
  O13      1.0000 0.67164  0.23673  0.10675  Biso   1.000  O
  O14      1.0000 0.17164  0.73673  0.10675  Biso   1.000  O
  O15      1.0000 0.32836  0.23673  0.39325  Biso   1.000  O
  O16      1.0000 0.82836  0.73673  0.39325  Biso   1.000  O
  O17      1.0000 0.39546  0.17631  0.74687  Biso   1.000  O
  O18      1.0000 0.89546  0.67631  0.74687  Biso   1.000  O
  O19      1.0000 0.60454  0.17631  0.75313  Biso   1.000  O
  O20      1.0000 0.10454  0.67631  0.75313  Biso   1.000  O
  O21      1.0000 0.60454  0.82369  0.25313  Biso   1.000  O
  O22      1.0000 0.10454  0.32369  0.25313  Biso   1.000  O
  O23      1.0000 0.39546  0.82369  0.24687  Biso   1.000  O
  O24      1.0000 0.89546  0.32369  0.24687  Biso   1.000  O
  O25      1.0000 0.49972  0.20453  0.83261  Biso   1.000  O
  O26      1.0000 0.99972  0.70453  0.83261  Biso   1.000  O
  O27      1.0000 0.50028  0.20453  0.66739  Biso   1.000  O
  O28      1.0000 0.00028  0.70453  0.66739  Biso   1.000  O
  O29      1.0000 0.50028  0.79547  0.16739  Biso   1.000  O
  O30      1.0000 0.00028  0.29547  0.16739  Biso   1.000  O
  O31      1.0000 0.49972  0.79547  0.33261  Biso   1.000  O
  O32      1.0000 0.99972  0.29547  0.33261  Biso   1.000  O
  O33      1.0000 0.23558  0.60595  0.90108  Biso   1.000  O
  O34      1.0000 0.73558  0.10595  0.90108  Biso   1.000  O
  O35      1.0000 0.76442  0.60595  0.59892  Biso   1.000  O
  O36      1.0000 0.26442  0.10595  0.59892  Biso   1.000  O
  O37      1.0000 0.76442  0.39405  0.09892  Biso   1.000  O
  O38      1.0000 0.26442  0.89405  0.09892  Biso   1.000  O
  O39      1.0000 0.23558  0.39405  0.40108  Biso   1.000  O
  O40      1.0000 0.73558  0.89405  0.40108  Biso   1.000  O
  O41      1.0000 0.25952  0.62508  0.04580  Biso   1.000  O
  O42      1.0000 0.75952  0.12508  0.04580  Biso   1.000  O
  O43      1.0000 0.74048  0.62508  0.45420  Biso   1.000  O
  O44      1.0000 0.24048  0.12508  0.45420  Biso   1.000  O
  O45      1.0000 0.74048  0.37492  0.95420  Biso   1.000  O
  O46      1.0000 0.24048  0.87492  0.95420  Biso   1.000  O
  O47      1.0000 0.25952  0.37492  0.54580  Biso   1.000  O
  O48      1.0000 0.75952  0.87492  0.54580  Biso   1.000  O
  O49      1.0000 0.23596  0.33498  0.22606  Biso   1.000  O
  O50      1.0000 0.73596  0.83498  0.22606  Biso   1.000  O
  O51      1.0000 0.76404  0.33498  0.27394  Biso   1.000  O
  O52      1.0000 0.26404  0.83498  0.27394  Biso   1.000  O
  O53      1.0000 0.76404  0.66502  0.77394  Biso   1.000  O
  O54      1.0000 0.26404  0.16502  0.77394  Biso   1.000  O
  O55      1.0000 0.23596  0.66502  0.72606  Biso   1.000  O
  O56      1.0000 0.73596  0.16502  0.72606  Biso   1.000  O
  O57      1.0000 0.17079  0.20707  0.15943  Biso   1.000  O
  O58      1.0000 0.67079  0.70707  0.15943  Biso   1.000  O
  O59      1.0000 0.82921  0.20707  0.34057  Biso   1.000  O
  O60      1.0000 0.32921  0.70707  0.34057  Biso   1.000  O
  O61      1.0000 0.82921  0.79293  0.84057  Biso   1.000  O
  O62      1.0000 0.32921  0.29293  0.84057  Biso   1.000  O
  O63      1.0000 0.17079  0.79293  0.65943  Biso   1.000  O
  O64      1.0000 0.67079  0.29293  0.65943  Biso   1.000  O
  O65      1.0000 0.62762  0.40657  0.77952  Biso   1.000  O
  O66      1.0000 0.12762  0.90657  0.77952  Biso   1.000  O
  O67      1.0000 0.37238  0.40657  0.72048  Biso   1.000  O
  O68      1.0000 0.87238  0.90657  0.72048  Biso   1.000  O
  O69      1.0000 0.37238  0.59343  0.22048  Biso   1.000  O
  O70      1.0000 0.87238  0.09343  0.22048  Biso   1.000  O
  O71      1.0000 0.62762  0.59343  0.27952  Biso   1.000  O
  O72      1.0000 0.12762  0.09343  0.27952  Biso   1.000  O
  O73      1.0000 0.52430  0.41620  0.68110  Biso   1.000  O
  O74      1.0000 0.02430  0.91620  0.68110  Biso   1.000  O
  O75      1.0000 0.47570  0.41620  0.81890  Biso   1.000  O
  O76      1.0000 0.97570  0.91620  0.81890  Biso   1.000  O
  O77      1.0000 0.47570  0.58380  0.31890  Biso   1.000  O
  O78      1.0000 0.97570  0.08380  0.31890  Biso   1.000  O
  O79      1.0000 0.52430  0.58380  0.18110  Biso   1.000  O
  O80      1.0000 0.02430  0.08380  0.18110  Biso   1.000  O
  O81      1.0000 0.13288  0.74520  0.92193  Biso   1.000  O
  O82      1.0000 0.63288  0.24520  0.92193  Biso   1.000  O
  O83      1.0000 0.86712  0.74520  0.57807  Biso   1.000  O
  O84      1.0000 0.36712  0.24520  0.57807  Biso   1.000  O
  O85      1.0000 0.86712  0.25480  0.07807  Biso   1.000  O
  O86      1.0000 0.36712  0.75480  0.07807  Biso   1.000  O
  O87      1.0000 0.13288  0.25480  0.42193  Biso   1.000  O
  O88      1.0000 0.63288  0.75480  0.42193  Biso   1.000  O
