data_image0
_cell_length_a       10.964
_cell_length_b       12.672
_cell_length_c       12.837
_cell_angle_alpha    90
_cell_angle_beta     91.011
_cell_angle_gamma    90

_symmetry_space_group_name_H-M    "P 1"
_symmetry_int_tables_number       1

loop_
  _symmetry_equiv_pos_as_xyz
  'x, y, z'

loop_
  _atom_site_label
  _atom_site_occupancy
  _atom_site_fract_x
  _atom_site_fract_y
  _atom_site_fract_z
  _atom_site_thermal_displace_type
  _atom_site_B_iso_or_equiv
  _atom_site_type_symbol
  Cu1      1.0000 0.25000  0.25000  0.50000  Biso   1.000  Cu
  Cu2      1.0000 0.75000  0.75000  0.50000  Biso   1.000  Cu
  Cu3      1.0000 0.75000  0.25000  0.00000  Biso   1.000  Cu
  Cu4      1.0000 0.25000  0.75000  0.00000  Biso   1.000  Cu
  O1       1.0000 0.00000  0.55550  0.25000  Biso   1.000  O
  O2       1.0000 0.50000  0.05550  0.25000  Biso   1.000  O
  O3       1.0000 0.00000  0.44450  0.75000  Biso   1.000  O
  O4       1.0000 0.50000  0.94450  0.75000  Biso   1.000  O
  H1       1.0000 0.04800  0.59500  0.21300  Biso   1.000  H
  H2       1.0000 0.54800  0.09500  0.21300  Biso   1.000  H
  H3       1.0000 0.95200  0.59500  0.28700  Biso   1.000  H
  H4       1.0000 0.45200  0.09500  0.28700  Biso   1.000  H
  H5       1.0000 0.95200  0.40500  0.78700  Biso   1.000  H
  H6       1.0000 0.45200  0.90500  0.78700  Biso   1.000  H
  H7       1.0000 0.04800  0.40500  0.71300  Biso   1.000  H
  H8       1.0000 0.54800  0.90500  0.71300  Biso   1.000  H
  N1       1.0000 0.26921  0.29849  0.35147  Biso   1.000  N
  N2       1.0000 0.76921  0.79849  0.35147  Biso   1.000  N
  N3       1.0000 0.73079  0.29849  0.14853  Biso   1.000  N
  N4       1.0000 0.23079  0.79849  0.14853  Biso   1.000  N
  N5       1.0000 0.73079  0.70151  0.64853  Biso   1.000  N
  N6       1.0000 0.23079  0.20151  0.64853  Biso   1.000  N
  N7       1.0000 0.26921  0.70151  0.85147  Biso   1.000  N
  N8       1.0000 0.76921  0.20151  0.85147  Biso   1.000  N
  N9       1.0000 0.35728  0.25410  0.28779  Biso   1.000  N
  N10      1.0000 0.85728  0.75410  0.28779  Biso   1.000  N
  N11      1.0000 0.64272  0.25410  0.21221  Biso   1.000  N
  N12      1.0000 0.14272  0.75410  0.21221  Biso   1.000  N
  N13      1.0000 0.64272  0.74590  0.71221  Biso   1.000  N
  N14      1.0000 0.14272  0.24590  0.71221  Biso   1.000  N
  N15      1.0000 0.35728  0.74590  0.78779  Biso   1.000  N
  N16      1.0000 0.85728  0.24590  0.78779  Biso   1.000  N
  N17      1.0000 0.26444  0.38152  0.20568  Biso   1.000  N
  N18      1.0000 0.76444  0.88152  0.20568  Biso   1.000  N
  N19      1.0000 0.73556  0.38152  0.29432  Biso   1.000  N
  N20      1.0000 0.23556  0.88152  0.29432  Biso   1.000  N
  N21      1.0000 0.73556  0.61848  0.79432  Biso   1.000  N
  N22      1.0000 0.23556  0.11848  0.79432  Biso   1.000  N
  N23      1.0000 0.26444  0.61848  0.70568  Biso   1.000  N
  N24      1.0000 0.76444  0.11848  0.70568  Biso   1.000  N
  N25      1.0000 0.23295  0.45538  0.13126  Biso   1.000  N
  N26      1.0000 0.73295  0.95538  0.13126  Biso   1.000  N
  N27      1.0000 0.76705  0.45538  0.36874  Biso   1.000  N
  N28      1.0000 0.26705  0.95538  0.36874  Biso   1.000  N
  N29      1.0000 0.76705  0.54462  0.86874  Biso   1.000  N
  N30      1.0000 0.26705  0.04462  0.86874  Biso   1.000  N
  N31      1.0000 0.23295  0.54462  0.63126  Biso   1.000  N
  N32      1.0000 0.73295  0.04462  0.63126  Biso   1.000  N
  N33      1.0000 0.13317  0.53880  0.00915  Biso   1.000  N
  N34      1.0000 0.63317  0.03880  0.00915  Biso   1.000  N
  N35      1.0000 0.86683  0.53880  0.49085  Biso   1.000  N
  N36      1.0000 0.36683  0.03880  0.49085  Biso   1.000  N
  N37      1.0000 0.86683  0.46120  0.99085  Biso   1.000  N
  N38      1.0000 0.36683  0.96120  0.99085  Biso   1.000  N
  N39      1.0000 0.13317  0.46120  0.50915  Biso   1.000  N
  N40      1.0000 0.63317  0.96120  0.50915  Biso   1.000  N
  N41      1.0000 0.22760  0.60155  0.04735  Biso   1.000  N
  N42      1.0000 0.72760  0.10155  0.04735  Biso   1.000  N
  N43      1.0000 0.77240  0.60155  0.45265  Biso   1.000  N
  N44      1.0000 0.27240  0.10155  0.45265  Biso   1.000  N
  N45      1.0000 0.77240  0.39845  0.95265  Biso   1.000  N
  N46      1.0000 0.27240  0.89845  0.95265  Biso   1.000  N
  N47      1.0000 0.22760  0.39845  0.54735  Biso   1.000  N
  N48      1.0000 0.72760  0.89845  0.54735  Biso   1.000  N
  C1       1.0000 0.21450  0.37430  0.30170  Biso   1.000  C
  C2       1.0000 0.71450  0.87430  0.30170  Biso   1.000  C
  C3       1.0000 0.78550  0.37430  0.19830  Biso   1.000  C
  C4       1.0000 0.28550  0.87430  0.19830  Biso   1.000  C
  C5       1.0000 0.78550  0.62570  0.69830  Biso   1.000  C
  C6       1.0000 0.28550  0.12570  0.69830  Biso   1.000  C
  C7       1.0000 0.21450  0.62570  0.80170  Biso   1.000  C
  C8       1.0000 0.71450  0.12570  0.80170  Biso   1.000  C
  H9       1.0000 0.15090  0.41720  0.32760  Biso   1.000  H
  H10      1.0000 0.65090  0.91720  0.32760  Biso   1.000  H
  H11      1.0000 0.84910  0.41720  0.17240  Biso   1.000  H
  H12      1.0000 0.34910  0.91720  0.17240  Biso   1.000  H
  H13      1.0000 0.84910  0.58280  0.67240  Biso   1.000  H
  H14      1.0000 0.34910  0.08280  0.67240  Biso   1.000  H
  H15      1.0000 0.15090  0.58280  0.82760  Biso   1.000  H
  H16      1.0000 0.65090  0.08280  0.82760  Biso   1.000  H
  C9       1.0000 0.35180  0.30586  0.20053  Biso   1.000  C
  C10      1.0000 0.85180  0.80586  0.20053  Biso   1.000  C
  C11      1.0000 0.64820  0.30586  0.29947  Biso   1.000  C
  C12      1.0000 0.14820  0.80586  0.29947  Biso   1.000  C
  C13      1.0000 0.64820  0.69414  0.79947  Biso   1.000  C
  C14      1.0000 0.14820  0.19414  0.79947  Biso   1.000  C
  C15      1.0000 0.35180  0.69414  0.70053  Biso   1.000  C
  C16      1.0000 0.85180  0.19414  0.70053  Biso   1.000  C
  H17      1.0000 0.40140  0.29280  0.14200  Biso   1.000  H
  H18      1.0000 0.90140  0.79280  0.14200  Biso   1.000  H
  H19      1.0000 0.59860  0.29280  0.35800  Biso   1.000  H
  H20      1.0000 0.09860  0.79280  0.35800  Biso   1.000  H
  H21      1.0000 0.59860  0.70720  0.85800  Biso   1.000  H
  H22      1.0000 0.09860  0.20720  0.85800  Biso   1.000  H
  H23      1.0000 0.40140  0.70720  0.64200  Biso   1.000  H
  H24      1.0000 0.90140  0.20720  0.64200  Biso   1.000  H
  C17      1.0000 0.13930  0.45070  0.06073  Biso   1.000  C
  C18      1.0000 0.63930  0.95070  0.06073  Biso   1.000  C
  C19      1.0000 0.86070  0.45070  0.43927  Biso   1.000  C
  C20      1.0000 0.36070  0.95070  0.43927  Biso   1.000  C
  C21      1.0000 0.86070  0.54930  0.93927  Biso   1.000  C
  C22      1.0000 0.36070  0.04930  0.93927  Biso   1.000  C
  C23      1.0000 0.13930  0.54930  0.56073  Biso   1.000  C
  C24      1.0000 0.63930  0.04930  0.56073  Biso   1.000  C
  H25      1.0000 0.08640  0.39210  0.05070  Biso   1.000  H
  H26      1.0000 0.58640  0.89210  0.05070  Biso   1.000  H
  H27      1.0000 0.91360  0.39210  0.44930  Biso   1.000  H
  H28      1.0000 0.41360  0.89210  0.44930  Biso   1.000  H
  H29      1.0000 0.91360  0.60790  0.94930  Biso   1.000  H
  H30      1.0000 0.41360  0.10790  0.94930  Biso   1.000  H
  H31      1.0000 0.08640  0.60790  0.55070  Biso   1.000  H
  H32      1.0000 0.58640  0.10790  0.55070  Biso   1.000  H
  C25      1.0000 0.28670  0.55120  0.12043  Biso   1.000  C
  C26      1.0000 0.78670  0.05120  0.12043  Biso   1.000  C
  C27      1.0000 0.71330  0.55120  0.37957  Biso   1.000  C
  C28      1.0000 0.21330  0.05120  0.37957  Biso   1.000  C
  C29      1.0000 0.71330  0.44880  0.87957  Biso   1.000  C
  C30      1.0000 0.21330  0.94880  0.87957  Biso   1.000  C
  C31      1.0000 0.28670  0.44880  0.62043  Biso   1.000  C
  C32      1.0000 0.78670  0.94880  0.62043  Biso   1.000  C
  H33      1.0000 0.35510  0.57680  0.15930  Biso   1.000  H
  H34      1.0000 0.85510  0.07680  0.15930  Biso   1.000  H
  H35      1.0000 0.64490  0.57680  0.34070  Biso   1.000  H
  H36      1.0000 0.14490  0.07680  0.34070  Biso   1.000  H
  H37      1.0000 0.64490  0.42320  0.84070  Biso   1.000  H
  H38      1.0000 0.14490  0.92320  0.84070  Biso   1.000  H
  H39      1.0000 0.35510  0.42320  0.65930  Biso   1.000  H
  H40      1.0000 0.85510  0.92320  0.65930  Biso   1.000  H
  S1       1.0000 0.85303  0.10821  0.38436  Biso   1.000  S
  S2       1.0000 0.35303  0.60821  0.38436  Biso   1.000  S
  S3       1.0000 0.14697  0.10821  0.11564  Biso   1.000  S
  S4       1.0000 0.64697  0.60821  0.11564  Biso   1.000  S
  S5       1.0000 0.14697  0.89179  0.61564  Biso   1.000  S
  S6       1.0000 0.64697  0.39179  0.61564  Biso   1.000  S
  S7       1.0000 0.85303  0.89179  0.88436  Biso   1.000  S
  S8       1.0000 0.35303  0.39179  0.88436  Biso   1.000  S
  C33      1.0000 0.96340  0.18120  0.43360  Biso   1.000  C
  C34      1.0000 0.46340  0.68120  0.43360  Biso   1.000  C
  C35      1.0000 0.03660  0.18120  0.06640  Biso   1.000  C
  C36      1.0000 0.53660  0.68120  0.06640  Biso   1.000  C
  C37      1.0000 0.03660  0.81880  0.56640  Biso   1.000  C
  C38      1.0000 0.53660  0.31880  0.56640  Biso   1.000  C
  C39      1.0000 0.96340  0.81880  0.93360  Biso   1.000  C
  C40      1.0000 0.46340  0.31880  0.93360  Biso   1.000  C
  N49      1.0000 0.03670  0.23280  0.47040  Biso   1.000  N
  N50      1.0000 0.53670  0.73280  0.47040  Biso   1.000  N
  N51      1.0000 0.96330  0.23280  0.02960  Biso   1.000  N
  N52      1.0000 0.46330  0.73280  0.02960  Biso   1.000  N
  N53      1.0000 0.96330  0.76720  0.52960  Biso   1.000  N
  N54      1.0000 0.46330  0.26720  0.52960  Biso   1.000  N
  N55      1.0000 0.03670  0.76720  0.97040  Biso   1.000  N
  N56      1.0000 0.53670  0.26720  0.97040  Biso   1.000  N
  B1       1.0000 0.92120  0.16710  0.40110  Biso   1.000  B
  B2       1.0000 0.42120  0.66710  0.40110  Biso   1.000  B
  B3       1.0000 0.07880  0.16710  0.09890  Biso   1.000  B
  B4       1.0000 0.57880  0.66710  0.09890  Biso   1.000  B
  B5       1.0000 0.07880  0.83290  0.59890  Biso   1.000  B
  B6       1.0000 0.57880  0.33290  0.59890  Biso   1.000  B
  B7       1.0000 0.92120  0.83290  0.90110  Biso   1.000  B
  B8       1.0000 0.42120  0.33290  0.90110  Biso   1.000  B
  F1       1.0000 0.01530  0.18680  0.46920  Biso   1.000  F
  F2       1.0000 0.51530  0.68680  0.46920  Biso   1.000  F
  F3       1.0000 0.98470  0.18680  0.03080  Biso   1.000  F
  F4       1.0000 0.48470  0.68680  0.03080  Biso   1.000  F
  F5       1.0000 0.98470  0.81320  0.53080  Biso   1.000  F
  F6       1.0000 0.48470  0.31320  0.53080  Biso   1.000  F
  F7       1.0000 0.01530  0.81320  0.96920  Biso   1.000  F
  F8       1.0000 0.51530  0.31320  0.96920  Biso   1.000  F
  F9       1.0000 0.93580  0.23720  0.31900  Biso   1.000  F
  F10      1.0000 0.43580  0.73720  0.31900  Biso   1.000  F
  F11      1.0000 0.06420  0.23720  0.18100  Biso   1.000  F
  F12      1.0000 0.56420  0.73720  0.18100  Biso   1.000  F
  F13      1.0000 0.06420  0.76280  0.68100  Biso   1.000  F
  F14      1.0000 0.56420  0.26280  0.68100  Biso   1.000  F
  F15      1.0000 0.93580  0.76280  0.81900  Biso   1.000  F
  F16      1.0000 0.43580  0.26280  0.81900  Biso   1.000  F
  F17      1.0000 0.92450  0.06790  0.35840  Biso   1.000  F
  F18      1.0000 0.42450  0.56790  0.35840  Biso   1.000  F
  F19      1.0000 0.07550  0.06790  0.14160  Biso   1.000  F
  F20      1.0000 0.57550  0.56790  0.14160  Biso   1.000  F
  F21      1.0000 0.07550  0.93210  0.64160  Biso   1.000  F
  F22      1.0000 0.57550  0.43210  0.64160  Biso   1.000  F
  F23      1.0000 0.92450  0.93210  0.85840  Biso   1.000  F
  F24      1.0000 0.42450  0.43210  0.85840  Biso   1.000  F
  F25      1.0000 0.81120  0.19060  0.44610  Biso   1.000  F
  F26      1.0000 0.31120  0.69060  0.44610  Biso   1.000  F
  F27      1.0000 0.18880  0.19060  0.05390  Biso   1.000  F
  F28      1.0000 0.68880  0.69060  0.05390  Biso   1.000  F
  F29      1.0000 0.18880  0.80940  0.55390  Biso   1.000  F
  F30      1.0000 0.68880  0.30940  0.55390  Biso   1.000  F
  F31      1.0000 0.81120  0.80940  0.94610  Biso   1.000  F
  F32      1.0000 0.31120  0.30940  0.94610  Biso   1.000  F
