data_image0
_cell_length_a       10.6466
_cell_length_b       12.0502
_cell_length_c       12.7926
_cell_angle_alpha    90
_cell_angle_beta     92.32
_cell_angle_gamma    90

_symmetry_space_group_name_H-M    "P 1"
_symmetry_int_tables_number       1

loop_
  _symmetry_equiv_pos_as_xyz
  'x, y, z'

loop_
  _atom_site_label
  _atom_site_occupancy
  _atom_site_fract_x
  _atom_site_fract_y
  _atom_site_fract_z
  _atom_site_thermal_displace_type
  _atom_site_B_iso_or_equiv
  _atom_site_type_symbol
  Cu1      1.0000 0.12299  0.62973  0.49520  Biso   1.000  Cu
  Cu2      1.0000 0.37701  0.12973  0.00480  Biso   1.000  Cu
  Cu3      1.0000 0.87701  0.37027  0.50480  Biso   1.000  Cu
  Cu4      1.0000 0.62299  0.87027  0.99520  Biso   1.000  Cu
  N1       1.0000 0.13800  0.78060  0.42982  Biso   1.000  N
  N2       1.0000 0.36200  0.28060  0.07018  Biso   1.000  N
  N3       1.0000 0.86200  0.21940  0.57018  Biso   1.000  N
  N4       1.0000 0.63800  0.71940  0.92982  Biso   1.000  N
  N5       1.0000 0.06800  0.87310  0.45450  Biso   1.000  N
  N6       1.0000 0.43200  0.37310  0.04550  Biso   1.000  N
  N7       1.0000 0.93200  0.12690  0.54550  Biso   1.000  N
  N8       1.0000 0.56800  0.62690  0.95450  Biso   1.000  N
  N9       1.0000 0.20740  0.91920  0.34346  Biso   1.000  N
  N10      1.0000 0.29260  0.41920  0.15654  Biso   1.000  N
  N11      1.0000 0.79260  0.08080  0.65654  Biso   1.000  N
  N12      1.0000 0.70740  0.58080  0.84346  Biso   1.000  N
  N13      1.0000 0.28350  0.98010  0.28005  Biso   1.000  N
  N14      1.0000 0.21650  0.48010  0.21995  Biso   1.000  N
  N15      1.0000 0.71650  0.01990  0.71995  Biso   1.000  N
  N16      1.0000 0.78350  0.51990  0.78005  Biso   1.000  N
  N17      1.0000 0.43900  0.08090  0.22901  Biso   1.000  N
  N18      1.0000 0.06100  0.58090  0.27099  Biso   1.000  N
  N19      1.0000 0.56100  0.91910  0.77099  Biso   1.000  N
  N20      1.0000 0.93900  0.41910  0.72901  Biso   1.000  N
  N21      1.0000 0.35390  0.06140  0.14541  Biso   1.000  N
  N22      1.0000 0.14610  0.56140  0.35459  Biso   1.000  N
  N23      1.0000 0.64610  0.93860  0.85459  Biso   1.000  N
  N24      1.0000 0.85390  0.43860  0.64541  Biso   1.000  N
  N25      1.0000 0.15200  0.48119  0.56360  Biso   1.000  N
  N26      1.0000 0.34800  0.98119  0.93640  Biso   1.000  N
  N27      1.0000 0.84800  0.51881  0.43640  Biso   1.000  N
  N28      1.0000 0.65200  0.01881  0.06360  Biso   1.000  N
  N29      1.0000 0.09170  0.38198  0.53656  Biso   1.000  N
  N30      1.0000 0.40830  0.88198  0.96344  Biso   1.000  N
  N31      1.0000 0.90830  0.61802  0.46344  Biso   1.000  N
  N32      1.0000 0.59170  0.11802  0.03656  Biso   1.000  N
  N33      1.0000 0.23680  0.35180  0.65679  Biso   1.000  N
  N34      1.0000 0.26320  0.85180  0.84321  Biso   1.000  N
  N35      1.0000 0.76320  0.64820  0.34321  Biso   1.000  N
  N36      1.0000 0.73680  0.14820  0.15679  Biso   1.000  N
  N37      1.0000 0.31380  0.29610  0.72826  Biso   1.000  N
  N38      1.0000 0.18620  0.79610  0.77174  Biso   1.000  N
  N39      1.0000 0.68620  0.70390  0.27174  Biso   1.000  N
  N40      1.0000 0.81380  0.20390  0.22826  Biso   1.000  N
  N41      1.0000 0.46870  0.19990  0.79520  Biso   1.000  N
  N42      1.0000 0.03130  0.69990  0.70480  Biso   1.000  N
  N43      1.0000 0.53130  0.80010  0.20480  Biso   1.000  N
  N44      1.0000 0.96870  0.30010  0.29520  Biso   1.000  N
  N45      1.0000 0.37270  0.20290  0.86475  Biso   1.000  N
  N46      1.0000 0.12730  0.70290  0.63525  Biso   1.000  N
  N47      1.0000 0.62730  0.79710  0.13525  Biso   1.000  N
  N48      1.0000 0.87270  0.29710  0.36475  Biso   1.000  N
  C1       1.0000 0.22050  0.81000  0.36390  Biso   1.000  C
  C2       1.0000 0.27950  0.31000  0.13610  Biso   1.000  C
  C3       1.0000 0.77950  0.19000  0.63610  Biso   1.000  C
  C4       1.0000 0.72050  0.69000  0.86390  Biso   1.000  C
  H1       1.0000 0.27940  0.76330  0.33510  Biso   1.000  H
  H2       1.0000 0.22060  0.26330  0.16490  Biso   1.000  H
  H3       1.0000 0.72060  0.23670  0.66490  Biso   1.000  H
  H4       1.0000 0.77940  0.73670  0.83510  Biso   1.000  H
  C5       1.0000 0.11180  0.95530  0.40200  Biso   1.000  C
  C6       1.0000 0.38820  0.45530  0.09800  Biso   1.000  C
  C7       1.0000 0.88820  0.04470  0.59800  Biso   1.000  C
  C8       1.0000 0.61180  0.54470  0.90200  Biso   1.000  C
  H5       1.0000 0.08240  0.02790  0.40400  Biso   1.000  H
  H6       1.0000 0.41760  0.52790  0.09600  Biso   1.000  H
  H7       1.0000 0.91760  0.97210  0.59600  Biso   1.000  H
  H8       1.0000 0.58240  0.47210  0.90400  Biso   1.000  H
  C9       1.0000 0.39470  0.03070  0.30910  Biso   1.000  C
  C10      1.0000 0.10530  0.53070  0.19090  Biso   1.000  C
  C11      1.0000 0.60530  0.96930  0.69090  Biso   1.000  C
  C12      1.0000 0.89470  0.46930  0.80910  Biso   1.000  C
  H9       1.0000 0.43250  0.02920  0.37600  Biso   1.000  H
  H10      1.0000 0.06750  0.52920  0.12400  Biso   1.000  H
  H11      1.0000 0.56750  0.97080  0.62400  Biso   1.000  H
  H12      1.0000 0.93250  0.47080  0.87600  Biso   1.000  H
  C13      1.0000 0.26210  0.00160  0.17750  Biso   1.000  C
  C14      1.0000 0.23790  0.50160  0.32250  Biso   1.000  C
  C15      1.0000 0.73790  0.99840  0.82250  Biso   1.000  C
  C16      1.0000 0.76210  0.49840  0.67750  Biso   1.000  C
  H13      1.0000 0.19300  0.97760  0.13670  Biso   1.000  H
  H14      1.0000 0.30700  0.47760  0.36330  Biso   1.000  H
  H15      1.0000 0.80700  0.02240  0.86330  Biso   1.000  H
  H16      1.0000 0.69300  0.52240  0.63670  Biso   1.000  H
  C17      1.0000 0.23870  0.46100  0.63550  Biso   1.000  C
  C18      1.0000 0.26130  0.96100  0.86450  Biso   1.000  C
  C19      1.0000 0.76130  0.53900  0.36450  Biso   1.000  C
  C20      1.0000 0.73870  0.03900  0.13550  Biso   1.000  C
  H17      1.0000 0.29270  0.51300  0.66670  Biso   1.000  H
  H18      1.0000 0.20730  0.01300  0.83330  Biso   1.000  H
  H19      1.0000 0.70730  0.48700  0.33330  Biso   1.000  H
  H20      1.0000 0.79270  0.98700  0.16670  Biso   1.000  H
  C21      1.0000 0.14560  0.30520  0.59380  Biso   1.000  C
  C22      1.0000 0.35440  0.80520  0.90620  Biso   1.000  C
  C23      1.0000 0.85440  0.69480  0.40620  Biso   1.000  C
  C24      1.0000 0.64560  0.19480  0.09380  Biso   1.000  C
  H21      1.0000 0.12500  0.23020  0.59190  Biso   1.000  H
  H22      1.0000 0.37500  0.73020  0.90810  Biso   1.000  H
  H23      1.0000 0.87500  0.76980  0.40810  Biso   1.000  H
  H24      1.0000 0.62500  0.26980  0.09190  Biso   1.000  H
  C25      1.0000 0.43000  0.25570  0.71370  Biso   1.000  C
  C26      1.0000 0.07000  0.75570  0.78630  Biso   1.000  C
  C27      1.0000 0.57000  0.74430  0.28630  Biso   1.000  C
  C28      1.0000 0.93000  0.24430  0.21370  Biso   1.000  C
  H25      1.0000 0.47550  0.26630  0.65400  Biso   1.000  H
  H26      1.0000 0.02450  0.76630  0.84600  Biso   1.000  H
  H27      1.0000 0.52450  0.73370  0.34600  Biso   1.000  H
  H28      1.0000 0.97550  0.23370  0.15400  Biso   1.000  H
  C29      1.0000 0.28050  0.26020  0.82270  Biso   1.000  C
  C30      1.0000 0.21950  0.76020  0.67730  Biso   1.000  C
  C31      1.0000 0.71950  0.73980  0.17730  Biso   1.000  C
  C32      1.0000 0.78050  0.23980  0.32270  Biso   1.000  C
  H29      1.0000 0.20410  0.27420  0.85290  Biso   1.000  H
  H30      1.0000 0.29590  0.77420  0.64710  Biso   1.000  H
  H31      1.0000 0.79590  0.72580  0.14710  Biso   1.000  H
  H32      1.0000 0.70410  0.22580  0.35290  Biso   1.000  H
  N49      1.0000 0.97770  0.86770  0.05150  Biso   1.000  N
  N50      1.0000 0.52230  0.36770  0.44850  Biso   1.000  N
  N51      1.0000 0.02230  0.13230  0.94850  Biso   1.000  N
  N52      1.0000 0.47770  0.63230  0.55150  Biso   1.000  N
  O1       1.0000 0.97310  0.88370  0.14730  Biso   1.000  O
  O2       1.0000 0.52690  0.38370  0.35270  Biso   1.000  O
  O3       1.0000 0.02690  0.11630  0.85270  Biso   1.000  O
  O4       1.0000 0.47310  0.61630  0.64730  Biso   1.000  O
  O5       1.0000 0.87980  0.84670  0.99800  Biso   1.000  O
  O6       1.0000 0.62020  0.34670  0.50200  Biso   1.000  O
  O7       1.0000 0.12020  0.15330  0.00200  Biso   1.000  O
  O8       1.0000 0.37980  0.65330  0.49800  Biso   1.000  O
  O9       1.0000 0.08060  0.87370  0.00900  Biso   1.000  O
  O10      1.0000 0.41940  0.37370  0.49100  Biso   1.000  O
  O11      1.0000 0.91940  0.12630  0.99100  Biso   1.000  O
  O12      1.0000 0.58060  0.62630  0.50900  Biso   1.000  O
  N53      1.0000 0.19830  0.53600  0.91630  Biso   1.000  N
  N54      1.0000 0.30170  0.03600  0.58370  Biso   1.000  N
  N55      1.0000 0.80170  0.46400  0.08370  Biso   1.000  N
  N56      1.0000 0.69830  0.96400  0.41630  Biso   1.000  N
  O13      1.0000 0.27830  0.54380  0.84920  Biso   1.000  O
  O14      1.0000 0.22170  0.04380  0.65080  Biso   1.000  O
  O15      1.0000 0.72170  0.45620  0.15080  Biso   1.000  O
  O16      1.0000 0.77830  0.95620  0.34920  Biso   1.000  O
  O17      1.0000 0.16650  0.62080  0.96250  Biso   1.000  O
  O18      1.0000 0.33350  0.12080  0.53750  Biso   1.000  O
  O19      1.0000 0.83350  0.37920  0.03750  Biso   1.000  O
  O20      1.0000 0.66650  0.87920  0.46250  Biso   1.000  O
  O21      1.0000 0.15230  0.44560  0.94210  Biso   1.000  O
  O22      1.0000 0.34770  0.94560  0.55790  Biso   1.000  O
  O23      1.0000 0.84770  0.55440  0.05790  Biso   1.000  O
  O24      1.0000 0.65230  0.05440  0.44210  Biso   1.000  O
  O25      1.0000 0.21460  0.21590  0.34900  Biso   1.000  O
  O26      1.0000 0.28540  0.71590  0.15100  Biso   1.000  O
  O27      1.0000 0.78540  0.78410  0.65100  Biso   1.000  O
  O28      1.0000 0.71460  0.28410  0.84900  Biso   1.000  O
  H33      1.0000 0.26040  0.20300  0.40410  Biso   1.000  H
  H34      1.0000 0.23960  0.70300  0.09590  Biso   1.000  H
  H35      1.0000 0.73960  0.79700  0.59590  Biso   1.000  H
  H36      1.0000 0.76040  0.29700  0.90410  Biso   1.000  H
  H37      1.0000 0.14140  0.24170  0.36010  Biso   1.000  H
  H38      1.0000 0.35860  0.74170  0.13990  Biso   1.000  H
  H39      1.0000 0.85860  0.75830  0.63990  Biso   1.000  H
  H40      1.0000 0.64140  0.25830  0.86010  Biso   1.000  H
