data_image0
_cell_length_a       7.9693
_cell_length_b       12.977
_cell_length_c       10.267
_cell_angle_alpha    90
_cell_angle_beta     90.221
_cell_angle_gamma    90

_symmetry_space_group_name_H-M    "P 1"
_symmetry_int_tables_number       1

loop_
  _symmetry_equiv_pos_as_xyz
  'x, y, z'

loop_
  _atom_site_label
  _atom_site_occupancy
  _atom_site_fract_x
  _atom_site_fract_y
  _atom_site_fract_z
  _atom_site_thermal_displace_type
  _atom_site_B_iso_or_equiv
  _atom_site_type_symbol
  Cu1      1.0000 0.00000  0.00000  0.50000  Biso   1.000  Cu
  Cu2      1.0000 0.50000  0.50000  0.00000  Biso   1.000  Cu
  O1       1.0000 0.16910  0.03800  0.68590  Biso   1.000  O
  O2       1.0000 0.33090  0.53800  0.81410  Biso   1.000  O
  O3       1.0000 0.83090  0.96200  0.31410  Biso   1.000  O
  O4       1.0000 0.66910  0.46200  0.18590  Biso   1.000  O
  H1       1.0000 0.17100  0.00100  0.75360  Biso   1.000  H
  H2       1.0000 0.32900  0.50100  0.74640  Biso   1.000  H
  H3       1.0000 0.82900  0.99900  0.24640  Biso   1.000  H
  H4       1.0000 0.67100  0.49900  0.25360  Biso   1.000  H
  H5       1.0000 0.25460  0.07430  0.66890  Biso   1.000  H
  H6       1.0000 0.24540  0.57430  0.83110  Biso   1.000  H
  H7       1.0000 0.74540  0.92570  0.33110  Biso   1.000  H
  H8       1.0000 0.75460  0.42570  0.16890  Biso   1.000  H
  N1       1.0000 0.10640  0.86203  0.46880  Biso   1.000  N
  N2       1.0000 0.39360  0.36203  0.03120  Biso   1.000  N
  N3       1.0000 0.89360  0.13797  0.53120  Biso   1.000  N
  N4       1.0000 0.60640  0.63797  0.96880  Biso   1.000  N
  N5       1.0000 0.18040  0.79920  0.56280  Biso   1.000  N
  N6       1.0000 0.31960  0.29920  0.93720  Biso   1.000  N
  N7       1.0000 0.81960  0.20080  0.43720  Biso   1.000  N
  N8       1.0000 0.68040  0.70080  0.06280  Biso   1.000  N
  N9       1.0000 0.18720  0.72320  0.37340  Biso   1.000  N
  N10      1.0000 0.31280  0.22320  0.12660  Biso   1.000  N
  N11      1.0000 0.81280  0.27680  0.62660  Biso   1.000  N
  N12      1.0000 0.68720  0.77680  0.87340  Biso   1.000  N
  N13      1.0000 0.21480  0.65200  0.27680  Biso   1.000  N
  N14      1.0000 0.28520  0.15200  0.22320  Biso   1.000  N
  N15      1.0000 0.78520  0.34800  0.72320  Biso   1.000  N
  N16      1.0000 0.71480  0.84800  0.77680  Biso   1.000  N
  N17      1.0000 0.16970  0.53100  0.13450  Biso   1.000  N
  N18      1.0000 0.33030  0.03100  0.36550  Biso   1.000  N
  N19      1.0000 0.83030  0.46900  0.86550  Biso   1.000  N
  N20      1.0000 0.66970  0.96900  0.63450  Biso   1.000  N
  N21      1.0000 0.33400  0.56460  0.12550  Biso   1.000  N
  N22      1.0000 0.16600  0.06460  0.37450  Biso   1.000  N
  N23      1.0000 0.66600  0.43540  0.87450  Biso   1.000  N
  N24      1.0000 0.83400  0.93540  0.62550  Biso   1.000  N
  C1       1.0000 0.11220  0.81540  0.35670  Biso   1.000  C
  C2       1.0000 0.38780  0.31540  0.14330  Biso   1.000  C
  C3       1.0000 0.88780  0.18460  0.64330  Biso   1.000  C
  C4       1.0000 0.61220  0.68460  0.85670  Biso   1.000  C
  H9       1.0000 0.07140  0.84130  0.27830  Biso   1.000  H
  H10      1.0000 0.42860  0.34130  0.22170  Biso   1.000  H
  H11      1.0000 0.92860  0.15870  0.72170  Biso   1.000  H
  H12      1.0000 0.57140  0.65870  0.77830  Biso   1.000  H
  C5       1.0000 0.22690  0.71610  0.50290  Biso   1.000  C
  C6       1.0000 0.27310  0.21610  0.99710  Biso   1.000  C
  C7       1.0000 0.77310  0.28390  0.49710  Biso   1.000  C
  C8       1.0000 0.72690  0.78390  0.00290  Biso   1.000  C
  H13      1.0000 0.27940  0.66010  0.54210  Biso   1.000  H
  H14      1.0000 0.22060  0.16010  0.95790  Biso   1.000  H
  H15      1.0000 0.72060  0.33990  0.45790  Biso   1.000  H
  H16      1.0000 0.77940  0.83990  0.04210  Biso   1.000  H
  C9       1.0000 0.10090  0.58490  0.22640  Biso   1.000  C
  C10      1.0000 0.39910  0.08490  0.27360  Biso   1.000  C
  C11      1.0000 0.89910  0.41510  0.77360  Biso   1.000  C
  C12      1.0000 0.60090  0.91510  0.72640  Biso   1.000  C
  H17      1.0000 0.99020  0.57850  0.25370  Biso   1.000  H
  H18      1.0000 0.50980  0.07850  0.24630  Biso   1.000  H
  H19      1.0000 0.00980  0.42150  0.74630  Biso   1.000  H
  H20      1.0000 0.49020  0.92150  0.75370  Biso   1.000  H
  C13      1.0000 0.35810  0.63730  0.21040  Biso   1.000  C
  C14      1.0000 0.14190  0.13730  0.28960  Biso   1.000  C
  C15      1.0000 0.64190  0.36270  0.78960  Biso   1.000  C
  C16      1.0000 0.85810  0.86270  0.71040  Biso   1.000  C
  H21      1.0000 0.45770  0.67330  0.22310  Biso   1.000  H
  H22      1.0000 0.04230  0.17330  0.27690  Biso   1.000  H
  H23      1.0000 0.54230  0.32670  0.77690  Biso   1.000  H
  H24      1.0000 0.95770  0.82670  0.72310  Biso   1.000  H
  B1       1.0000 0.23280  0.88230  0.00350  Biso   1.000  B
  B2       1.0000 0.26720  0.38230  0.49650  Biso   1.000  B
  B3       1.0000 0.76720  0.11770  0.99650  Biso   1.000  B
  B4       1.0000 0.73280  0.61770  0.50350  Biso   1.000  B
  F1       1.0000 0.23640  0.88260  0.87310  Biso   1.000  F
  F2       1.0000 0.26360  0.38260  0.62690  Biso   1.000  F
  F3       1.0000 0.76360  0.11740  0.12690  Biso   1.000  F
  F4       1.0000 0.73640  0.61740  0.37310  Biso   1.000  F
  F5       1.0000 0.19460  0.97440  0.05800  Biso   1.000  F
  F6       1.0000 0.30540  0.47440  0.44200  Biso   1.000  F
  F7       1.0000 0.80540  0.02560  0.94200  Biso   1.000  F
  F8       1.0000 0.69460  0.52560  0.55800  Biso   1.000  F
  F9       1.0000 0.38470  0.85830  0.05590  Biso   1.000  F
  F10      1.0000 0.11530  0.35830  0.44410  Biso   1.000  F
  F11      1.0000 0.61530  0.14170  0.94410  Biso   1.000  F
  F12      1.0000 0.88470  0.64170  0.55590  Biso   1.000  F
  F13      1.0000 0.10010  0.82290  0.04360  Biso   1.000  F
  F14      1.0000 0.39990  0.32290  0.45640  Biso   1.000  F
  F15      1.0000 0.89990  0.17710  0.95640  Biso   1.000  F
  F16      1.0000 0.60010  0.67710  0.54360  Biso   1.000  F
  F17      1.0000 0.13700  0.93430  0.91480  Biso   1.000  F
  F18      1.0000 0.36300  0.43430  0.58520  Biso   1.000  F
  F19      1.0000 0.86300  0.06570  0.08520  Biso   1.000  F
  F20      1.0000 0.63700  0.56570  0.41480  Biso   1.000  F
  F21      1.0000 0.29060  0.93550  0.10760  Biso   1.000  F
  F22      1.0000 0.20940  0.43550  0.39240  Biso   1.000  F
  F23      1.0000 0.70940  0.06450  0.89240  Biso   1.000  F
  F24      1.0000 0.79060  0.56450  0.60760  Biso   1.000  F
  F25      1.0000 0.34200  0.83030  0.92630  Biso   1.000  F
  F26      1.0000 0.15800  0.33030  0.57370  Biso   1.000  F
  F27      1.0000 0.65800  0.16970  0.07370  Biso   1.000  F
  F28      1.0000 0.84200  0.66970  0.42630  Biso   1.000  F
  F29      1.0000 0.16270  0.79790  0.05840  Biso   1.000  F
  F30      1.0000 0.33730  0.29790  0.44160  Biso   1.000  F
  F31      1.0000 0.83730  0.20210  0.94160  Biso   1.000  F
  F32      1.0000 0.66270  0.70210  0.55840  Biso   1.000  F
  O5       1.0000 0.45500  0.15570  0.64260  Biso   1.000  O
  O6       1.0000 0.04500  0.65570  0.85740  Biso   1.000  O
  O7       1.0000 0.54500  0.84430  0.35740  Biso   1.000  O
  O8       1.0000 0.95500  0.34430  0.14260  Biso   1.000  O
  H25      1.0000 0.51130  0.10290  0.61880  Biso   1.000  H
  H26      1.0000 0.98870  0.60290  0.88120  Biso   1.000  H
  H27      1.0000 0.48870  0.89710  0.38120  Biso   1.000  H
  H28      1.0000 0.01130  0.39710  0.11880  Biso   1.000  H
  H29      1.0000 0.42140  0.19500  0.58050  Biso   1.000  H
  H30      1.0000 0.07860  0.69500  0.91950  Biso   1.000  H
  H31      1.0000 0.57860  0.80500  0.41950  Biso   1.000  H
  H32      1.0000 0.92140  0.30500  0.08050  Biso   1.000  H
