data_image0
_cell_length_a       10.9709
_cell_length_b       10.9709
_cell_length_c       35.314
_cell_angle_alpha    90
_cell_angle_beta     90
_cell_angle_gamma    120

_symmetry_space_group_name_H-M    "P 1"
_symmetry_int_tables_number       1

loop_
  _symmetry_equiv_pos_as_xyz
  'x, y, z'

loop_
  _atom_site_label
  _atom_site_occupancy
  _atom_site_fract_x
  _atom_site_fract_y
  _atom_site_fract_z
  _atom_site_thermal_displace_type
  _atom_site_B_iso_or_equiv
  _atom_site_type_symbol
  Cu1      1.0000 0.00000  0.00000  0.00000  Biso   1.000  Cu
  Cu2      1.0000 0.00000  0.00000  0.50000  Biso   1.000  Cu
  Cu3      1.0000 0.66667  0.33333  0.33333  Biso   1.000  Cu
  Cu4      1.0000 0.66667  0.33333  0.83333  Biso   1.000  Cu
  Cu5      1.0000 0.33333  0.66667  0.66667  Biso   1.000  Cu
  Cu6      1.0000 0.33333  0.66667  0.16667  Biso   1.000  Cu
  N1       1.0000 0.95620  0.68520  0.07354  Biso   1.000  N
  N2       1.0000 0.31480  0.27100  0.07354  Biso   1.000  N
  N3       1.0000 0.72900  0.04380  0.07354  Biso   1.000  N
  N4       1.0000 0.68520  0.95620  0.42646  Biso   1.000  N
  N5       1.0000 0.62287  0.01853  0.40687  Biso   1.000  N
  N6       1.0000 0.98147  0.60433  0.40687  Biso   1.000  N
  N7       1.0000 0.39567  0.37713  0.40687  Biso   1.000  N
  N8       1.0000 0.35187  0.28953  0.75979  Biso   1.000  N
  N9       1.0000 0.28953  0.35187  0.74021  Biso   1.000  N
  N10      1.0000 0.01853  0.62287  0.09313  Biso   1.000  N
  N11      1.0000 0.27100  0.31480  0.42646  Biso   1.000  N
  N12      1.0000 0.04380  0.72900  0.42646  Biso   1.000  N
  N13      1.0000 0.64813  0.93767  0.74021  Biso   1.000  N
  N14      1.0000 0.06233  0.71047  0.74021  Biso   1.000  N
  N15      1.0000 0.60433  0.98147  0.09313  Biso   1.000  N
  N16      1.0000 0.37713  0.39567  0.09313  Biso   1.000  N
  N17      1.0000 0.93767  0.64813  0.75979  Biso   1.000  N
  N18      1.0000 0.71047  0.06233  0.75979  Biso   1.000  N
  N19      1.0000 0.04380  0.31480  0.92646  Biso   1.000  N
  N20      1.0000 0.68520  0.72900  0.92646  Biso   1.000  N
  N21      1.0000 0.27100  0.95620  0.92646  Biso   1.000  N
  N22      1.0000 0.31480  0.04380  0.57354  Biso   1.000  N
  N23      1.0000 0.71047  0.64813  0.25979  Biso   1.000  N
  N24      1.0000 0.35187  0.06233  0.25979  Biso   1.000  N
  N25      1.0000 0.93767  0.28953  0.25979  Biso   1.000  N
  N26      1.0000 0.98147  0.37713  0.90687  Biso   1.000  N
  N27      1.0000 0.37713  0.98147  0.59313  Biso   1.000  N
  N28      1.0000 0.64813  0.71047  0.24021  Biso   1.000  N
  N29      1.0000 0.72900  0.68520  0.57354  Biso   1.000  N
  N30      1.0000 0.95620  0.27100  0.57354  Biso   1.000  N
  N31      1.0000 0.01853  0.39567  0.59313  Biso   1.000  N
  N32      1.0000 0.60433  0.62287  0.59313  Biso   1.000  N
  N33      1.0000 0.06233  0.35187  0.24021  Biso   1.000  N
  N34      1.0000 0.28953  0.93767  0.24021  Biso   1.000  N
  N35      1.0000 0.39567  0.01853  0.90687  Biso   1.000  N
  N36      1.0000 0.62287  0.60433  0.90687  Biso   1.000  N
  N37      1.0000 0.93170  0.81930  0.03390  Biso   1.000  N
  N38      1.0000 0.18070  0.11240  0.03390  Biso   1.000  N
  N39      1.0000 0.88760  0.06830  0.03390  Biso   1.000  N
  N40      1.0000 0.81930  0.93170  0.46610  Biso   1.000  N
  N41      1.0000 0.59837  0.15263  0.36723  Biso   1.000  N
  N42      1.0000 0.84737  0.44573  0.36723  Biso   1.000  N
  N43      1.0000 0.55427  0.40163  0.36723  Biso   1.000  N
  N44      1.0000 0.48597  0.26503  0.79943  Biso   1.000  N
  N45      1.0000 0.26503  0.48597  0.70057  Biso   1.000  N
  N46      1.0000 0.15263  0.59837  0.13277  Biso   1.000  N
  N47      1.0000 0.11240  0.18070  0.46610  Biso   1.000  N
  N48      1.0000 0.06830  0.88760  0.46610  Biso   1.000  N
  N49      1.0000 0.51403  0.77907  0.70057  Biso   1.000  N
  N50      1.0000 0.22093  0.73497  0.70057  Biso   1.000  N
  N51      1.0000 0.44573  0.84737  0.13277  Biso   1.000  N
  N52      1.0000 0.40163  0.55427  0.13277  Biso   1.000  N
  N53      1.0000 0.77907  0.51403  0.79943  Biso   1.000  N
  N54      1.0000 0.73497  0.22093  0.79943  Biso   1.000  N
  N55      1.0000 0.06830  0.18070  0.96610  Biso   1.000  N
  N56      1.0000 0.81930  0.88760  0.96610  Biso   1.000  N
  N57      1.0000 0.11240  0.93170  0.96610  Biso   1.000  N
  N58      1.0000 0.18070  0.06830  0.53390  Biso   1.000  N
  N59      1.0000 0.73497  0.51403  0.29943  Biso   1.000  N
  N60      1.0000 0.48597  0.22093  0.29943  Biso   1.000  N
  N61      1.0000 0.77907  0.26503  0.29943  Biso   1.000  N
  N62      1.0000 0.84737  0.40163  0.86723  Biso   1.000  N
  N63      1.0000 0.40163  0.84737  0.63277  Biso   1.000  N
  N64      1.0000 0.51403  0.73497  0.20057  Biso   1.000  N
  N65      1.0000 0.88760  0.81930  0.53390  Biso   1.000  N
  N66      1.0000 0.93170  0.11240  0.53390  Biso   1.000  N
  N67      1.0000 0.15263  0.55427  0.63277  Biso   1.000  N
  N68      1.0000 0.44573  0.59837  0.63277  Biso   1.000  N
  N69      1.0000 0.22093  0.48597  0.20057  Biso   1.000  N
  N70      1.0000 0.26503  0.77907  0.20057  Biso   1.000  N
  N71      1.0000 0.55427  0.15263  0.86723  Biso   1.000  N
  N72      1.0000 0.59837  0.44573  0.86723  Biso   1.000  N
  N73      1.0000 0.82210  0.77080  0.05940  Biso   1.000  N
  N74      1.0000 0.22920  0.05130  0.05940  Biso   1.000  N
  N75      1.0000 0.94870  0.17790  0.05940  Biso   1.000  N
  N76      1.0000 0.77080  0.82210  0.44060  Biso   1.000  N
  N77      1.0000 0.48877  0.10413  0.39273  Biso   1.000  N
  N78      1.0000 0.89587  0.38463  0.39273  Biso   1.000  N
  N79      1.0000 0.61537  0.51123  0.39273  Biso   1.000  N
  N80      1.0000 0.43747  0.15543  0.77393  Biso   1.000  N
  N81      1.0000 0.15543  0.43747  0.72607  Biso   1.000  N
  N82      1.0000 0.10413  0.48877  0.10727  Biso   1.000  N
  N83      1.0000 0.05130  0.22920  0.44060  Biso   1.000  N
  N84      1.0000 0.17790  0.94870  0.44060  Biso   1.000  N
  N85      1.0000 0.56253  0.71797  0.72607  Biso   1.000  N
  N86      1.0000 0.28203  0.84457  0.72607  Biso   1.000  N
  N87      1.0000 0.38463  0.89587  0.10727  Biso   1.000  N
  N88      1.0000 0.51123  0.61537  0.10727  Biso   1.000  N
  N89      1.0000 0.71797  0.56253  0.77393  Biso   1.000  N
  N90      1.0000 0.84457  0.28203  0.77393  Biso   1.000  N
  N91      1.0000 0.17790  0.22920  0.94060  Biso   1.000  N
  N92      1.0000 0.77080  0.94870  0.94060  Biso   1.000  N
  N93      1.0000 0.05130  0.82210  0.94060  Biso   1.000  N
  N94      1.0000 0.22920  0.17790  0.55940  Biso   1.000  N
  N95      1.0000 0.84457  0.56253  0.27393  Biso   1.000  N
  N96      1.0000 0.43747  0.28203  0.27393  Biso   1.000  N
  N97      1.0000 0.71797  0.15543  0.27393  Biso   1.000  N
  N98      1.0000 0.89587  0.51123  0.89273  Biso   1.000  N
  N99      1.0000 0.51123  0.89587  0.60727  Biso   1.000  N
  N100     1.0000 0.56253  0.84457  0.22607  Biso   1.000  N
  N101     1.0000 0.94870  0.77080  0.55940  Biso   1.000  N
  N102     1.0000 0.82210  0.05130  0.55940  Biso   1.000  N
  N103     1.0000 0.10413  0.61537  0.60727  Biso   1.000  N
  N104     1.0000 0.38463  0.48877  0.60727  Biso   1.000  N
  N105     1.0000 0.28203  0.43747  0.22607  Biso   1.000  N
  N106     1.0000 0.15543  0.71797  0.22607  Biso   1.000  N
  N107     1.0000 0.61537  0.10413  0.89273  Biso   1.000  N
  N108     1.0000 0.48877  0.38463  0.89273  Biso   1.000  N
  C1       1.0000 0.01010  0.76700  0.04264  Biso   1.000  C
  C2       1.0000 0.23300  0.24310  0.04264  Biso   1.000  C
  C3       1.0000 0.75690  0.98990  0.04264  Biso   1.000  C
  C4       1.0000 0.76700  0.01010  0.45736  Biso   1.000  C
  C5       1.0000 0.67677  0.10033  0.37597  Biso   1.000  C
  C6       1.0000 0.89967  0.57643  0.37597  Biso   1.000  C
  C7       1.0000 0.42357  0.32323  0.37597  Biso   1.000  C
  C8       1.0000 0.43367  0.34343  0.79069  Biso   1.000  C
  C9       1.0000 0.34343  0.43367  0.70931  Biso   1.000  C
  C10      1.0000 0.10033  0.67677  0.12403  Biso   1.000  C
  C11      1.0000 0.24310  0.23300  0.45736  Biso   1.000  C
  C12      1.0000 0.98990  0.75690  0.45736  Biso   1.000  C
  C13      1.0000 0.56633  0.90977  0.70931  Biso   1.000  C
  C14      1.0000 0.09023  0.65657  0.70931  Biso   1.000  C
  C15      1.0000 0.57643  0.89967  0.12403  Biso   1.000  C
  C16      1.0000 0.32323  0.42357  0.12403  Biso   1.000  C
  C17      1.0000 0.90977  0.56633  0.79069  Biso   1.000  C
  C18      1.0000 0.65657  0.09023  0.79069  Biso   1.000  C
  C19      1.0000 0.98990  0.23300  0.95736  Biso   1.000  C
  C20      1.0000 0.76700  0.75690  0.95736  Biso   1.000  C
  C21      1.0000 0.24310  0.01010  0.95736  Biso   1.000  C
  C22      1.0000 0.23300  0.98990  0.54264  Biso   1.000  C
  C23      1.0000 0.65657  0.56633  0.29069  Biso   1.000  C
  C24      1.0000 0.43367  0.09023  0.29069  Biso   1.000  C
  C25      1.0000 0.90977  0.34343  0.29069  Biso   1.000  C
  C26      1.0000 0.89967  0.32323  0.87597  Biso   1.000  C
  C27      1.0000 0.32323  0.89967  0.62403  Biso   1.000  C
  C28      1.0000 0.56633  0.65657  0.20931  Biso   1.000  C
  C29      1.0000 0.75690  0.76700  0.54264  Biso   1.000  C
  C30      1.0000 0.01010  0.24310  0.54264  Biso   1.000  C
  C31      1.0000 0.10033  0.42357  0.62403  Biso   1.000  C
  C32      1.0000 0.57643  0.67677  0.62403  Biso   1.000  C
  C33      1.0000 0.09023  0.43367  0.20931  Biso   1.000  C
  C34      1.0000 0.34343  0.90977  0.20931  Biso   1.000  C
  C35      1.0000 0.42357  0.10033  0.87597  Biso   1.000  C
  C36      1.0000 0.67677  0.57643  0.87597  Biso   1.000  C
  H1       1.0000 0.09070  0.78310  0.02970  Biso   1.000  H
  H2       1.0000 0.21690  0.30760  0.02970  Biso   1.000  H
  H3       1.0000 0.69240  0.90930  0.02970  Biso   1.000  H
  H4       1.0000 0.78310  0.09070  0.47030  Biso   1.000  H
  H5       1.0000 0.75737  0.11643  0.36303  Biso   1.000  H
  H6       1.0000 0.88357  0.64093  0.36303  Biso   1.000  H
  H7       1.0000 0.35907  0.24263  0.36303  Biso   1.000  H
  H8       1.0000 0.44977  0.42403  0.80363  Biso   1.000  H
  H9       1.0000 0.42403  0.44977  0.69637  Biso   1.000  H
  H10      1.0000 0.11643  0.75737  0.13697  Biso   1.000  H
  H11      1.0000 0.30760  0.21690  0.47030  Biso   1.000  H
  H12      1.0000 0.90930  0.69240  0.47030  Biso   1.000  H
  H13      1.0000 0.55023  0.97427  0.69637  Biso   1.000  H
  H14      1.0000 0.02573  0.57597  0.69637  Biso   1.000  H
  H15      1.0000 0.64093  0.88357  0.13697  Biso   1.000  H
  H16      1.0000 0.24263  0.35907  0.13697  Biso   1.000  H
  H17      1.0000 0.97427  0.55023  0.80363  Biso   1.000  H
  H18      1.0000 0.57597  0.02573  0.80363  Biso   1.000  H
  H19      1.0000 0.90930  0.21690  0.97030  Biso   1.000  H
  H20      1.0000 0.78310  0.69240  0.97030  Biso   1.000  H
  H21      1.0000 0.30760  0.09070  0.97030  Biso   1.000  H
  H22      1.0000 0.21690  0.90930  0.52970  Biso   1.000  H
  H23      1.0000 0.57597  0.55023  0.30363  Biso   1.000  H
  H24      1.0000 0.44977  0.02573  0.30363  Biso   1.000  H
  H25      1.0000 0.97427  0.42403  0.30363  Biso   1.000  H
  H26      1.0000 0.88357  0.24263  0.86303  Biso   1.000  H
  H27      1.0000 0.24263  0.88357  0.63697  Biso   1.000  H
  H28      1.0000 0.55023  0.57597  0.19637  Biso   1.000  H
  H29      1.0000 0.69240  0.78310  0.52970  Biso   1.000  H
  H30      1.0000 0.09070  0.30760  0.52970  Biso   1.000  H
  H31      1.0000 0.11643  0.35907  0.63697  Biso   1.000  H
  H32      1.0000 0.64093  0.75737  0.63697  Biso   1.000  H
  H33      1.0000 0.02573  0.44977  0.19637  Biso   1.000  H
  H34      1.0000 0.42403  0.97427  0.19637  Biso   1.000  H
  H35      1.0000 0.35907  0.11643  0.86303  Biso   1.000  H
  H36      1.0000 0.75737  0.64093  0.86303  Biso   1.000  H
  C37      1.0000 0.84130  0.69210  0.08277  Biso   1.000  C
  C38      1.0000 0.30790  0.14920  0.08277  Biso   1.000  C
  C39      1.0000 0.85080  0.15870  0.08277  Biso   1.000  C
  C40      1.0000 0.69210  0.84130  0.41723  Biso   1.000  C
  C41      1.0000 0.50797  0.02543  0.41610  Biso   1.000  C
  C42      1.0000 0.97457  0.48253  0.41610  Biso   1.000  C
  C43      1.0000 0.51747  0.49203  0.41610  Biso   1.000  C
  C44      1.0000 0.35877  0.17463  0.75056  Biso   1.000  C
  C45      1.0000 0.17463  0.35877  0.74944  Biso   1.000  C
  C46      1.0000 0.02543  0.50797  0.08390  Biso   1.000  C
  C47      1.0000 0.14920  0.30790  0.41723  Biso   1.000  C
  C48      1.0000 0.15870  0.85080  0.41723  Biso   1.000  C
  C49      1.0000 0.64123  0.81587  0.74944  Biso   1.000  C
  C50      1.0000 0.18413  0.82537  0.74944  Biso   1.000  C
  C51      1.0000 0.48253  0.97457  0.08390  Biso   1.000  C
  C52      1.0000 0.49203  0.51747  0.08390  Biso   1.000  C
  C53      1.0000 0.81587  0.64123  0.75056  Biso   1.000  C
  C54      1.0000 0.82537  0.18413  0.75056  Biso   1.000  C
  C55      1.0000 0.15870  0.30790  0.91723  Biso   1.000  C
  C56      1.0000 0.69210  0.85080  0.91723  Biso   1.000  C
  C57      1.0000 0.14920  0.84130  0.91723  Biso   1.000  C
  C58      1.0000 0.30790  0.15870  0.58277  Biso   1.000  C
  C59      1.0000 0.82537  0.64123  0.25056  Biso   1.000  C
  C60      1.0000 0.35877  0.18413  0.25056  Biso   1.000  C
  C61      1.0000 0.81587  0.17463  0.25056  Biso   1.000  C
  C62      1.0000 0.97457  0.49203  0.91610  Biso   1.000  C
  C63      1.0000 0.49203  0.97457  0.58390  Biso   1.000  C
  C64      1.0000 0.64123  0.82537  0.24944  Biso   1.000  C
  C65      1.0000 0.85080  0.69210  0.58277  Biso   1.000  C
  C66      1.0000 0.84130  0.14920  0.58277  Biso   1.000  C
  C67      1.0000 0.02543  0.51747  0.58390  Biso   1.000  C
  C68      1.0000 0.48253  0.50797  0.58390  Biso   1.000  C
  C69      1.0000 0.18413  0.35877  0.24944  Biso   1.000  C
  C70      1.0000 0.17463  0.81587  0.24944  Biso   1.000  C
  C71      1.0000 0.51747  0.02543  0.91610  Biso   1.000  C
  C72      1.0000 0.50797  0.48253  0.91610  Biso   1.000  C
  H37      1.0000 0.78330  0.64610  0.10330  Biso   1.000  H
  H38      1.0000 0.35390  0.13720  0.10330  Biso   1.000  H
  H39      1.0000 0.86280  0.21670  0.10330  Biso   1.000  H
  H40      1.0000 0.64610  0.78330  0.39670  Biso   1.000  H
  H41      1.0000 0.44997  0.97943  0.43663  Biso   1.000  H
  H42      1.0000 0.02057  0.47053  0.43663  Biso   1.000  H
  H43      1.0000 0.52947  0.55003  0.43663  Biso   1.000  H
  H44      1.0000 0.31277  0.11663  0.73003  Biso   1.000  H
  H45      1.0000 0.11663  0.31277  0.76997  Biso   1.000  H
  H46      1.0000 0.97943  0.44997  0.06337  Biso   1.000  H
  H47      1.0000 0.13720  0.35390  0.39670  Biso   1.000  H
  H48      1.0000 0.21670  0.86280  0.39670  Biso   1.000  H
  H49      1.0000 0.68723  0.80387  0.76997  Biso   1.000  H
  H50      1.0000 0.19613  0.88337  0.76997  Biso   1.000  H
  H51      1.0000 0.47053  0.02057  0.06337  Biso   1.000  H
  H52      1.0000 0.55003  0.52947  0.06337  Biso   1.000  H
  H53      1.0000 0.80387  0.68723  0.73003  Biso   1.000  H
  H54      1.0000 0.88337  0.19613  0.73003  Biso   1.000  H
  H55      1.0000 0.21670  0.35390  0.89670  Biso   1.000  H
  H56      1.0000 0.64610  0.86280  0.89670  Biso   1.000  H
  H57      1.0000 0.13720  0.78330  0.89670  Biso   1.000  H
  H58      1.0000 0.35390  0.21670  0.60330  Biso   1.000  H
  H59      1.0000 0.88337  0.68723  0.23003  Biso   1.000  H
  H60      1.0000 0.31277  0.19613  0.23003  Biso   1.000  H
  H61      1.0000 0.80387  0.11663  0.23003  Biso   1.000  H
  H62      1.0000 0.02057  0.55003  0.93663  Biso   1.000  H
  H63      1.0000 0.55003  0.02057  0.56337  Biso   1.000  H
  H64      1.0000 0.68723  0.88337  0.26997  Biso   1.000  H
  H65      1.0000 0.86280  0.64610  0.60330  Biso   1.000  H
  H66      1.0000 0.78330  0.13720  0.60330  Biso   1.000  H
  H67      1.0000 0.97943  0.52947  0.56337  Biso   1.000  H
  H68      1.0000 0.47053  0.44997  0.56337  Biso   1.000  H
  H69      1.0000 0.19613  0.31277  0.26997  Biso   1.000  H
  H70      1.0000 0.11663  0.80387  0.26997  Biso   1.000  H
  H71      1.0000 0.52947  0.97943  0.93663  Biso   1.000  H
  H72      1.0000 0.44997  0.47053  0.93663  Biso   1.000  H
  Cl1      1.0000 0.66670  0.33330  0.00557  Biso   1.000  Cl
  Cl2      1.0000 0.33330  0.66670  0.49443  Biso   1.000  Cl
  Cl3      1.0000 0.33337  0.66663  0.33890  Biso   1.000  Cl
  Cl4      1.0000 0.99997  0.00003  0.82776  Biso   1.000  Cl
  Cl5      1.0000 0.00003  0.99997  0.67224  Biso   1.000  Cl
  Cl6      1.0000 0.66663  0.33337  0.16110  Biso   1.000  Cl
  Cl7      1.0000 0.33330  0.66670  0.99443  Biso   1.000  Cl
  Cl8      1.0000 0.66670  0.33330  0.50557  Biso   1.000  Cl
  Cl9      1.0000 0.99997  0.00003  0.32776  Biso   1.000  Cl
  Cl10     1.0000 0.33337  0.66663  0.83890  Biso   1.000  Cl
  Cl11     1.0000 0.66663  0.33337  0.66110  Biso   1.000  Cl
  Cl12     1.0000 0.00003  0.99997  0.17224  Biso   1.000  Cl
  O1       1.0000 0.66670  0.33330  0.04680  Biso   1.000  O
  O2       1.0000 0.33330  0.66670  0.45320  Biso   1.000  O
  O3       1.0000 0.33337  0.66663  0.38013  Biso   1.000  O
  O4       1.0000 0.99997  0.00003  0.78653  Biso   1.000  O
  O5       1.0000 0.00003  0.99997  0.71347  Biso   1.000  O
  O6       1.0000 0.66663  0.33337  0.11987  Biso   1.000  O
  O7       1.0000 0.33330  0.66670  0.95320  Biso   1.000  O
  O8       1.0000 0.66670  0.33330  0.54680  Biso   1.000  O
  O9       1.0000 0.99997  0.00003  0.28653  Biso   1.000  O
  O10      1.0000 0.33337  0.66663  0.88013  Biso   1.000  O
  O11      1.0000 0.66663  0.33337  0.61987  Biso   1.000  O
  O12      1.0000 0.00003  0.99997  0.21347  Biso   1.000  O
  O13      1.0000 0.59400  0.18830  0.99330  Biso   1.000  O
  O14      1.0000 0.81170  0.40570  0.99330  Biso   1.000  O
  O15      1.0000 0.59430  0.40600  0.99330  Biso   1.000  O
  O16      1.0000 0.18830  0.59400  0.50670  Biso   1.000  O
  O17      1.0000 0.26067  0.52163  0.32663  Biso   1.000  O
  O18      1.0000 0.47837  0.73903  0.32663  Biso   1.000  O
  O19      1.0000 0.26097  0.73933  0.32663  Biso   1.000  O
  O20      1.0000 0.85497  0.92733  0.84003  Biso   1.000  O
  O21      1.0000 0.92733  0.85497  0.65997  Biso   1.000  O
  O22      1.0000 0.52163  0.26067  0.17337  Biso   1.000  O
  O23      1.0000 0.40570  0.81170  0.50670  Biso   1.000  O
  O24      1.0000 0.40600  0.59430  0.50670  Biso   1.000  O
  O25      1.0000 0.14503  0.07237  0.65997  Biso   1.000  O
  O26      1.0000 0.92763  0.07267  0.65997  Biso   1.000  O
  O27      1.0000 0.73903  0.47837  0.17337  Biso   1.000  O
  O28      1.0000 0.73933  0.26097  0.17337  Biso   1.000  O
  O29      1.0000 0.07237  0.14503  0.84003  Biso   1.000  O
  O30      1.0000 0.07267  0.92763  0.84003  Biso   1.000  O
  O31      1.0000 0.40600  0.81170  0.00670  Biso   1.000  O
  O32      1.0000 0.18830  0.59430  0.00670  Biso   1.000  O
  O33      1.0000 0.40570  0.59400  0.00670  Biso   1.000  O
  O34      1.0000 0.81170  0.40600  0.49330  Biso   1.000  O
  O35      1.0000 0.07267  0.14503  0.34003  Biso   1.000  O
  O36      1.0000 0.85497  0.92763  0.34003  Biso   1.000  O
  O37      1.0000 0.07237  0.92733  0.34003  Biso   1.000  O
  O38      1.0000 0.47837  0.73933  0.82663  Biso   1.000  O
  O39      1.0000 0.73933  0.47837  0.67337  Biso   1.000  O
  O40      1.0000 0.14503  0.07267  0.15997  Biso   1.000  O
  O41      1.0000 0.59430  0.18830  0.49330  Biso   1.000  O
  O42      1.0000 0.59400  0.40570  0.49330  Biso   1.000  O
  O43      1.0000 0.52163  0.26097  0.67337  Biso   1.000  O
  O44      1.0000 0.73903  0.26067  0.67337  Biso   1.000  O
  O45      1.0000 0.92763  0.85497  0.15997  Biso   1.000  O
  O46      1.0000 0.92733  0.07237  0.15997  Biso   1.000  O
  O47      1.0000 0.26097  0.52163  0.82663  Biso   1.000  O
  O48      1.0000 0.26067  0.73903  0.82663  Biso   1.000  O
  O49      1.0000 0.69900  0.30500  0.96820  Biso   1.000  O
  O50      1.0000 0.69500  0.39400  0.96820  Biso   1.000  O
  O51      1.0000 0.60600  0.30100  0.96820  Biso   1.000  O
  O52      1.0000 0.30500  0.69900  0.53180  Biso   1.000  O
  O53      1.0000 0.36567  0.63833  0.30153  Biso   1.000  O
  O54      1.0000 0.36167  0.72733  0.30153  Biso   1.000  O
  O55      1.0000 0.27267  0.63433  0.30153  Biso   1.000  O
  O56      1.0000 0.97167  0.03233  0.86513  Biso   1.000  O
  O57      1.0000 0.03233  0.97167  0.63487  Biso   1.000  O
  O58      1.0000 0.63833  0.36567  0.19847  Biso   1.000  O
  O59      1.0000 0.39400  0.69500  0.53180  Biso   1.000  O
  O60      1.0000 0.30100  0.60600  0.53180  Biso   1.000  O
  O61      1.0000 0.02833  0.06067  0.63487  Biso   1.000  O
  O62      1.0000 0.93933  0.96767  0.63487  Biso   1.000  O
  O63      1.0000 0.72733  0.36167  0.19847  Biso   1.000  O
  O64      1.0000 0.63433  0.27267  0.19847  Biso   1.000  O
  O65      1.0000 0.06067  0.02833  0.86513  Biso   1.000  O
  O66      1.0000 0.96767  0.93933  0.86513  Biso   1.000  O
  O67      1.0000 0.30100  0.69500  0.03180  Biso   1.000  O
  O68      1.0000 0.30500  0.60600  0.03180  Biso   1.000  O
  O69      1.0000 0.39400  0.69900  0.03180  Biso   1.000  O
  O70      1.0000 0.69500  0.30100  0.46820  Biso   1.000  O
  O71      1.0000 0.96767  0.02833  0.36513  Biso   1.000  O
  O72      1.0000 0.97167  0.93933  0.36513  Biso   1.000  O
  O73      1.0000 0.06067  0.03233  0.36513  Biso   1.000  O
  O74      1.0000 0.36167  0.63433  0.80153  Biso   1.000  O
  O75      1.0000 0.63433  0.36167  0.69847  Biso   1.000  O
  O76      1.0000 0.02833  0.96767  0.13487  Biso   1.000  O
  O77      1.0000 0.60600  0.30500  0.46820  Biso   1.000  O
  O78      1.0000 0.69900  0.39400  0.46820  Biso   1.000  O
  O79      1.0000 0.63833  0.27267  0.69847  Biso   1.000  O
  O80      1.0000 0.72733  0.36567  0.69847  Biso   1.000  O
  O81      1.0000 0.93933  0.97167  0.13487  Biso   1.000  O
  O82      1.0000 0.03233  0.06067  0.13487  Biso   1.000  O
  O83      1.0000 0.27267  0.63833  0.80153  Biso   1.000  O
  O84      1.0000 0.36567  0.72733  0.80153  Biso   1.000  O
  O85      1.0000 0.51980  0.24490  0.01310  Biso   1.000  O
  O86      1.0000 0.75510  0.27490  0.01310  Biso   1.000  O
  O87      1.0000 0.72510  0.48020  0.01310  Biso   1.000  O
  O88      1.0000 0.24490  0.51980  0.48690  Biso   1.000  O
  O89      1.0000 0.18647  0.57823  0.34643  Biso   1.000  O
  O90      1.0000 0.42177  0.60823  0.34643  Biso   1.000  O
  O91      1.0000 0.39177  0.81353  0.34643  Biso   1.000  O
  O92      1.0000 0.91157  0.85313  0.82023  Biso   1.000  O
  O93      1.0000 0.85313  0.91157  0.67977  Biso   1.000  O
  O94      1.0000 0.57823  0.18647  0.15357  Biso   1.000  O
  O95      1.0000 0.27490  0.75510  0.48690  Biso   1.000  O
  O96      1.0000 0.48020  0.72510  0.48690  Biso   1.000  O
  O97      1.0000 0.08843  0.94157  0.67977  Biso   1.000  O
  O98      1.0000 0.05843  0.14687  0.67977  Biso   1.000  O
  O99      1.0000 0.60823  0.42177  0.15357  Biso   1.000  O
  O100     1.0000 0.81353  0.39177  0.15357  Biso   1.000  O
  O101     1.0000 0.94157  0.08843  0.82023  Biso   1.000  O
  O102     1.0000 0.14687  0.05843  0.82023  Biso   1.000  O
  O103     1.0000 0.48020  0.75510  0.98690  Biso   1.000  O
  O104     1.0000 0.24490  0.72510  0.98690  Biso   1.000  O
  O105     1.0000 0.27490  0.51980  0.98690  Biso   1.000  O
  O106     1.0000 0.75510  0.48020  0.51310  Biso   1.000  O
  O107     1.0000 0.14687  0.08843  0.32023  Biso   1.000  O
  O108     1.0000 0.91157  0.05843  0.32023  Biso   1.000  O
  O109     1.0000 0.94157  0.85313  0.32023  Biso   1.000  O
  O110     1.0000 0.42177  0.81353  0.84643  Biso   1.000  O
  O111     1.0000 0.81353  0.42177  0.65357  Biso   1.000  O
  O112     1.0000 0.08843  0.14687  0.17977  Biso   1.000  O
  O113     1.0000 0.72510  0.24490  0.51310  Biso   1.000  O
  O114     1.0000 0.51980  0.27490  0.51310  Biso   1.000  O
  O115     1.0000 0.57823  0.39177  0.65357  Biso   1.000  O
  O116     1.0000 0.60823  0.18647  0.65357  Biso   1.000  O
  O117     1.0000 0.05843  0.91157  0.17977  Biso   1.000  O
  O118     1.0000 0.85313  0.94157  0.17977  Biso   1.000  O
  O119     1.0000 0.39177  0.57823  0.84643  Biso   1.000  O
  O120     1.0000 0.18647  0.60823  0.84643  Biso   1.000  O
