data_image0
_cell_length_a       13.731
_cell_length_b       6.0514
_cell_length_c       16.913
_cell_angle_alpha    90
_cell_angle_beta     97.761
_cell_angle_gamma    90

_symmetry_space_group_name_H-M    "P 1"
_symmetry_int_tables_number       1

loop_
  _symmetry_equiv_pos_as_xyz
  'x, y, z'

loop_
  _atom_site_label
  _atom_site_occupancy
  _atom_site_fract_x
  _atom_site_fract_y
  _atom_site_fract_z
  _atom_site_thermal_displace_type
  _atom_site_B_iso_or_equiv
  _atom_site_type_symbol
  C1       1.0000 0.78400  0.69430  0.79350  Biso   1.000  C
  C2       1.0000 0.21600  0.19430  0.20650  Biso   1.000  C
  H1       1.0000 0.73920  0.78940  0.81620  Biso   1.000  H
  H2       1.0000 0.26080  0.28940  0.18380  Biso   1.000  H
  H3       1.0000 0.84950  0.71840  0.82000  Biso   1.000  H
  H4       1.0000 0.15050  0.21840  0.18000  Biso   1.000  H
  H5       1.0000 0.76580  0.54300  0.80010  Biso   1.000  H
  H6       1.0000 0.23420  0.04300  0.19990  Biso   1.000  H
  C3       1.0000 0.78030  0.74560  0.70430  Biso   1.000  C
  C4       1.0000 0.21970  0.24560  0.29570  Biso   1.000  C
  H7       1.0000 0.79210  0.60720  0.67710  Biso   1.000  H
  H8       1.0000 0.20790  0.10720  0.32290  Biso   1.000  H
  C5       1.0000 0.69070  0.84560  0.66200  Biso   1.000  C
  C6       1.0000 0.30930  0.34560  0.33800  Biso   1.000  C
  H9       1.0000 0.70910  0.88930  0.61030  Biso   1.000  H
  H10      1.0000 0.29090  0.38930  0.38970  Biso   1.000  H
  C7       1.0000 0.60940  0.68880  0.64170  Biso   1.000  C
  C8       1.0000 0.39060  0.18880  0.35830  Biso   1.000  C
  H11      1.0000 0.58720  0.63600  0.69040  Biso   1.000  H
  H12      1.0000 0.41280  0.13600  0.30960  Biso   1.000  H
  H13      1.0000 0.63270  0.56270  0.61430  Biso   1.000  H
  H14      1.0000 0.36730  0.06270  0.38570  Biso   1.000  H
  C9       1.0000 0.52420  0.79390  0.58930  Biso   1.000  C
  C10      1.0000 0.47580  0.29390  0.41070  Biso   1.000  C
  H15      1.0000 0.54620  0.84370  0.54020  Biso   1.000  H
  H16      1.0000 0.45380  0.34370  0.45980  Biso   1.000  H
  H17      1.0000 0.47330  0.68410  0.57570  Biso   1.000  H
  H18      1.0000 0.52670  0.18410  0.42430  Biso   1.000  H
  C11      1.0000 0.48370  0.97800  0.62750  Biso   1.000  C
  C12      1.0000 0.51630  0.47800  0.37250  Biso   1.000  C
  H19      1.0000 0.46090  0.93020  0.67660  Biso   1.000  H
  H20      1.0000 0.53910  0.43020  0.32340  Biso   1.000  H
  H21      1.0000 0.42810  0.03860  0.59270  Biso   1.000  H
  H22      1.0000 0.57190  0.53860  0.40730  Biso   1.000  H
  C13      1.0000 0.55960  0.14910  0.64530  Biso   1.000  C
  C14      1.0000 0.44040  0.64910  0.35470  Biso   1.000  C
  H23      1.0000 0.53400  0.26820  0.67480  Biso   1.000  H
  H24      1.0000 0.46600  0.76820  0.32520  Biso   1.000  H
  H25      1.0000 0.57600  0.20970  0.59560  Biso   1.000  H
  H26      1.0000 0.42400  0.70970  0.40440  Biso   1.000  H
  C15      1.0000 0.65510  0.05400  0.69520  Biso   1.000  C
  C16      1.0000 0.34490  0.55400  0.30480  Biso   1.000  C
  H27      1.0000 0.70670  0.16420  0.69770  Biso   1.000  H
  H28      1.0000 0.29330  0.66420  0.30230  Biso   1.000  H
  H29      1.0000 0.64200  0.02670  0.74930  Biso   1.000  H
  H30      1.0000 0.35800  0.52670  0.25070  Biso   1.000  H
  C17      1.0000 0.24060  0.90280  0.70750  Biso   1.000  C
  C18      1.0000 0.75940  0.40280  0.29250  Biso   1.000  C
  H31      1.0000 0.18000  0.98300  0.69660  Biso   1.000  H
  H32      1.0000 0.82000  0.48300  0.30340  Biso   1.000  H
  H33      1.0000 0.26140  0.85640  0.65820  Biso   1.000  H
  H34      1.0000 0.73860  0.35640  0.34180  Biso   1.000  H
  H35      1.0000 0.29000  0.99640  0.73580  Biso   1.000  H
  H36      1.0000 0.71000  0.49640  0.26420  Biso   1.000  H
  C19      1.0000 0.22590  0.70500  0.75710  Biso   1.000  C
  C20      1.0000 0.77410  0.20500  0.24290  Biso   1.000  C
  H37      1.0000 0.20790  0.58060  0.72100  Biso   1.000  H
  H38      1.0000 0.79210  0.08060  0.27900  Biso   1.000  H
  C21      1.0000 0.31610  0.63300  0.81800  Biso   1.000  C
  C22      1.0000 0.68390  0.13300  0.18200  Biso   1.000  C
  H39      1.0000 0.29430  0.52070  0.85340  Biso   1.000  H
  H40      1.0000 0.70570  0.02070  0.14660  Biso   1.000  H
  C23      1.0000 0.36110  0.81570  0.86710  Biso   1.000  C
  C24      1.0000 0.63890  0.31570  0.13290  Biso   1.000  C
  H41      1.0000 0.31200  0.88750  0.89440  Biso   1.000  H
  H42      1.0000 0.68800  0.38750  0.10560  Biso   1.000  H
  H43      1.0000 0.38760  0.92420  0.83360  Biso   1.000  H
  H44      1.0000 0.61240  0.42420  0.16640  Biso   1.000  H
  C25      1.0000 0.44530  0.72160  0.92960  Biso   1.000  C
  C26      1.0000 0.55470  0.22160  0.07040  Biso   1.000  C
  H45      1.0000 0.47240  0.83940  0.96480  Biso   1.000  H
  H46      1.0000 0.52760  0.33940  0.03520  Biso   1.000  H
  H47      1.0000 0.41880  0.60970  0.96180  Biso   1.000  H
  H48      1.0000 0.58120  0.10970  0.03820  Biso   1.000  H
  C27      1.0000 0.52430  0.62400  0.88910  Biso   1.000  C
  C28      1.0000 0.47570  0.12400  0.11090  Biso   1.000  C
  H49      1.0000 0.57690  0.56890  0.92820  Biso   1.000  H
  H50      1.0000 0.42310  0.06890  0.07180  Biso   1.000  H
  H51      1.0000 0.55120  0.73440  0.85660  Biso   1.000  H
  H52      1.0000 0.44880  0.23440  0.14340  Biso   1.000  H
  C29      1.0000 0.48010  0.43660  0.83730  Biso   1.000  C
  C30      1.0000 0.51990  0.93660  0.16270  Biso   1.000  C
  H53      1.0000 0.45450  0.32440  0.86990  Biso   1.000  H
  H54      1.0000 0.54550  0.82440  0.13010  Biso   1.000  H
  H55      1.0000 0.52990  0.36930  0.80950  Biso   1.000  H
  H56      1.0000 0.47010  0.86930  0.19050  Biso   1.000  H
  C31      1.0000 0.39430  0.53310  0.77500  Biso   1.000  C
  C32      1.0000 0.60570  0.03310  0.22500  Biso   1.000  C
  H57      1.0000 0.42030  0.64480  0.74250  Biso   1.000  H
  H58      1.0000 0.57970  0.14480  0.25750  Biso   1.000  H
  H59      1.0000 0.36600  0.41590  0.74000  Biso   1.000  H
  H60      1.0000 0.63400  0.91590  0.26000  Biso   1.000  H
  Cu1      1.0000 0.99994  0.93894  0.99421  Biso   1.000  Cu
  Cu2      1.0000 0.00006  0.43894  0.00579  Biso   1.000  Cu
  Cu3      1.0000 0.00490  0.81140  0.74747  Biso   1.000  Cu
  Cu4      1.0000 0.99510  0.31140  0.25253  Biso   1.000  Cu
  Cu5      1.0000 0.00099  0.63578  0.51136  Biso   1.000  Cu
  Cu6      1.0000 0.99901  0.13578  0.48864  Biso   1.000  Cu
  N1       1.0000 0.86790  0.89180  0.70110  Biso   1.000  N
  N2       1.0000 0.13210  0.39180  0.29890  Biso   1.000  N
  H61      1.0000 0.85430  0.02050  0.72390  Biso   1.000  H
  H62      1.0000 0.14570  0.52050  0.27610  Biso   1.000  H
  H63      1.0000 0.86980  0.92110  0.64920  Biso   1.000  H
  H64      1.0000 0.13020  0.42110  0.35080  Biso   1.000  H
  N3       1.0000 0.14070  0.75370  0.80000  Biso   1.000  N
  N4       1.0000 0.85930  0.25370  0.20000  Biso   1.000  N
  H65      1.0000 0.15790  0.87220  0.83090  Biso   1.000  H
  H66      1.0000 0.84210  0.37220  0.16910  Biso   1.000  H
  H67      1.0000 0.13630  0.63960  0.83340  Biso   1.000  H
  H68      1.0000 0.86370  0.13960  0.16660  Biso   1.000  H
  N5       1.0000 0.99190  0.00020  0.84650  Biso   1.000  N
  N6       1.0000 0.00810  0.50020  0.15350  Biso   1.000  N
  N7       1.0000 0.01950  0.18400  0.84380  Biso   1.000  N
  N8       1.0000 0.98050  0.68400  0.15620  Biso   1.000  N
  N9       1.0000 0.04580  0.37350  0.84190  Biso   1.000  N
  N10      1.0000 0.95420  0.87350  0.15810  Biso   1.000  N
  N11      1.0000 0.00870  0.60360  0.65990  Biso   1.000  N
  N12      1.0000 0.99130  0.10360  0.34010  Biso   1.000  N
  N13      1.0000 0.01740  0.39670  0.66660  Biso   1.000  N
  N14      1.0000 0.98260  0.89670  0.33340  Biso   1.000  N
  N15      1.0000 0.02630  0.20490  0.66780  Biso   1.000  N
  N16      1.0000 0.97370  0.70490  0.33220  Biso   1.000  N
  N17      1.0000 0.90480  0.68370  0.98680  Biso   1.000  N
  N18      1.0000 0.09520  0.18370  0.01320  Biso   1.000  N
  N19      1.0000 0.81880  0.71240  0.97030  Biso   1.000  N
  N20      1.0000 0.18120  0.21240  0.02970  Biso   1.000  N
  N21      1.0000 0.73890  0.72630  0.95440  Biso   1.000  N
  N22      1.0000 0.26110  0.22630  0.04560  Biso   1.000  N
  N23      1.0000 0.90290  0.18940  0.00190  Biso   1.000  N
  N24      1.0000 0.09710  0.68940  0.99810  Biso   1.000  N
  N25      1.0000 0.82480  0.19000  0.95870  Biso   1.000  N
  N26      1.0000 0.17520  0.69000  0.04130  Biso   1.000  N
  N27      1.0000 0.75430  0.20560  0.92380  Biso   1.000  N
  N28      1.0000 0.24570  0.70560  0.07620  Biso   1.000  N
  N29      1.0000 0.09190  0.87770  0.51020  Biso   1.000  N
  N30      1.0000 0.90810  0.37770  0.48980  Biso   1.000  N
  N31      1.0000 0.17250  0.86460  0.48640  Biso   1.000  N
  N32      1.0000 0.82750  0.36460  0.51360  Biso   1.000  N
  N33      1.0000 0.24170  0.83690  0.46570  Biso   1.000  N
  N34      1.0000 0.75830  0.33690  0.53430  Biso   1.000  N
  N35      1.0000 0.90250  0.89100  0.50380  Biso   1.000  N
  N36      1.0000 0.09750  0.39100  0.49620  Biso   1.000  N
  N37      1.0000 0.81360  0.84690  0.48770  Biso   1.000  N
  N38      1.0000 0.18640  0.34690  0.51230  Biso   1.000  N
  N39      1.0000 0.73240  0.81590  0.48060  Biso   1.000  N
  N40      1.0000 0.26760  0.31590  0.51940  Biso   1.000  N
