data_image0
_cell_length_a       8.922
_cell_length_b       9.095
_cell_length_c       9.656
_cell_angle_alpha    110.318
_cell_angle_beta     97.529
_cell_angle_gamma    105.768

_symmetry_space_group_name_H-M    "P 1"
_symmetry_int_tables_number       1

loop_
  _symmetry_equiv_pos_as_xyz
  'x, y, z'

loop_
  _atom_site_label
  _atom_site_occupancy
  _atom_site_fract_x
  _atom_site_fract_y
  _atom_site_fract_z
  _atom_site_thermal_displace_type
  _atom_site_B_iso_or_equiv
  _atom_site_type_symbol
  Cu1      1.0000 0.29103  0.05196  0.18606  Biso   1.000  Cu
  Cu2      1.0000 0.70897  0.94804  0.81394  Biso   1.000  Cu
  O1       1.0000 0.39560  0.14220  0.05000  Biso   1.000  O
  O2       1.0000 0.60440  0.85780  0.95000  Biso   1.000  O
  C1       1.0000 0.48580  0.07320  0.98180  Biso   1.000  C
  C2       1.0000 0.51420  0.92680  0.01820  Biso   1.000  C
  O3       1.0000 0.55160  0.11140  0.88840  Biso   1.000  O
  O4       1.0000 0.44840  0.88860  0.11160  Biso   1.000  O
  O5       1.0000 0.11920  0.87640  0.00700  Biso   1.000  O
  O6       1.0000 0.88080  0.12360  0.99300  Biso   1.000  O
  C3       1.0000 0.00380  0.91220  0.95260  Biso   1.000  C
  C4       1.0000 0.99620  0.08780  0.04740  Biso   1.000  C
  O7       1.0000 0.89880  0.82170  0.83350  Biso   1.000  O
  O8       1.0000 0.10120  0.17830  0.16650  Biso   1.000  O
  N1       1.0000 0.20950  0.96790  0.33560  Biso   1.000  N
  N2       1.0000 0.79050  0.03210  0.66440  Biso   1.000  N
  C5       1.0000 0.29750  0.05290  0.48070  Biso   1.000  C
  C6       1.0000 0.70250  0.94710  0.51930  Biso   1.000  C
  C7       1.0000 0.25670  0.01040  0.59870  Biso   1.000  C
  C8       1.0000 0.74330  0.98960  0.40130  Biso   1.000  C
  H1       1.0000 0.31820  0.06920  0.70440  Biso   1.000  H
  H2       1.0000 0.68180  0.93080  0.29560  Biso   1.000  H
  C9       1.0000 0.11880  0.87190  0.56210  Biso   1.000  C
  C10      1.0000 0.88120  0.12810  0.43790  Biso   1.000  C
  H3       1.0000 0.09500  0.83800  0.64580  Biso   1.000  H
  H4       1.0000 0.90500  0.16200  0.35420  Biso   1.000  H
  C11      1.0000 0.03000  0.78520  0.41540  Biso   1.000  C
  C12      1.0000 0.97000  0.21480  0.58460  Biso   1.000  C
  H5       1.0000 0.92590  0.68040  0.37740  Biso   1.000  H
  H6       1.0000 0.07410  0.31960  0.62260  Biso   1.000  H
  C13      1.0000 0.07710  0.83580  0.30420  Biso   1.000  C
  C14      1.0000 0.92290  0.16420  0.69580  Biso   1.000  C
  H7       1.0000 0.00860  0.77160  0.18960  Biso   1.000  H
  H8       1.0000 0.99140  0.22840  0.81040  Biso   1.000  H
  N3       1.0000 0.45800  0.22080  0.37700  Biso   1.000  N
  N4       1.0000 0.54200  0.77920  0.62300  Biso   1.000  N
  C15      1.0000 0.44120  0.19600  0.50420  Biso   1.000  C
  C16      1.0000 0.55880  0.80400  0.49580  Biso   1.000  C
  C17      1.0000 0.54990  0.29660  0.64340  Biso   1.000  C
  C18      1.0000 0.45010  0.70340  0.35660  Biso   1.000  C
  H9       1.0000 0.54040  0.27100  0.73020  Biso   1.000  H
  H10      1.0000 0.45960  0.72900  0.26980  Biso   1.000  H
  C19      1.0000 0.68000  0.42820  0.65240  Biso   1.000  C
  C20      1.0000 0.32000  0.57180  0.34760  Biso   1.000  C
  H11      1.0000 0.76460  0.50420  0.75520  Biso   1.000  H
  H12      1.0000 0.23540  0.49580  0.24480  Biso   1.000  H
  C21      1.0000 0.69540  0.45360  0.52140  Biso   1.000  C
  C22      1.0000 0.30460  0.54640  0.47860  Biso   1.000  C
  H13      1.0000 0.78800  0.54680  0.52060  Biso   1.000  H
  H14      1.0000 0.21200  0.45320  0.47940  Biso   1.000  H
  C23      1.0000 0.58410  0.34790  0.38600  Biso   1.000  C
  C24      1.0000 0.41590  0.65210  0.61400  Biso   1.000  C
  H15      1.0000 0.58980  0.35730  0.29240  Biso   1.000  H
  H16      1.0000 0.41020  0.64270  0.70760  Biso   1.000  H
  O9       1.0000 0.34260  0.38940  0.94520  Biso   1.000  O
  O10      1.0000 0.65740  0.61060  0.05480  Biso   1.000  O
  O11      1.0000 0.87490  0.45430  0.05900  Biso   1.000  O
  O12      1.0000 0.12510  0.54570  0.94100  Biso   1.000  O
