data_image0
_cell_length_a       8.209
_cell_length_b       9.1718
_cell_length_c       20.3772
_cell_angle_alpha    90
_cell_angle_beta     90
_cell_angle_gamma    90

_symmetry_space_group_name_H-M    "P 1"
_symmetry_int_tables_number       1

loop_
  _symmetry_equiv_pos_as_xyz
  'x, y, z'

loop_
  _atom_site_label
  _atom_site_occupancy
  _atom_site_fract_x
  _atom_site_fract_y
  _atom_site_fract_z
  _atom_site_thermal_displace_type
  _atom_site_B_iso_or_equiv
  _atom_site_type_symbol
  Cu1      1.0000 0.42844  0.47887  0.50985  Biso   1.000  Cu
  Cu2      1.0000 0.07156  0.52113  0.00985  Biso   1.000  Cu
  Cu3      1.0000 0.92844  0.02113  0.49015  Biso   1.000  Cu
  Cu4      1.0000 0.57156  0.97887  0.99015  Biso   1.000  Cu
  O1       1.0000 0.60710  0.50020  0.56824  Biso   1.000  O
  O2       1.0000 0.89290  0.49980  0.06824  Biso   1.000  O
  O3       1.0000 0.10710  0.99980  0.43176  Biso   1.000  O
  O4       1.0000 0.39290  0.00020  0.93176  Biso   1.000  O
  O5       1.0000 0.81700  0.24560  0.43502  Biso   1.000  O
  O6       1.0000 0.68300  0.75440  0.93502  Biso   1.000  O
  O7       1.0000 0.31700  0.25440  0.56498  Biso   1.000  O
  O8       1.0000 0.18300  0.74560  0.06498  Biso   1.000  O
  N1       1.0000 0.29720  0.61590  0.56145  Biso   1.000  N
  N2       1.0000 0.20280  0.38410  0.06145  Biso   1.000  N
  N3       1.0000 0.79720  0.88410  0.43855  Biso   1.000  N
  N4       1.0000 0.70280  0.11590  0.93855  Biso   1.000  N
  N5       1.0000 0.24510  0.49520  0.44147  Biso   1.000  N
  N6       1.0000 0.25490  0.50480  0.94147  Biso   1.000  N
  N7       1.0000 0.74510  0.00480  0.55853  Biso   1.000  N
  N8       1.0000 0.75490  0.99520  0.05853  Biso   1.000  N
  N9       1.0000 0.56860  0.37460  0.44839  Biso   1.000  N
  N10      1.0000 0.93140  0.62540  0.94839  Biso   1.000  N
  N11      1.0000 0.06860  0.12540  0.55161  Biso   1.000  N
  N12      1.0000 0.43140  0.87460  0.05161  Biso   1.000  N
  C1       1.0000 0.91940  0.58020  0.76249  Biso   1.000  C
  C2       1.0000 0.58060  0.41980  0.26249  Biso   1.000  C
  C3       1.0000 0.41940  0.91980  0.23751  Biso   1.000  C
  C4       1.0000 0.08060  0.08020  0.73751  Biso   1.000  C
  H1       1.0000 0.93080  0.62000  0.80530  Biso   1.000  H
  H2       1.0000 0.56920  0.38000  0.30530  Biso   1.000  H
  H3       1.0000 0.43080  0.88000  0.19470  Biso   1.000  H
  H4       1.0000 0.06920  0.12000  0.69470  Biso   1.000  H
  C5       1.0000 0.04770  0.50910  0.73428  Biso   1.000  C
  C6       1.0000 0.45230  0.49090  0.23428  Biso   1.000  C
  C7       1.0000 0.54770  0.99090  0.26572  Biso   1.000  C
  C8       1.0000 0.95230  0.00910  0.76572  Biso   1.000  C
  H5       1.0000 0.14700  0.49880  0.75780  Biso   1.000  H
  H6       1.0000 0.35300  0.50120  0.25780  Biso   1.000  H
  H7       1.0000 0.64700  0.00120  0.24220  Biso   1.000  H
  H8       1.0000 0.85300  0.99880  0.74220  Biso   1.000  H
  C9       1.0000 0.03380  0.45090  0.67067  Biso   1.000  C
  C10      1.0000 0.46620  0.54910  0.17067  Biso   1.000  C
  C11      1.0000 0.53380  0.04910  0.32933  Biso   1.000  C
  C12      1.0000 0.96620  0.95090  0.82933  Biso   1.000  C
  H9       1.0000 0.12370  0.40220  0.65110  Biso   1.000  H
  H10      1.0000 0.37630  0.59780  0.15110  Biso   1.000  H
  H11      1.0000 0.62370  0.09780  0.34890  Biso   1.000  H
  H12      1.0000 0.87630  0.90220  0.84890  Biso   1.000  H
  C13      1.0000 0.88990  0.46460  0.63693  Biso   1.000  C
  C14      1.0000 0.61010  0.53540  0.13693  Biso   1.000  C
  C15      1.0000 0.38990  0.03540  0.36307  Biso   1.000  C
  C16      1.0000 0.11010  0.96460  0.86307  Biso   1.000  C
  H13      1.0000 0.88080  0.42440  0.59410  Biso   1.000  H
  H14      1.0000 0.61920  0.57560  0.09410  Biso   1.000  H
  H15      1.0000 0.38080  0.07560  0.40590  Biso   1.000  H
  H16      1.0000 0.11920  0.92440  0.90590  Biso   1.000  H
  C17      1.0000 0.75640  0.53680  0.66465  Biso   1.000  C
  C18      1.0000 0.74360  0.46320  0.16465  Biso   1.000  C
  C19      1.0000 0.25640  0.96320  0.33535  Biso   1.000  C
  C20      1.0000 0.24360  0.03680  0.83535  Biso   1.000  C
  C21      1.0000 0.60710  0.55570  0.62702  Biso   1.000  C
  C22      1.0000 0.89290  0.44430  0.12702  Biso   1.000  C
  C23      1.0000 0.10710  0.94430  0.37298  Biso   1.000  C
  C24      1.0000 0.39290  0.05570  0.87298  Biso   1.000  C
  C25      1.0000 0.47980  0.63820  0.65416  Biso   1.000  C
  C26      1.0000 0.02020  0.36180  0.15416  Biso   1.000  C
  C27      1.0000 0.97980  0.86180  0.34584  Biso   1.000  C
  C28      1.0000 0.52020  0.13820  0.84584  Biso   1.000  C
  C29      1.0000 0.49680  0.69000  0.72017  Biso   1.000  C
  C30      1.0000 0.00320  0.31000  0.22017  Biso   1.000  C
  C31      1.0000 0.99680  0.81000  0.27983  Biso   1.000  C
  C32      1.0000 0.50320  0.19000  0.77983  Biso   1.000  C
  H17      1.0000 0.40780  0.74020  0.73960  Biso   1.000  H
  H18      1.0000 0.09220  0.25980  0.23960  Biso   1.000  H
  H19      1.0000 0.90780  0.75980  0.26040  Biso   1.000  H
  H20      1.0000 0.59220  0.24020  0.76040  Biso   1.000  H
  C33      1.0000 0.63290  0.67100  0.75588  Biso   1.000  C
  C34      1.0000 0.86710  0.32900  0.25588  Biso   1.000  C
  C35      1.0000 0.13290  0.82900  0.24412  Biso   1.000  C
  C36      1.0000 0.36710  0.17100  0.74412  Biso   1.000  C
  H21      1.0000 0.63830  0.70800  0.79940  Biso   1.000  H
  H22      1.0000 0.86170  0.29200  0.29940  Biso   1.000  H
  H23      1.0000 0.13830  0.79200  0.20060  Biso   1.000  H
  H24      1.0000 0.36170  0.20800  0.70060  Biso   1.000  H
  C37      1.0000 0.76970  0.59530  0.72876  Biso   1.000  C
  C38      1.0000 0.73030  0.40470  0.22876  Biso   1.000  C
  C39      1.0000 0.26970  0.90470  0.27124  Biso   1.000  C
  C40      1.0000 0.23030  0.09530  0.77124  Biso   1.000  C
  C41      1.0000 0.33640  0.67900  0.61648  Biso   1.000  C
  C42      1.0000 0.16360  0.32100  0.11648  Biso   1.000  C
  C43      1.0000 0.83640  0.82100  0.38352  Biso   1.000  C
  C44      1.0000 0.66360  0.17900  0.88352  Biso   1.000  C
  C45      1.0000 0.23460  0.80440  0.64172  Biso   1.000  C
  C46      1.0000 0.26540  0.19560  0.14172  Biso   1.000  C
  C47      1.0000 0.73460  0.69560  0.35828  Biso   1.000  C
  C48      1.0000 0.76540  0.30440  0.85828  Biso   1.000  C
  H25      1.0000 0.13990  0.76620  0.66540  Biso   1.000  H
  H26      1.0000 0.36010  0.23380  0.16540  Biso   1.000  H
  H27      1.0000 0.63990  0.73380  0.33460  Biso   1.000  H
  H28      1.0000 0.86010  0.26620  0.83460  Biso   1.000  H
  H29      1.0000 0.19760  0.86400  0.60470  Biso   1.000  H
  H30      1.0000 0.30240  0.13600  0.10470  Biso   1.000  H
  H31      1.0000 0.69760  0.63600  0.39530  Biso   1.000  H
  H32      1.0000 0.80240  0.36400  0.89530  Biso   1.000  H
  H33      1.0000 0.30030  0.86440  0.67140  Biso   1.000  H
  H34      1.0000 0.19970  0.13560  0.17140  Biso   1.000  H
  H35      1.0000 0.80030  0.63560  0.32860  Biso   1.000  H
  H36      1.0000 0.69970  0.36440  0.82860  Biso   1.000  H
  C49      1.0000 0.14670  0.65930  0.52750  Biso   1.000  C
  C50      1.0000 0.35330  0.34070  0.02750  Biso   1.000  C
  C51      1.0000 0.64670  0.84070  0.47250  Biso   1.000  C
  C52      1.0000 0.85330  0.15930  0.97250  Biso   1.000  C
  H37      1.0000 0.16400  0.75190  0.50350  Biso   1.000  H
  H38      1.0000 0.33600  0.24810  0.00350  Biso   1.000  H
  H39      1.0000 0.66400  0.74810  0.49650  Biso   1.000  H
  H40      1.0000 0.83600  0.25190  0.99650  Biso   1.000  H
  H41      1.0000 0.05780  0.67400  0.55970  Biso   1.000  H
  H42      1.0000 0.44220  0.32600  0.05970  Biso   1.000  H
  H43      1.0000 0.55780  0.82600  0.44030  Biso   1.000  H
  H44      1.0000 0.94220  0.17400  0.94030  Biso   1.000  H
  C53      1.0000 0.10160  0.53890  0.47988  Biso   1.000  C
  C54      1.0000 0.39840  0.46110  0.97988  Biso   1.000  C
  C55      1.0000 0.60160  0.96110  0.52012  Biso   1.000  C
  C56      1.0000 0.89840  0.03890  0.02012  Biso   1.000  C
  H45      1.0000 0.05930  0.45390  0.50440  Biso   1.000  H
  H46      1.0000 0.44070  0.54610  0.00440  Biso   1.000  H
  H47      1.0000 0.55930  0.04610  0.49560  Biso   1.000  H
  H48      1.0000 0.94070  0.95390  0.99560  Biso   1.000  H
  H49      1.0000 0.01490  0.57350  0.45000  Biso   1.000  H
  H50      1.0000 0.48510  0.42650  0.95000  Biso   1.000  H
  H51      1.0000 0.51490  0.92650  0.55000  Biso   1.000  H
  H52      1.0000 0.98510  0.07350  0.05000  Biso   1.000  H
  C57      1.0000 0.29360  0.60940  0.39450  Biso   1.000  C
  C58      1.0000 0.20640  0.39060  0.89450  Biso   1.000  C
  C59      1.0000 0.79360  0.89060  0.60550  Biso   1.000  C
  C60      1.0000 0.70640  0.10940  0.10550  Biso   1.000  C
  H53      1.0000 0.31240  0.70100  0.41810  Biso   1.000  H
  H54      1.0000 0.18760  0.29900  0.91810  Biso   1.000  H
  H55      1.0000 0.81240  0.79900  0.58190  Biso   1.000  H
  H56      1.0000 0.68760  0.20100  0.08190  Biso   1.000  H
  H57      1.0000 0.20680  0.62320  0.36210  Biso   1.000  H
  H58      1.0000 0.29320  0.37680  0.86210  Biso   1.000  H
  H59      1.0000 0.70680  0.87680  0.63790  Biso   1.000  H
  H60      1.0000 0.79320  0.12320  0.13790  Biso   1.000  H
  H61      1.0000 0.39400  0.57980  0.37210  Biso   1.000  H
  H62      1.0000 0.10600  0.42020  0.87210  Biso   1.000  H
  H63      1.0000 0.89400  0.92020  0.62790  Biso   1.000  H
  H64      1.0000 0.60600  0.07980  0.12790  Biso   1.000  H
  C61      1.0000 0.20750  0.36100  0.40390  Biso   1.000  C
  C62      1.0000 0.29250  0.63900  0.90390  Biso   1.000  C
  C63      1.0000 0.70750  0.13900  0.59610  Biso   1.000  C
  C64      1.0000 0.79250  0.86100  0.09610  Biso   1.000  C
  H65      1.0000 0.30370  0.33140  0.37870  Biso   1.000  H
  H66      1.0000 0.19630  0.66860  0.87870  Biso   1.000  H
  H67      1.0000 0.80370  0.16860  0.62130  Biso   1.000  H
  H68      1.0000 0.69630  0.83140  0.12130  Biso   1.000  H
  H69      1.0000 0.11690  0.38010  0.37380  Biso   1.000  H
  H70      1.0000 0.38310  0.61990  0.87380  Biso   1.000  H
  H71      1.0000 0.61690  0.11990  0.62620  Biso   1.000  H
  H72      1.0000 0.88310  0.88010  0.12620  Biso   1.000  H
  H73      1.0000 0.17720  0.28290  0.43430  Biso   1.000  H
  H74      1.0000 0.32280  0.71710  0.93430  Biso   1.000  H
  H75      1.0000 0.67720  0.21710  0.56570  Biso   1.000  H
  H76      1.0000 0.82280  0.78290  0.06570  Biso   1.000  H
  C65      1.0000 0.69240  0.31200  0.44349  Biso   1.000  C
  C66      1.0000 0.80760  0.68800  0.94349  Biso   1.000  C
  C67      1.0000 0.19240  0.18800  0.55651  Biso   1.000  C
  C68      1.0000 0.30760  0.81200  0.05651  Biso   1.000  C
