data_image0
_cell_length_a       12.413
_cell_length_b       14.645
_cell_length_c       12.287
_cell_angle_alpha    90
_cell_angle_beta     90
_cell_angle_gamma    90

_symmetry_space_group_name_H-M    "P 1"
_symmetry_int_tables_number       1

loop_
  _symmetry_equiv_pos_as_xyz
  'x, y, z'

loop_
  _atom_site_label
  _atom_site_occupancy
  _atom_site_fract_x
  _atom_site_fract_y
  _atom_site_fract_z
  _atom_site_thermal_displace_type
  _atom_site_B_iso_or_equiv
  _atom_site_type_symbol
  Cu1      1.0000 0.00000  0.19151  0.25000  Biso   1.000  Cu
  Cu2      1.0000 0.50000  0.69151  0.25000  Biso   1.000  Cu
  Cu3      1.0000 0.00000  0.80849  0.75000  Biso   1.000  Cu
  Cu4      1.0000 0.50000  0.30849  0.75000  Biso   1.000  Cu
  Cl1      1.0000 0.29770  0.18700  0.19910  Biso   1.000  Cl
  Cl2      1.0000 0.20230  0.68700  0.19910  Biso   1.000  Cl
  Cl3      1.0000 0.29770  0.81300  0.69910  Biso   1.000  Cl
  Cl4      1.0000 0.20230  0.31300  0.69910  Biso   1.000  Cl
  Cl5      1.0000 0.70230  0.81300  0.80090  Biso   1.000  Cl
  Cl6      1.0000 0.79770  0.31300  0.80090  Biso   1.000  Cl
  Cl7      1.0000 0.70230  0.18700  0.30090  Biso   1.000  Cl
  Cl8      1.0000 0.79770  0.68700  0.30090  Biso   1.000  Cl
  O1       1.0000 0.18830  0.18340  0.17490  Biso   1.000  O
  O2       1.0000 0.31170  0.68340  0.17490  Biso   1.000  O
  O3       1.0000 0.18830  0.81660  0.67490  Biso   1.000  O
  O4       1.0000 0.31170  0.31660  0.67490  Biso   1.000  O
  O5       1.0000 0.81170  0.81660  0.82510  Biso   1.000  O
  O6       1.0000 0.68830  0.31660  0.82510  Biso   1.000  O
  O7       1.0000 0.81170  0.18340  0.32510  Biso   1.000  O
  O8       1.0000 0.68830  0.68340  0.32510  Biso   1.000  O
  O9       1.0000 0.33910  0.10000  0.19540  Biso   1.000  O
  O10      1.0000 0.16090  0.60000  0.19540  Biso   1.000  O
  O11      1.0000 0.33910  0.90000  0.69540  Biso   1.000  O
  O12      1.0000 0.16090  0.40000  0.69540  Biso   1.000  O
  O13      1.0000 0.66090  0.90000  0.80460  Biso   1.000  O
  O14      1.0000 0.83910  0.40000  0.80460  Biso   1.000  O
  O15      1.0000 0.66090  0.10000  0.30460  Biso   1.000  O
  O16      1.0000 0.83910  0.60000  0.30460  Biso   1.000  O
  O17      1.0000 0.34660  0.24310  0.12810  Biso   1.000  O
  O18      1.0000 0.15340  0.74310  0.12810  Biso   1.000  O
  O19      1.0000 0.34660  0.75690  0.62810  Biso   1.000  O
  O20      1.0000 0.15340  0.25690  0.62810  Biso   1.000  O
  O21      1.0000 0.65340  0.75690  0.87190  Biso   1.000  O
  O22      1.0000 0.84660  0.25690  0.87190  Biso   1.000  O
  O23      1.0000 0.65340  0.24310  0.37190  Biso   1.000  O
  O24      1.0000 0.84660  0.74310  0.37190  Biso   1.000  O
  O25      1.0000 0.30000  0.22090  0.30940  Biso   1.000  O
  O26      1.0000 0.20000  0.72090  0.30940  Biso   1.000  O
  O27      1.0000 0.30000  0.77910  0.80940  Biso   1.000  O
  O28      1.0000 0.20000  0.27910  0.80940  Biso   1.000  O
  O29      1.0000 0.70000  0.77910  0.69060  Biso   1.000  O
  O30      1.0000 0.80000  0.27910  0.69060  Biso   1.000  O
  O31      1.0000 0.70000  0.22090  0.19060  Biso   1.000  O
  O32      1.0000 0.80000  0.72090  0.19060  Biso   1.000  O
  N1       1.0000 0.05240  0.08920  0.34280  Biso   1.000  N
  N2       1.0000 0.44760  0.58920  0.34280  Biso   1.000  N
  N3       1.0000 0.05240  0.91080  0.84280  Biso   1.000  N
  N4       1.0000 0.44760  0.41080  0.84280  Biso   1.000  N
  N5       1.0000 0.94760  0.91080  0.65720  Biso   1.000  N
  N6       1.0000 0.55240  0.41080  0.65720  Biso   1.000  N
  N7       1.0000 0.94760  0.08920  0.15720  Biso   1.000  N
  N8       1.0000 0.55240  0.58920  0.15720  Biso   1.000  N
  N9       1.0000 0.02790  0.29100  0.36000  Biso   1.000  N
  N10      1.0000 0.47210  0.79100  0.36000  Biso   1.000  N
  N11      1.0000 0.02790  0.70900  0.86000  Biso   1.000  N
  N12      1.0000 0.47210  0.20900  0.86000  Biso   1.000  N
  N13      1.0000 0.97210  0.70900  0.64000  Biso   1.000  N
  N14      1.0000 0.52790  0.20900  0.64000  Biso   1.000  N
  N15      1.0000 0.97210  0.29100  0.14000  Biso   1.000  N
  N16      1.0000 0.52790  0.79100  0.14000  Biso   1.000  N
  C1       1.0000 0.03580  0.00580  0.30180  Biso   1.000  C
  C2       1.0000 0.46420  0.50580  0.30180  Biso   1.000  C
  C3       1.0000 0.03580  0.99420  0.80180  Biso   1.000  C
  C4       1.0000 0.46420  0.49420  0.80180  Biso   1.000  C
  C5       1.0000 0.96420  0.99420  0.69820  Biso   1.000  C
  C6       1.0000 0.53580  0.49420  0.69820  Biso   1.000  C
  C7       1.0000 0.96420  0.00580  0.19820  Biso   1.000  C
  C8       1.0000 0.53580  0.50580  0.19820  Biso   1.000  C
  C9       1.0000 0.08010  0.92710  0.34430  Biso   1.000  C
  C10      1.0000 0.41990  0.42710  0.34430  Biso   1.000  C
  C11      1.0000 0.08010  0.07290  0.84430  Biso   1.000  C
  C12      1.0000 0.41990  0.57290  0.84430  Biso   1.000  C
  C13      1.0000 0.91990  0.07290  0.65570  Biso   1.000  C
  C14      1.0000 0.58010  0.57290  0.65570  Biso   1.000  C
  C15      1.0000 0.91990  0.92710  0.15570  Biso   1.000  C
  C16      1.0000 0.58010  0.42710  0.15570  Biso   1.000  C
  C17      1.0000 0.14280  0.93620  0.43520  Biso   1.000  C
  C18      1.0000 0.35720  0.43620  0.43520  Biso   1.000  C
  C19      1.0000 0.14280  0.06380  0.93520  Biso   1.000  C
  C20      1.0000 0.35720  0.56380  0.93520  Biso   1.000  C
  C21      1.0000 0.85720  0.06380  0.56480  Biso   1.000  C
  C22      1.0000 0.64280  0.56380  0.56480  Biso   1.000  C
  C23      1.0000 0.85720  0.93620  0.06480  Biso   1.000  C
  C24      1.0000 0.64280  0.43620  0.06480  Biso   1.000  C
  C25      1.0000 0.15890  0.02030  0.48150  Biso   1.000  C
  C26      1.0000 0.34110  0.52030  0.48150  Biso   1.000  C
  C27      1.0000 0.15890  0.97970  0.98150  Biso   1.000  C
  C28      1.0000 0.34110  0.47970  0.98150  Biso   1.000  C
  C29      1.0000 0.84110  0.97970  0.51850  Biso   1.000  C
  C30      1.0000 0.65890  0.47970  0.51850  Biso   1.000  C
  C31      1.0000 0.84110  0.02030  0.01850  Biso   1.000  C
  C32      1.0000 0.65890  0.52030  0.01850  Biso   1.000  C
  C33      1.0000 0.11250  0.09620  0.43240  Biso   1.000  C
  C34      1.0000 0.38750  0.59620  0.43240  Biso   1.000  C
  C35      1.0000 0.11250  0.90380  0.93240  Biso   1.000  C
  C36      1.0000 0.38750  0.40380  0.93240  Biso   1.000  C
  C37      1.0000 0.88750  0.90380  0.56760  Biso   1.000  C
  C38      1.0000 0.61250  0.40380  0.56760  Biso   1.000  C
  C39      1.0000 0.88750  0.09620  0.06760  Biso   1.000  C
  C40      1.0000 0.61250  0.59620  0.06760  Biso   1.000  C
  C41      1.0000 0.08900  0.36330  0.33330  Biso   1.000  C
  C42      1.0000 0.41100  0.86330  0.33330  Biso   1.000  C
  C43      1.0000 0.08900  0.63670  0.83330  Biso   1.000  C
  C44      1.0000 0.41100  0.13670  0.83330  Biso   1.000  C
  C45      1.0000 0.91100  0.63670  0.66670  Biso   1.000  C
  C46      1.0000 0.58900  0.13670  0.66670  Biso   1.000  C
  C47      1.0000 0.91100  0.36330  0.16670  Biso   1.000  C
  C48      1.0000 0.58900  0.86330  0.16670  Biso   1.000  C
  C49      1.0000 0.07980  0.44640  0.38650  Biso   1.000  C
  C50      1.0000 0.42020  0.94640  0.38650  Biso   1.000  C
  C51      1.0000 0.07980  0.55360  0.88650  Biso   1.000  C
  C52      1.0000 0.42020  0.05360  0.88650  Biso   1.000  C
  C53      1.0000 0.92020  0.55360  0.61350  Biso   1.000  C
  C54      1.0000 0.57980  0.05360  0.61350  Biso   1.000  C
  C55      1.0000 0.92020  0.44640  0.11350  Biso   1.000  C
  C56      1.0000 0.57980  0.94640  0.11350  Biso   1.000  C
  C57      1.0000 0.00720  0.45560  0.47230  Biso   1.000  C
  C58      1.0000 0.49280  0.95560  0.47230  Biso   1.000  C
  C59      1.0000 0.00720  0.54440  0.97230  Biso   1.000  C
  C60      1.0000 0.49280  0.04440  0.97230  Biso   1.000  C
  C61      1.0000 0.99280  0.54440  0.52770  Biso   1.000  C
  C62      1.0000 0.50720  0.04440  0.52770  Biso   1.000  C
  C63      1.0000 0.99280  0.45560  0.02770  Biso   1.000  C
  C64      1.0000 0.50720  0.95560  0.02770  Biso   1.000  C
  C65      1.0000 0.95040  0.37820  0.50350  Biso   1.000  C
  C66      1.0000 0.54960  0.87820  0.50350  Biso   1.000  C
  C67      1.0000 0.95040  0.62180  0.00350  Biso   1.000  C
  C68      1.0000 0.54960  0.12180  0.00350  Biso   1.000  C
  C69      1.0000 0.04960  0.62180  0.49650  Biso   1.000  C
  C70      1.0000 0.45040  0.12180  0.49650  Biso   1.000  C
  C71      1.0000 0.04960  0.37820  0.99650  Biso   1.000  C
  C72      1.0000 0.45040  0.87820  0.99650  Biso   1.000  C
  C73      1.0000 0.96280  0.29870  0.44490  Biso   1.000  C
  C74      1.0000 0.53720  0.79870  0.44490  Biso   1.000  C
  C75      1.0000 0.96280  0.70130  0.94490  Biso   1.000  C
  C76      1.0000 0.53720  0.20130  0.94490  Biso   1.000  C
  C77      1.0000 0.03720  0.70130  0.55510  Biso   1.000  C
  C78      1.0000 0.46280  0.20130  0.55510  Biso   1.000  C
  C79      1.0000 0.03720  0.29870  0.05510  Biso   1.000  C
  C80      1.0000 0.46280  0.79870  0.05510  Biso   1.000  C
  H1       1.0000 0.06880  0.86540  0.32400  Biso   1.000  H
  H2       1.0000 0.43120  0.36540  0.32400  Biso   1.000  H
  H3       1.0000 0.06880  0.13460  0.82400  Biso   1.000  H
  H4       1.0000 0.43120  0.63460  0.82400  Biso   1.000  H
  H5       1.0000 0.93120  0.13460  0.67600  Biso   1.000  H
  H6       1.0000 0.56880  0.63460  0.67600  Biso   1.000  H
  H7       1.0000 0.93120  0.86540  0.17600  Biso   1.000  H
  H8       1.0000 0.56880  0.36540  0.17600  Biso   1.000  H
  H9       1.0000 0.17730  0.88090  0.46960  Biso   1.000  H
  H10      1.0000 0.32270  0.38090  0.46960  Biso   1.000  H
  H11      1.0000 0.17730  0.11910  0.96960  Biso   1.000  H
  H12      1.0000 0.32270  0.61910  0.96960  Biso   1.000  H
  H13      1.0000 0.82270  0.11910  0.53040  Biso   1.000  H
  H14      1.0000 0.67730  0.61910  0.53040  Biso   1.000  H
  H15      1.0000 0.82270  0.88090  0.03040  Biso   1.000  H
  H16      1.0000 0.67730  0.38090  0.03040  Biso   1.000  H
  H17      1.0000 0.20280  0.02620  0.55090  Biso   1.000  H
  H18      1.0000 0.29720  0.52620  0.55090  Biso   1.000  H
  H19      1.0000 0.20280  0.97380  0.05090  Biso   1.000  H
  H20      1.0000 0.29720  0.47380  0.05090  Biso   1.000  H
  H21      1.0000 0.79720  0.97380  0.44910  Biso   1.000  H
  H22      1.0000 0.70280  0.47380  0.44910  Biso   1.000  H
  H23      1.0000 0.79720  0.02620  0.94910  Biso   1.000  H
  H24      1.0000 0.70280  0.52620  0.94910  Biso   1.000  H
  H25      1.0000 0.12590  0.15940  0.46580  Biso   1.000  H
  H26      1.0000 0.37410  0.65940  0.46580  Biso   1.000  H
  H27      1.0000 0.12590  0.84060  0.96580  Biso   1.000  H
  H28      1.0000 0.37410  0.34060  0.96580  Biso   1.000  H
  H29      1.0000 0.87410  0.84060  0.53420  Biso   1.000  H
  H30      1.0000 0.62590  0.34060  0.53420  Biso   1.000  H
  H31      1.0000 0.87410  0.15940  0.03420  Biso   1.000  H
  H32      1.0000 0.62590  0.65940  0.03420  Biso   1.000  H
  H33      1.0000 0.14360  0.35680  0.27080  Biso   1.000  H
  H34      1.0000 0.35640  0.85680  0.27080  Biso   1.000  H
  H35      1.0000 0.14360  0.64320  0.77080  Biso   1.000  H
  H36      1.0000 0.35640  0.14320  0.77080  Biso   1.000  H
  H37      1.0000 0.85640  0.64320  0.72920  Biso   1.000  H
  H38      1.0000 0.64360  0.14320  0.72920  Biso   1.000  H
  H39      1.0000 0.85640  0.35680  0.22920  Biso   1.000  H
  H40      1.0000 0.64360  0.85680  0.22920  Biso   1.000  H
  H41      1.0000 0.12590  0.50020  0.36410  Biso   1.000  H
  H42      1.0000 0.37410  0.00020  0.36410  Biso   1.000  H
  H43      1.0000 0.12590  0.49980  0.86410  Biso   1.000  H
  H44      1.0000 0.37410  0.99980  0.86410  Biso   1.000  H
  H45      1.0000 0.87410  0.49980  0.63590  Biso   1.000  H
  H46      1.0000 0.62590  0.99980  0.63590  Biso   1.000  H
  H47      1.0000 0.87410  0.50020  0.13590  Biso   1.000  H
  H48      1.0000 0.62590  0.00020  0.13590  Biso   1.000  H
  H49      1.0000 0.90000  0.38030  0.56890  Biso   1.000  H
  H50      1.0000 0.60000  0.88030  0.56890  Biso   1.000  H
  H51      1.0000 0.90000  0.61970  0.06890  Biso   1.000  H
  H52      1.0000 0.60000  0.11970  0.06890  Biso   1.000  H
  H53      1.0000 0.10000  0.61970  0.43110  Biso   1.000  H
  H54      1.0000 0.40000  0.11970  0.43110  Biso   1.000  H
  H55      1.0000 0.10000  0.38030  0.93110  Biso   1.000  H
  H56      1.0000 0.40000  0.88030  0.93110  Biso   1.000  H
  H57      1.0000 0.91890  0.24350  0.46810  Biso   1.000  H
  H58      1.0000 0.58110  0.74350  0.46810  Biso   1.000  H
  H59      1.0000 0.91890  0.75650  0.96810  Biso   1.000  H
  H60      1.0000 0.58110  0.25650  0.96810  Biso   1.000  H
  H61      1.0000 0.08110  0.75650  0.53190  Biso   1.000  H
  H62      1.0000 0.41890  0.25650  0.53190  Biso   1.000  H
  H63      1.0000 0.08110  0.24350  0.03190  Biso   1.000  H
  H64      1.0000 0.41890  0.74350  0.03190  Biso   1.000  H
