data_image0
_cell_length_a       12.421
_cell_length_b       14.66
_cell_length_c       12.285
_cell_angle_alpha    90
_cell_angle_beta     90
_cell_angle_gamma    90

_symmetry_space_group_name_H-M    "P 1"
_symmetry_int_tables_number       1

loop_
  _symmetry_equiv_pos_as_xyz
  'x, y, z'

loop_
  _atom_site_label
  _atom_site_occupancy
  _atom_site_fract_x
  _atom_site_fract_y
  _atom_site_fract_z
  _atom_site_thermal_displace_type
  _atom_site_B_iso_or_equiv
  _atom_site_type_symbol
  Cu1      1.0000 0.00000  0.30841  0.25000  Biso   1.000  Cu
  Cu2      1.0000 0.50000  0.80841  0.25000  Biso   1.000  Cu
  Cu3      1.0000 0.00000  0.69159  0.75000  Biso   1.000  Cu
  Cu4      1.0000 0.50000  0.19159  0.75000  Biso   1.000  Cu
  Cl1      1.0000 0.29774  0.31302  0.19920  Biso   1.000  Cl
  Cl2      1.0000 0.79774  0.81302  0.30080  Biso   1.000  Cl
  Cl3      1.0000 0.29774  0.68698  0.69920  Biso   1.000  Cl
  Cl4      1.0000 0.20226  0.81302  0.19920  Biso   1.000  Cl
  Cl5      1.0000 0.70226  0.68698  0.80080  Biso   1.000  Cl
  Cl6      1.0000 0.20226  0.18698  0.69920  Biso   1.000  Cl
  Cl7      1.0000 0.70226  0.31302  0.30080  Biso   1.000  Cl
  Cl8      1.0000 0.79774  0.18698  0.80080  Biso   1.000  Cl
  O1       1.0000 0.18750  0.31840  0.17570  Biso   1.000  O
  O2       1.0000 0.68750  0.81840  0.32430  Biso   1.000  O
  O3       1.0000 0.18750  0.68160  0.67570  Biso   1.000  O
  O4       1.0000 0.31250  0.81840  0.17570  Biso   1.000  O
  O5       1.0000 0.81250  0.68160  0.82430  Biso   1.000  O
  O6       1.0000 0.31250  0.18160  0.67570  Biso   1.000  O
  O7       1.0000 0.81250  0.31840  0.32430  Biso   1.000  O
  O8       1.0000 0.68750  0.18160  0.82430  Biso   1.000  O
  O9       1.0000 0.34720  0.25640  0.12920  Biso   1.000  O
  O10      1.0000 0.84720  0.75640  0.37080  Biso   1.000  O
  O11      1.0000 0.34720  0.74360  0.62920  Biso   1.000  O
  O12      1.0000 0.15280  0.75640  0.12920  Biso   1.000  O
  O13      1.0000 0.65280  0.74360  0.87080  Biso   1.000  O
  O14      1.0000 0.15280  0.24360  0.62920  Biso   1.000  O
  O15      1.0000 0.65280  0.25640  0.37080  Biso   1.000  O
  O16      1.0000 0.84720  0.24360  0.87080  Biso   1.000  O
  O17      1.0000 0.30110  0.27950  0.30880  Biso   1.000  O
  O18      1.0000 0.80110  0.77950  0.19120  Biso   1.000  O
  O19      1.0000 0.30110  0.72050  0.80880  Biso   1.000  O
  O20      1.0000 0.19890  0.77950  0.30880  Biso   1.000  O
  O21      1.0000 0.69890  0.72050  0.69120  Biso   1.000  O
  O22      1.0000 0.19890  0.22050  0.80880  Biso   1.000  O
  O23      1.0000 0.69890  0.27950  0.19120  Biso   1.000  O
  O24      1.0000 0.80110  0.22050  0.69120  Biso   1.000  O
  O25      1.0000 0.33880  0.40040  0.19540  Biso   1.000  O
  O26      1.0000 0.83880  0.90040  0.30460  Biso   1.000  O
  O27      1.0000 0.33880  0.59960  0.69540  Biso   1.000  O
  O28      1.0000 0.16120  0.90040  0.19540  Biso   1.000  O
  O29      1.0000 0.66120  0.59960  0.80460  Biso   1.000  O
  O30      1.0000 0.16120  0.09960  0.69540  Biso   1.000  O
  O31      1.0000 0.66120  0.40040  0.30460  Biso   1.000  O
  O32      1.0000 0.83880  0.09960  0.80460  Biso   1.000  O
  N1       1.0000 0.94790  0.41140  0.15720  Biso   1.000  N
  N2       1.0000 0.44790  0.91140  0.34280  Biso   1.000  N
  N3       1.0000 0.94790  0.58860  0.65720  Biso   1.000  N
  N4       1.0000 0.55210  0.91140  0.15720  Biso   1.000  N
  N5       1.0000 0.05210  0.58860  0.84280  Biso   1.000  N
  N6       1.0000 0.55210  0.08860  0.65720  Biso   1.000  N
  N7       1.0000 0.05210  0.41140  0.34280  Biso   1.000  N
  N8       1.0000 0.44790  0.08860  0.84280  Biso   1.000  N
  N9       1.0000 0.97240  0.20950  0.14030  Biso   1.000  N
  N10      1.0000 0.47240  0.70950  0.35970  Biso   1.000  N
  N11      1.0000 0.97240  0.79050  0.64030  Biso   1.000  N
  N12      1.0000 0.52760  0.70950  0.14030  Biso   1.000  N
  N13      1.0000 0.02760  0.79050  0.85970  Biso   1.000  N
  N14      1.0000 0.52760  0.29050  0.64030  Biso   1.000  N
  N15      1.0000 0.02760  0.20950  0.35970  Biso   1.000  N
  N16      1.0000 0.47240  0.29050  0.85970  Biso   1.000  N
  C1       1.0000 0.88790  0.40450  0.06790  Biso   1.000  C
  C2       1.0000 0.38790  0.90450  0.43210  Biso   1.000  C
  C3       1.0000 0.88790  0.59550  0.56790  Biso   1.000  C
  C4       1.0000 0.61210  0.90450  0.06790  Biso   1.000  C
  C5       1.0000 0.11210  0.59550  0.93210  Biso   1.000  C
  C6       1.0000 0.61210  0.09550  0.56790  Biso   1.000  C
  C7       1.0000 0.11210  0.40450  0.43210  Biso   1.000  C
  C8       1.0000 0.38790  0.09550  0.93210  Biso   1.000  C
  H1       1.0000 0.87720  0.34710  0.03750  Biso   1.000  H
  H2       1.0000 0.37720  0.84710  0.46250  Biso   1.000  H
  H3       1.0000 0.87720  0.65290  0.53750  Biso   1.000  H
  H4       1.0000 0.62280  0.84710  0.03750  Biso   1.000  H
  H5       1.0000 0.12280  0.65290  0.96250  Biso   1.000  H
  H6       1.0000 0.62280  0.15290  0.53750  Biso   1.000  H
  H7       1.0000 0.12280  0.34710  0.46250  Biso   1.000  H
  H8       1.0000 0.37720  0.15290  0.96250  Biso   1.000  H
  C9       1.0000 0.84080  0.47940  0.01810  Biso   1.000  C
  C10      1.0000 0.34080  0.97940  0.48190  Biso   1.000  C
  C11      1.0000 0.84080  0.52060  0.51810  Biso   1.000  C
  C12      1.0000 0.65920  0.97940  0.01810  Biso   1.000  C
  C13      1.0000 0.15920  0.52060  0.98190  Biso   1.000  C
  C14      1.0000 0.65920  0.02060  0.51810  Biso   1.000  C
  C15      1.0000 0.15920  0.47940  0.48190  Biso   1.000  C
  C16      1.0000 0.34080  0.02060  0.98190  Biso   1.000  C
  H9       1.0000 0.79950  0.47310  0.95540  Biso   1.000  H
  H10      1.0000 0.29950  0.97310  0.54460  Biso   1.000  H
  H11      1.0000 0.79950  0.52690  0.45540  Biso   1.000  H
  H12      1.0000 0.70050  0.97310  0.95540  Biso   1.000  H
  H13      1.0000 0.20050  0.52690  0.04460  Biso   1.000  H
  H14      1.0000 0.70050  0.02690  0.45540  Biso   1.000  H
  H15      1.0000 0.20050  0.47310  0.54460  Biso   1.000  H
  H16      1.0000 0.29950  0.02690  0.04460  Biso   1.000  H
  C17      1.0000 0.85750  0.56400  0.06530  Biso   1.000  C
  C18      1.0000 0.35750  0.06400  0.43470  Biso   1.000  C
  C19      1.0000 0.85750  0.43600  0.56530  Biso   1.000  C
  C20      1.0000 0.64250  0.06400  0.06530  Biso   1.000  C
  C21      1.0000 0.14250  0.43600  0.93470  Biso   1.000  C
  C22      1.0000 0.64250  0.93600  0.56530  Biso   1.000  C
  C23      1.0000 0.14250  0.56400  0.43470  Biso   1.000  C
  C24      1.0000 0.35750  0.93600  0.93470  Biso   1.000  C
  H17      1.0000 0.82590  0.61560  0.03490  Biso   1.000  H
  H18      1.0000 0.32590  0.11560  0.46510  Biso   1.000  H
  H19      1.0000 0.82590  0.38440  0.53490  Biso   1.000  H
  H20      1.0000 0.67410  0.11560  0.03490  Biso   1.000  H
  H21      1.0000 0.17410  0.38440  0.96510  Biso   1.000  H
  H22      1.0000 0.67410  0.88440  0.53490  Biso   1.000  H
  H23      1.0000 0.17410  0.61560  0.46510  Biso   1.000  H
  H24      1.0000 0.32590  0.88440  0.96510  Biso   1.000  H
  C25      1.0000 0.92050  0.57220  0.15660  Biso   1.000  C
  C26      1.0000 0.42050  0.07220  0.34340  Biso   1.000  C
  C27      1.0000 0.92050  0.42780  0.65660  Biso   1.000  C
  C28      1.0000 0.57950  0.07220  0.15660  Biso   1.000  C
  C29      1.0000 0.07950  0.42780  0.84340  Biso   1.000  C
  C30      1.0000 0.57950  0.92780  0.65660  Biso   1.000  C
  C31      1.0000 0.07950  0.57220  0.34340  Biso   1.000  C
  C32      1.0000 0.42050  0.92780  0.84340  Biso   1.000  C
  H25      1.0000 0.93220  0.62910  0.18810  Biso   1.000  H
  H26      1.0000 0.43220  0.12910  0.31190  Biso   1.000  H
  H27      1.0000 0.93220  0.37090  0.68810  Biso   1.000  H
  H28      1.0000 0.56780  0.12910  0.18810  Biso   1.000  H
  H29      1.0000 0.06780  0.37090  0.81190  Biso   1.000  H
  H30      1.0000 0.56780  0.87090  0.68810  Biso   1.000  H
  H31      1.0000 0.06780  0.62910  0.31190  Biso   1.000  H
  H32      1.0000 0.43220  0.87090  0.81190  Biso   1.000  H
  C33      1.0000 0.96650  0.49450  0.20150  Biso   1.000  C
  C34      1.0000 0.46650  0.99450  0.29850  Biso   1.000  C
  C35      1.0000 0.96650  0.50550  0.70150  Biso   1.000  C
  C36      1.0000 0.53350  0.99450  0.20150  Biso   1.000  C
  C37      1.0000 0.03350  0.50550  0.79850  Biso   1.000  C
  C38      1.0000 0.53350  0.00550  0.70150  Biso   1.000  C
  C39      1.0000 0.03350  0.49450  0.29850  Biso   1.000  C
  C40      1.0000 0.46650  0.00550  0.79850  Biso   1.000  C
  C41      1.0000 0.03670  0.20090  0.05420  Biso   1.000  C
  C42      1.0000 0.53670  0.70090  0.44580  Biso   1.000  C
  C43      1.0000 0.03670  0.79910  0.55420  Biso   1.000  C
  C44      1.0000 0.46330  0.70090  0.05420  Biso   1.000  C
  C45      1.0000 0.96330  0.79910  0.94580  Biso   1.000  C
  C46      1.0000 0.46330  0.29910  0.55420  Biso   1.000  C
  C47      1.0000 0.96330  0.20090  0.44580  Biso   1.000  C
  C48      1.0000 0.53670  0.29910  0.94580  Biso   1.000  C
  H33      1.0000 0.07600  0.25150  0.03180  Biso   1.000  H
  H34      1.0000 0.57600  0.75150  0.46820  Biso   1.000  H
  H35      1.0000 0.07600  0.74850  0.53180  Biso   1.000  H
  H36      1.0000 0.42400  0.75150  0.03180  Biso   1.000  H
  H37      1.0000 0.92400  0.74850  0.96820  Biso   1.000  H
  H38      1.0000 0.42400  0.24850  0.53180  Biso   1.000  H
  H39      1.0000 0.92400  0.25150  0.46820  Biso   1.000  H
  H40      1.0000 0.57600  0.24850  0.96820  Biso   1.000  H
  C49      1.0000 0.04800  0.12100  0.99680  Biso   1.000  C
  C50      1.0000 0.54800  0.62100  0.50320  Biso   1.000  C
  C51      1.0000 0.04800  0.87900  0.49680  Biso   1.000  C
  C52      1.0000 0.45200  0.62100  0.99680  Biso   1.000  C
  C53      1.0000 0.95200  0.87900  0.00320  Biso   1.000  C
  C54      1.0000 0.45200  0.37900  0.49680  Biso   1.000  C
  C55      1.0000 0.95200  0.12100  0.50320  Biso   1.000  C
  C56      1.0000 0.54800  0.37900  0.00320  Biso   1.000  C
  H41      1.0000 0.09380  0.11870  0.93700  Biso   1.000  H
  H42      1.0000 0.59380  0.61870  0.56300  Biso   1.000  H
  H43      1.0000 0.09380  0.88130  0.43700  Biso   1.000  H
  H44      1.0000 0.40620  0.61870  0.93700  Biso   1.000  H
  H45      1.0000 0.90620  0.88130  0.06300  Biso   1.000  H
  H46      1.0000 0.40620  0.38130  0.43700  Biso   1.000  H
  H47      1.0000 0.90620  0.11870  0.56300  Biso   1.000  H
  H48      1.0000 0.59380  0.38130  0.06300  Biso   1.000  H
  C57      1.0000 0.99180  0.04430  0.02760  Biso   1.000  C
  C58      1.0000 0.49180  0.54430  0.47240  Biso   1.000  C
  C59      1.0000 0.99180  0.95570  0.52760  Biso   1.000  C
  C60      1.0000 0.50820  0.54430  0.02760  Biso   1.000  C
  C61      1.0000 0.00820  0.95570  0.97240  Biso   1.000  C
  C62      1.0000 0.50820  0.45570  0.52760  Biso   1.000  C
  C63      1.0000 0.00820  0.04430  0.47240  Biso   1.000  C
  C64      1.0000 0.49180  0.45570  0.97240  Biso   1.000  C
  C65      1.0000 0.92120  0.05450  0.11380  Biso   1.000  C
  C66      1.0000 0.42120  0.55450  0.38620  Biso   1.000  C
  C67      1.0000 0.92120  0.94550  0.61380  Biso   1.000  C
  C68      1.0000 0.57880  0.55450  0.11380  Biso   1.000  C
  C69      1.0000 0.07880  0.94550  0.88620  Biso   1.000  C
  C70      1.0000 0.57880  0.44550  0.61380  Biso   1.000  C
  C71      1.0000 0.07880  0.05450  0.38620  Biso   1.000  C
  C72      1.0000 0.42120  0.44550  0.88620  Biso   1.000  C
  H49      1.0000 0.87970  0.00520  0.13640  Biso   1.000  H
  H50      1.0000 0.37970  0.50520  0.36360  Biso   1.000  H
  H51      1.0000 0.87970  0.99480  0.63640  Biso   1.000  H
  H52      1.0000 0.62030  0.50520  0.13640  Biso   1.000  H
  H53      1.0000 0.12030  0.99480  0.86360  Biso   1.000  H
  H54      1.0000 0.62030  0.49480  0.63640  Biso   1.000  H
  H55      1.0000 0.12030  0.00520  0.36360  Biso   1.000  H
  H56      1.0000 0.37970  0.49480  0.86360  Biso   1.000  H
  C73      1.0000 0.91180  0.13720  0.16660  Biso   1.000  C
  C74      1.0000 0.41180  0.63720  0.33340  Biso   1.000  C
  C75      1.0000 0.91180  0.86280  0.66660  Biso   1.000  C
  C76      1.0000 0.58820  0.63720  0.16660  Biso   1.000  C
  C77      1.0000 0.08820  0.86280  0.83340  Biso   1.000  C
  C78      1.0000 0.58820  0.36280  0.66660  Biso   1.000  C
  C79      1.0000 0.08820  0.13720  0.33340  Biso   1.000  C
  C80      1.0000 0.41180  0.36280  0.83340  Biso   1.000  C
  H57      1.0000 0.86170  0.14290  0.22240  Biso   1.000  H
  H58      1.0000 0.36170  0.64290  0.27760  Biso   1.000  H
  H59      1.0000 0.86170  0.85710  0.72240  Biso   1.000  H
  H60      1.0000 0.63830  0.64290  0.22240  Biso   1.000  H
  H61      1.0000 0.13830  0.85710  0.77760  Biso   1.000  H
  H62      1.0000 0.63830  0.35710  0.72240  Biso   1.000  H
  H63      1.0000 0.13830  0.14290  0.27760  Biso   1.000  H
  H64      1.0000 0.36170  0.35710  0.77760  Biso   1.000  H
