data_image0
_cell_length_a       12.421
_cell_length_b       14.673
_cell_length_c       12.29
_cell_angle_alpha    90
_cell_angle_beta     90
_cell_angle_gamma    90

_symmetry_space_group_name_H-M    "P 1"
_symmetry_int_tables_number       1

loop_
  _symmetry_equiv_pos_as_xyz
  'x, y, z'

loop_
  _atom_site_label
  _atom_site_occupancy
  _atom_site_fract_x
  _atom_site_fract_y
  _atom_site_fract_z
  _atom_site_thermal_displace_type
  _atom_site_B_iso_or_equiv
  _atom_site_type_symbol
  Cu1      1.0000 0.00000  0.30839  0.25000  Biso   1.000  Cu
  Cu2      1.0000 0.50000  0.19161  0.75000  Biso   1.000  Cu
  Cu3      1.0000 0.00000  0.69161  0.75000  Biso   1.000  Cu
  Cu4      1.0000 0.50000  0.80839  0.25000  Biso   1.000  Cu
  Cl1      1.0000 0.70240  0.31266  0.19931  Biso   1.000  Cl
  Cl2      1.0000 0.79760  0.18734  0.69931  Biso   1.000  Cl
  Cl3      1.0000 0.29760  0.31266  0.30069  Biso   1.000  Cl
  Cl4      1.0000 0.20240  0.18734  0.80069  Biso   1.000  Cl
  Cl5      1.0000 0.29760  0.68734  0.80069  Biso   1.000  Cl
  Cl6      1.0000 0.20240  0.81266  0.30069  Biso   1.000  Cl
  Cl7      1.0000 0.70240  0.68734  0.69931  Biso   1.000  Cl
  Cl8      1.0000 0.79760  0.81266  0.19931  Biso   1.000  Cl
  O1       1.0000 0.81230  0.31750  0.17350  Biso   1.000  O
  O2       1.0000 0.68770  0.18250  0.67350  Biso   1.000  O
  O3       1.0000 0.18770  0.31750  0.32650  Biso   1.000  O
  O4       1.0000 0.31230  0.18250  0.82650  Biso   1.000  O
  O5       1.0000 0.18770  0.68250  0.82650  Biso   1.000  O
  O6       1.0000 0.31230  0.81750  0.32650  Biso   1.000  O
  O7       1.0000 0.81230  0.68250  0.67350  Biso   1.000  O
  O8       1.0000 0.68770  0.81750  0.17350  Biso   1.000  O
  O9       1.0000 0.70040  0.28050  0.31170  Biso   1.000  O
  O10      1.0000 0.79960  0.21950  0.81170  Biso   1.000  O
  O11      1.0000 0.29960  0.28050  0.18830  Biso   1.000  O
  O12      1.0000 0.20040  0.21950  0.68830  Biso   1.000  O
  O13      1.0000 0.29960  0.71950  0.68830  Biso   1.000  O
  O14      1.0000 0.20040  0.78050  0.18830  Biso   1.000  O
  O15      1.0000 0.70040  0.71950  0.81170  Biso   1.000  O
  O16      1.0000 0.79960  0.78050  0.31170  Biso   1.000  O
  O17      1.0000 0.65020  0.25550  0.13160  Biso   1.000  O
  O18      1.0000 0.84980  0.24450  0.63160  Biso   1.000  O
  O19      1.0000 0.34980  0.25550  0.36840  Biso   1.000  O
  O20      1.0000 0.15020  0.24450  0.86840  Biso   1.000  O
  O21      1.0000 0.34980  0.74450  0.86840  Biso   1.000  O
  O22      1.0000 0.15020  0.75550  0.36840  Biso   1.000  O
  O23      1.0000 0.65020  0.74450  0.63160  Biso   1.000  O
  O24      1.0000 0.84980  0.75550  0.13160  Biso   1.000  O
  O25      1.0000 0.65950  0.40010  0.19770  Biso   1.000  O
  O26      1.0000 0.84050  0.09990  0.69770  Biso   1.000  O
  O27      1.0000 0.34050  0.40010  0.30230  Biso   1.000  O
  O28      1.0000 0.15950  0.09990  0.80230  Biso   1.000  O
  O29      1.0000 0.34050  0.59990  0.80230  Biso   1.000  O
  O30      1.0000 0.15950  0.90010  0.30230  Biso   1.000  O
  O31      1.0000 0.65950  0.59990  0.69770  Biso   1.000  O
  O32      1.0000 0.84050  0.90010  0.19770  Biso   1.000  O
  N1       1.0000 0.05130  0.41130  0.15690  Biso   1.000  N
  N2       1.0000 0.44870  0.08870  0.65690  Biso   1.000  N
  N3       1.0000 0.94870  0.41130  0.34310  Biso   1.000  N
  N4       1.0000 0.55130  0.08870  0.84310  Biso   1.000  N
  N5       1.0000 0.94870  0.58870  0.84310  Biso   1.000  N
  N6       1.0000 0.55130  0.91130  0.34310  Biso   1.000  N
  N7       1.0000 0.05130  0.58870  0.65690  Biso   1.000  N
  N8       1.0000 0.44870  0.91130  0.15690  Biso   1.000  N
  N9       1.0000 0.02790  0.20970  0.14040  Biso   1.000  N
  N10      1.0000 0.47210  0.29030  0.64040  Biso   1.000  N
  N11      1.0000 0.97210  0.20970  0.35960  Biso   1.000  N
  N12      1.0000 0.52790  0.29030  0.85960  Biso   1.000  N
  N13      1.0000 0.97210  0.79030  0.85960  Biso   1.000  N
  N14      1.0000 0.52790  0.70970  0.35960  Biso   1.000  N
  N15      1.0000 0.02790  0.79030  0.64040  Biso   1.000  N
  N16      1.0000 0.47210  0.70970  0.14040  Biso   1.000  N
  C1       1.0000 0.03390  0.49440  0.20010  Biso   1.000  C
  C2       1.0000 0.46610  0.00560  0.70010  Biso   1.000  C
  C3       1.0000 0.96610  0.49440  0.29990  Biso   1.000  C
  C4       1.0000 0.53390  0.00560  0.79990  Biso   1.000  C
  C5       1.0000 0.96610  0.50560  0.79990  Biso   1.000  C
  C6       1.0000 0.53390  0.99440  0.29990  Biso   1.000  C
  C7       1.0000 0.03390  0.50560  0.70010  Biso   1.000  C
  C8       1.0000 0.46610  0.99440  0.20010  Biso   1.000  C
  C9       1.0000 0.07940  0.57190  0.15620  Biso   1.000  C
  C10      1.0000 0.42060  0.92810  0.65620  Biso   1.000  C
  C11      1.0000 0.92060  0.57190  0.34380  Biso   1.000  C
  C12      1.0000 0.57940  0.92810  0.84380  Biso   1.000  C
  C13      1.0000 0.92060  0.42810  0.84380  Biso   1.000  C
  C14      1.0000 0.57940  0.07190  0.34380  Biso   1.000  C
  C15      1.0000 0.07940  0.42810  0.65620  Biso   1.000  C
  C16      1.0000 0.42060  0.07190  0.15620  Biso   1.000  C
  H1       1.0000 0.06790  0.62850  0.18840  Biso   1.000  H
  H2       1.0000 0.43210  0.87150  0.68840  Biso   1.000  H
  H3       1.0000 0.93210  0.62850  0.31160  Biso   1.000  H
  H4       1.0000 0.56790  0.87150  0.81160  Biso   1.000  H
  H5       1.0000 0.93210  0.37150  0.81160  Biso   1.000  H
  H6       1.0000 0.56790  0.12850  0.31160  Biso   1.000  H
  H7       1.0000 0.06790  0.37150  0.68840  Biso   1.000  H
  H8       1.0000 0.43210  0.12850  0.18840  Biso   1.000  H
  C17      1.0000 0.14170  0.56430  0.06460  Biso   1.000  C
  C18      1.0000 0.35830  0.93570  0.56460  Biso   1.000  C
  C19      1.0000 0.85830  0.56430  0.43540  Biso   1.000  C
  C20      1.0000 0.64170  0.93570  0.93540  Biso   1.000  C
  C21      1.0000 0.85830  0.43570  0.93540  Biso   1.000  C
  C22      1.0000 0.64170  0.06430  0.43540  Biso   1.000  C
  C23      1.0000 0.14170  0.43570  0.56460  Biso   1.000  C
  C24      1.0000 0.35830  0.06430  0.06460  Biso   1.000  C
  H9       1.0000 0.17250  0.61580  0.03340  Biso   1.000  H
  H10      1.0000 0.32750  0.88420  0.53340  Biso   1.000  H
  H11      1.0000 0.82750  0.61580  0.46660  Biso   1.000  H
  H12      1.0000 0.67250  0.88420  0.96660  Biso   1.000  H
  H13      1.0000 0.82750  0.38420  0.96660  Biso   1.000  H
  H14      1.0000 0.67250  0.11580  0.46660  Biso   1.000  H
  H15      1.0000 0.17250  0.38420  0.53340  Biso   1.000  H
  H16      1.0000 0.32750  0.11580  0.03340  Biso   1.000  H
  C25      1.0000 0.15820  0.47860  0.01870  Biso   1.000  C
  C26      1.0000 0.34180  0.02140  0.51870  Biso   1.000  C
  C27      1.0000 0.84180  0.47860  0.48130  Biso   1.000  C
  C28      1.0000 0.65820  0.02140  0.98130  Biso   1.000  C
  C29      1.0000 0.84180  0.52140  0.98130  Biso   1.000  C
  C30      1.0000 0.65820  0.97860  0.48130  Biso   1.000  C
  C31      1.0000 0.15820  0.52140  0.51870  Biso   1.000  C
  C32      1.0000 0.34180  0.97860  0.01870  Biso   1.000  C
  H17      1.0000 0.19970  0.47210  0.95610  Biso   1.000  H
  H18      1.0000 0.30030  0.02790  0.45610  Biso   1.000  H
  H19      1.0000 0.80030  0.47210  0.54390  Biso   1.000  H
  H20      1.0000 0.69970  0.02790  0.04390  Biso   1.000  H
  H21      1.0000 0.80030  0.52790  0.04390  Biso   1.000  H
  H22      1.0000 0.69970  0.97210  0.54390  Biso   1.000  H
  H23      1.0000 0.19970  0.52790  0.45610  Biso   1.000  H
  H24      1.0000 0.30030  0.97210  0.95610  Biso   1.000  H
  C33      1.0000 0.11250  0.40420  0.06720  Biso   1.000  C
  C34      1.0000 0.38750  0.09580  0.56720  Biso   1.000  C
  C35      1.0000 0.88750  0.40420  0.43280  Biso   1.000  C
  C36      1.0000 0.61250  0.09580  0.93280  Biso   1.000  C
  C37      1.0000 0.88750  0.59580  0.93280  Biso   1.000  C
  C38      1.0000 0.61250  0.90420  0.43280  Biso   1.000  C
  C39      1.0000 0.11250  0.59580  0.56720  Biso   1.000  C
  C40      1.0000 0.38750  0.90420  0.06720  Biso   1.000  C
  H25      1.0000 0.12410  0.34690  0.03710  Biso   1.000  H
  H26      1.0000 0.37590  0.15310  0.53710  Biso   1.000  H
  H27      1.0000 0.87590  0.34690  0.46290  Biso   1.000  H
  H28      1.0000 0.62410  0.15310  0.96290  Biso   1.000  H
  H29      1.0000 0.87590  0.65310  0.96290  Biso   1.000  H
  H30      1.0000 0.62410  0.84690  0.46290  Biso   1.000  H
  H31      1.0000 0.12410  0.65310  0.53710  Biso   1.000  H
  H32      1.0000 0.37590  0.84690  0.03710  Biso   1.000  H
  C41      1.0000 0.08760  0.13670  0.16620  Biso   1.000  C
  C42      1.0000 0.41240  0.36330  0.66620  Biso   1.000  C
  C43      1.0000 0.91240  0.13670  0.33380  Biso   1.000  C
  C44      1.0000 0.58760  0.36330  0.83380  Biso   1.000  C
  C45      1.0000 0.91240  0.86330  0.83380  Biso   1.000  C
  C46      1.0000 0.58760  0.63670  0.33380  Biso   1.000  C
  C47      1.0000 0.08760  0.86330  0.66620  Biso   1.000  C
  C48      1.0000 0.41240  0.63670  0.16620  Biso   1.000  C
  H33      1.0000 0.13760  0.14230  0.22210  Biso   1.000  H
  H34      1.0000 0.36240  0.35770  0.72210  Biso   1.000  H
  H35      1.0000 0.86240  0.14230  0.27790  Biso   1.000  H
  H36      1.0000 0.63760  0.35770  0.77790  Biso   1.000  H
  H37      1.0000 0.86240  0.85770  0.77790  Biso   1.000  H
  H38      1.0000 0.63760  0.64230  0.27790  Biso   1.000  H
  H39      1.0000 0.13760  0.85770  0.72210  Biso   1.000  H
  H40      1.0000 0.36240  0.64230  0.22210  Biso   1.000  H
  C49      1.0000 0.07900  0.05360  0.11430  Biso   1.000  C
  C50      1.0000 0.42100  0.44640  0.61430  Biso   1.000  C
  C51      1.0000 0.92100  0.05360  0.38570  Biso   1.000  C
  C52      1.0000 0.57900  0.44640  0.88570  Biso   1.000  C
  C53      1.0000 0.92100  0.94640  0.88570  Biso   1.000  C
  C54      1.0000 0.57900  0.55360  0.38570  Biso   1.000  C
  C55      1.0000 0.07900  0.94640  0.61430  Biso   1.000  C
  C56      1.0000 0.42100  0.55360  0.11430  Biso   1.000  C
  H41      1.0000 0.12060  0.00430  0.13670  Biso   1.000  H
  H42      1.0000 0.37940  0.49570  0.63670  Biso   1.000  H
  H43      1.0000 0.87940  0.00430  0.36330  Biso   1.000  H
  H44      1.0000 0.62060  0.49570  0.86330  Biso   1.000  H
  H45      1.0000 0.87940  0.99570  0.86330  Biso   1.000  H
  H46      1.0000 0.62060  0.50430  0.36330  Biso   1.000  H
  H47      1.0000 0.12060  0.99570  0.63670  Biso   1.000  H
  H48      1.0000 0.37940  0.50430  0.13670  Biso   1.000  H
  C57      1.0000 0.00700  0.04470  0.02790  Biso   1.000  C
  C58      1.0000 0.49300  0.45530  0.52790  Biso   1.000  C
  C59      1.0000 0.99300  0.04470  0.47210  Biso   1.000  C
  C60      1.0000 0.50700  0.45530  0.97210  Biso   1.000  C
  C61      1.0000 0.99300  0.95530  0.97210  Biso   1.000  C
  C62      1.0000 0.50700  0.54470  0.47210  Biso   1.000  C
  C63      1.0000 0.00700  0.95530  0.52790  Biso   1.000  C
  C64      1.0000 0.49300  0.54470  0.02790  Biso   1.000  C
  C65      1.0000 0.95150  0.12150  0.99700  Biso   1.000  C
  C66      1.0000 0.54850  0.37850  0.49700  Biso   1.000  C
  C67      1.0000 0.04850  0.12150  0.50300  Biso   1.000  C
  C68      1.0000 0.45150  0.37850  0.00300  Biso   1.000  C
  C69      1.0000 0.04850  0.87850  0.00300  Biso   1.000  C
  C70      1.0000 0.45150  0.62150  0.50300  Biso   1.000  C
  C71      1.0000 0.95150  0.87850  0.49700  Biso   1.000  C
  C72      1.0000 0.54850  0.62150  0.99700  Biso   1.000  C
  H49      1.0000 0.90620  0.11960  0.93670  Biso   1.000  H
  H50      1.0000 0.59380  0.38040  0.43670  Biso   1.000  H
  H51      1.0000 0.09380  0.11960  0.56330  Biso   1.000  H
  H52      1.0000 0.40620  0.38040  0.06330  Biso   1.000  H
  H53      1.0000 0.09380  0.88040  0.06330  Biso   1.000  H
  H54      1.0000 0.40620  0.61960  0.56330  Biso   1.000  H
  H55      1.0000 0.90620  0.88040  0.43670  Biso   1.000  H
  H56      1.0000 0.59380  0.61960  0.93670  Biso   1.000  H
  C73      1.0000 0.96270  0.20060  0.05450  Biso   1.000  C
  C74      1.0000 0.53730  0.29940  0.55450  Biso   1.000  C
  C75      1.0000 0.03730  0.20060  0.44550  Biso   1.000  C
  C76      1.0000 0.46270  0.29940  0.94550  Biso   1.000  C
  C77      1.0000 0.03730  0.79940  0.94550  Biso   1.000  C
  C78      1.0000 0.46270  0.70060  0.44550  Biso   1.000  C
  C79      1.0000 0.96270  0.79940  0.55450  Biso   1.000  C
  C80      1.0000 0.53730  0.70060  0.05450  Biso   1.000  C
  H57      1.0000 0.92270  0.25100  0.03270  Biso   1.000  H
  H58      1.0000 0.57730  0.24900  0.53270  Biso   1.000  H
  H59      1.0000 0.07730  0.25100  0.46730  Biso   1.000  H
  H60      1.0000 0.42270  0.24900  0.96730  Biso   1.000  H
  H61      1.0000 0.07730  0.74900  0.96730  Biso   1.000  H
  H62      1.0000 0.42270  0.75100  0.46730  Biso   1.000  H
  H63      1.0000 0.92270  0.74900  0.53270  Biso   1.000  H
  H64      1.0000 0.57730  0.75100  0.03270  Biso   1.000  H
