data_image0
_cell_length_a       10.1535
_cell_length_b       16.3971
_cell_length_c       15.7138
_cell_angle_alpha    90
_cell_angle_beta     106.707
_cell_angle_gamma    90

_symmetry_space_group_name_H-M    "P 1"
_symmetry_int_tables_number       1

loop_
  _symmetry_equiv_pos_as_xyz
  'x, y, z'

loop_
  _atom_site_label
  _atom_site_occupancy
  _atom_site_fract_x
  _atom_site_fract_y
  _atom_site_fract_z
  _atom_site_thermal_displace_type
  _atom_site_B_iso_or_equiv
  _atom_site_type_symbol
  C1       1.0000 0.21970  0.17410  0.79540  Biso   1.000  C
  C2       1.0000 0.78030  0.17410  0.70460  Biso   1.000  C
  C3       1.0000 0.71970  0.67410  0.79540  Biso   1.000  C
  C4       1.0000 0.28030  0.67410  0.70460  Biso   1.000  C
  C5       1.0000 0.78030  0.82590  0.20460  Biso   1.000  C
  C6       1.0000 0.21970  0.82590  0.29540  Biso   1.000  C
  C7       1.0000 0.28030  0.32590  0.20460  Biso   1.000  C
  C8       1.0000 0.71970  0.32590  0.29540  Biso   1.000  C
  C9       1.0000 0.32690  0.23970  0.80420  Biso   1.000  C
  C10      1.0000 0.67310  0.23970  0.69580  Biso   1.000  C
  C11      1.0000 0.82690  0.73970  0.80420  Biso   1.000  C
  C12      1.0000 0.17310  0.73970  0.69580  Biso   1.000  C
  C13      1.0000 0.67310  0.76030  0.19580  Biso   1.000  C
  C14      1.0000 0.32690  0.76030  0.30420  Biso   1.000  C
  C15      1.0000 0.17310  0.26030  0.19580  Biso   1.000  C
  C16      1.0000 0.82690  0.26030  0.30420  Biso   1.000  C
  H1       1.0000 0.31860  0.27910  0.84850  Biso   1.000  H
  H2       1.0000 0.68140  0.27910  0.65150  Biso   1.000  H
  H3       1.0000 0.81860  0.77910  0.84850  Biso   1.000  H
  H4       1.0000 0.18140  0.77910  0.65150  Biso   1.000  H
  H5       1.0000 0.68140  0.72090  0.15150  Biso   1.000  H
  H6       1.0000 0.31860  0.72090  0.34850  Biso   1.000  H
  H7       1.0000 0.18140  0.22090  0.15150  Biso   1.000  H
  H8       1.0000 0.81860  0.22090  0.34850  Biso   1.000  H
  H9       1.0000 0.31110  0.26800  0.74800  Biso   1.000  H
  H10      1.0000 0.68890  0.26800  0.75200  Biso   1.000  H
  H11      1.0000 0.81110  0.76800  0.74800  Biso   1.000  H
  H12      1.0000 0.18890  0.76800  0.75200  Biso   1.000  H
  H13      1.0000 0.68890  0.73200  0.25200  Biso   1.000  H
  H14      1.0000 0.31110  0.73200  0.24800  Biso   1.000  H
  H15      1.0000 0.18890  0.23200  0.25200  Biso   1.000  H
  H16      1.0000 0.81110  0.23200  0.24800  Biso   1.000  H
  C17      1.0000 0.47130  0.20410  0.83120  Biso   1.000  C
  C18      1.0000 0.52870  0.20410  0.66880  Biso   1.000  C
  C19      1.0000 0.97130  0.70410  0.83120  Biso   1.000  C
  C20      1.0000 0.02870  0.70410  0.66880  Biso   1.000  C
  C21      1.0000 0.52870  0.79590  0.16880  Biso   1.000  C
  C22      1.0000 0.47130  0.79590  0.33120  Biso   1.000  C
  C23      1.0000 0.02870  0.29590  0.16880  Biso   1.000  C
  C24      1.0000 0.97130  0.29590  0.33120  Biso   1.000  C
  H17      1.0000 0.48660  0.17570  0.88740  Biso   1.000  H
  H18      1.0000 0.51340  0.17570  0.61260  Biso   1.000  H
  H19      1.0000 0.98660  0.67570  0.88740  Biso   1.000  H
  H20      1.0000 0.01340  0.67570  0.61260  Biso   1.000  H
  H21      1.0000 0.51340  0.82430  0.11260  Biso   1.000  H
  H22      1.0000 0.48660  0.82430  0.38740  Biso   1.000  H
  H23      1.0000 0.01340  0.32430  0.11260  Biso   1.000  H
  H24      1.0000 0.98660  0.32430  0.38740  Biso   1.000  H
  H25      1.0000 0.53750  0.24820  0.83990  Biso   1.000  H
  H26      1.0000 0.46250  0.24820  0.66010  Biso   1.000  H
  H27      1.0000 0.03750  0.74820  0.83990  Biso   1.000  H
  H28      1.0000 0.96250  0.74820  0.66010  Biso   1.000  H
  H29      1.0000 0.46250  0.75180  0.16010  Biso   1.000  H
  H30      1.0000 0.53750  0.75180  0.33990  Biso   1.000  H
  H31      1.0000 0.96250  0.25180  0.16010  Biso   1.000  H
  H32      1.0000 0.03750  0.25180  0.33990  Biso   1.000  H
  N1       1.0000 0.93580  0.00360  0.82250  Biso   1.000  N
  N2       1.0000 0.06420  0.00360  0.67750  Biso   1.000  N
  N3       1.0000 0.43580  0.50360  0.82250  Biso   1.000  N
  N4       1.0000 0.56420  0.50360  0.67750  Biso   1.000  N
  N5       1.0000 0.06420  0.99640  0.17750  Biso   1.000  N
  N6       1.0000 0.93580  0.99640  0.32250  Biso   1.000  N
  N7       1.0000 0.56420  0.49640  0.17750  Biso   1.000  N
  N8       1.0000 0.43580  0.49640  0.32250  Biso   1.000  N
  C25      1.0000 0.81910  0.00550  0.84290  Biso   1.000  C
  C26      1.0000 0.18090  0.00550  0.65710  Biso   1.000  C
  C27      1.0000 0.31910  0.50550  0.84290  Biso   1.000  C
  C28      1.0000 0.68090  0.50550  0.65710  Biso   1.000  C
  C29      1.0000 0.18090  0.99450  0.15710  Biso   1.000  C
  C30      1.0000 0.81910  0.99450  0.34290  Biso   1.000  C
  C31      1.0000 0.68090  0.49450  0.15710  Biso   1.000  C
  C32      1.0000 0.31910  0.49450  0.34290  Biso   1.000  C
  H33      1.0000 0.74530  0.03860  0.81420  Biso   1.000  H
  H34      1.0000 0.25470  0.03860  0.68580  Biso   1.000  H
  H35      1.0000 0.24530  0.53860  0.81420  Biso   1.000  H
  H36      1.0000 0.75470  0.53860  0.68580  Biso   1.000  H
  H37      1.0000 0.25470  0.96140  0.18580  Biso   1.000  H
  H38      1.0000 0.74530  0.96140  0.31420  Biso   1.000  H
  H39      1.0000 0.75470  0.46140  0.18580  Biso   1.000  H
  H40      1.0000 0.24530  0.46140  0.31420  Biso   1.000  H
  C33      1.0000 0.94420  0.91780  0.93680  Biso   1.000  C
  C34      1.0000 0.05580  0.91780  0.56320  Biso   1.000  C
  C35      1.0000 0.44420  0.41780  0.93680  Biso   1.000  C
  C36      1.0000 0.55580  0.41780  0.56320  Biso   1.000  C
  C37      1.0000 0.05580  0.08220  0.06320  Biso   1.000  C
  C38      1.0000 0.94420  0.08220  0.43680  Biso   1.000  C
  C39      1.0000 0.55580  0.58220  0.06320  Biso   1.000  C
  C40      1.0000 0.44420  0.58220  0.43680  Biso   1.000  C
  C41      1.0000 0.00220  0.86300  0.00450  Biso   1.000  C
  C42      1.0000 0.99780  0.86300  0.49550  Biso   1.000  C
  C43      1.0000 0.50220  0.36300  0.00450  Biso   1.000  C
  C44      1.0000 0.49780  0.36300  0.49550  Biso   1.000  C
  C45      1.0000 0.99780  0.13700  0.99550  Biso   1.000  C
  C46      1.0000 0.00220  0.13700  0.50450  Biso   1.000  C
  C47      1.0000 0.49780  0.63700  0.99550  Biso   1.000  C
  C48      1.0000 0.50220  0.63700  0.50450  Biso   1.000  C
  H41      1.0000 0.95300  0.84290  0.04160  Biso   1.000  H
  H42      1.0000 0.04700  0.84290  0.45840  Biso   1.000  H
  H43      1.0000 0.45300  0.34290  0.04160  Biso   1.000  H
  H44      1.0000 0.54700  0.34290  0.45840  Biso   1.000  H
  H45      1.0000 0.04700  0.15710  0.95840  Biso   1.000  H
  H46      1.0000 0.95300  0.15710  0.54160  Biso   1.000  H
  H47      1.0000 0.54700  0.65710  0.95840  Biso   1.000  H
  H48      1.0000 0.45300  0.65710  0.54160  Biso   1.000  H
  C49      1.0000 0.13550  0.83990  0.01410  Biso   1.000  C
  C50      1.0000 0.86450  0.83990  0.48590  Biso   1.000  C
  C51      1.0000 0.63550  0.33990  0.01410  Biso   1.000  C
  C52      1.0000 0.36450  0.33990  0.48590  Biso   1.000  C
  C53      1.0000 0.86450  0.16010  0.98590  Biso   1.000  C
  C54      1.0000 0.13550  0.16010  0.51410  Biso   1.000  C
  C55      1.0000 0.36450  0.66010  0.98590  Biso   1.000  C
  C56      1.0000 0.63550  0.66010  0.51410  Biso   1.000  C
  H49      1.0000 0.17760  0.80360  0.05920  Biso   1.000  H
  H50      1.0000 0.82240  0.80360  0.44080  Biso   1.000  H
  H51      1.0000 0.67760  0.30360  0.05920  Biso   1.000  H
  H52      1.0000 0.32240  0.30360  0.44080  Biso   1.000  H
  H53      1.0000 0.82240  0.19640  0.94080  Biso   1.000  H
  H54      1.0000 0.17760  0.19640  0.55920  Biso   1.000  H
  H55      1.0000 0.32240  0.69640  0.94080  Biso   1.000  H
  H56      1.0000 0.67760  0.69640  0.55920  Biso   1.000  H
  C57      1.0000 0.20980  0.86890  0.95870  Biso   1.000  C
  C58      1.0000 0.79020  0.86890  0.54130  Biso   1.000  C
  C59      1.0000 0.70980  0.36890  0.95870  Biso   1.000  C
  C60      1.0000 0.29020  0.36890  0.54130  Biso   1.000  C
  C61      1.0000 0.79020  0.13110  0.04130  Biso   1.000  C
  C62      1.0000 0.20980  0.13110  0.45870  Biso   1.000  C
  C63      1.0000 0.29020  0.63110  0.04130  Biso   1.000  C
  C64      1.0000 0.70980  0.63110  0.45870  Biso   1.000  C
  H57      1.0000 0.29960  0.85110  0.96720  Biso   1.000  H
  H58      1.0000 0.70040  0.85110  0.53280  Biso   1.000  H
  H59      1.0000 0.79960  0.35110  0.96720  Biso   1.000  H
  H60      1.0000 0.20040  0.35110  0.53280  Biso   1.000  H
  H61      1.0000 0.70040  0.14890  0.03280  Biso   1.000  H
  H62      1.0000 0.29960  0.14890  0.46720  Biso   1.000  H
  H63      1.0000 0.20040  0.64890  0.03280  Biso   1.000  H
  H64      1.0000 0.79960  0.64890  0.46720  Biso   1.000  H
  C65      1.0000 0.15320  0.92340  0.89160  Biso   1.000  C
  C66      1.0000 0.84680  0.92340  0.60840  Biso   1.000  C
  C67      1.0000 0.65320  0.42340  0.89160  Biso   1.000  C
  C68      1.0000 0.34680  0.42340  0.60840  Biso   1.000  C
  C69      1.0000 0.84680  0.07660  0.10840  Biso   1.000  C
  C70      1.0000 0.15320  0.07660  0.39160  Biso   1.000  C
  C71      1.0000 0.34680  0.57660  0.10840  Biso   1.000  C
  C72      1.0000 0.65320  0.57660  0.39160  Biso   1.000  C
  H65      1.0000 0.20330  0.94320  0.85490  Biso   1.000  H
  H66      1.0000 0.79670  0.94320  0.64510  Biso   1.000  H
  H67      1.0000 0.70330  0.44320  0.85490  Biso   1.000  H
  H68      1.0000 0.29670  0.44320  0.64510  Biso   1.000  H
  H69      1.0000 0.79670  0.05680  0.14510  Biso   1.000  H
  H70      1.0000 0.20330  0.05680  0.35490  Biso   1.000  H
  H71      1.0000 0.29670  0.55680  0.14510  Biso   1.000  H
  H72      1.0000 0.70330  0.55680  0.35490  Biso   1.000  H
  C73      1.0000 0.01890  0.94780  0.88090  Biso   1.000  C
  C74      1.0000 0.98110  0.94780  0.61910  Biso   1.000  C
  C75      1.0000 0.51890  0.44780  0.88090  Biso   1.000  C
  C76      1.0000 0.48110  0.44780  0.61910  Biso   1.000  C
  C77      1.0000 0.98110  0.05220  0.11910  Biso   1.000  C
  C78      1.0000 0.01890  0.05220  0.38090  Biso   1.000  C
  C79      1.0000 0.48110  0.55220  0.11910  Biso   1.000  C
  C80      1.0000 0.51890  0.55220  0.38090  Biso   1.000  C
  N9       1.0000 0.81790  0.95470  0.90910  Biso   1.000  N
  N10      1.0000 0.18210  0.95470  0.59090  Biso   1.000  N
  N11      1.0000 0.31790  0.45470  0.90910  Biso   1.000  N
  N12      1.0000 0.68210  0.45470  0.59090  Biso   1.000  N
  N13      1.0000 0.18210  0.04530  0.09090  Biso   1.000  N
  N14      1.0000 0.81790  0.04530  0.40910  Biso   1.000  N
  N15      1.0000 0.68210  0.54530  0.09090  Biso   1.000  N
  N16      1.0000 0.31790  0.54530  0.40910  Biso   1.000  N
  O1       1.0000 0.11940  0.17300  0.72580  Biso   1.000  O
  O2       1.0000 0.88060  0.17300  0.77420  Biso   1.000  O
  O3       1.0000 0.61940  0.67300  0.72580  Biso   1.000  O
  O4       1.0000 0.38060  0.67300  0.77420  Biso   1.000  O
  O5       1.0000 0.88060  0.82700  0.27420  Biso   1.000  O
  O6       1.0000 0.11940  0.82700  0.22580  Biso   1.000  O
  O7       1.0000 0.38060  0.32700  0.27420  Biso   1.000  O
  O8       1.0000 0.61940  0.32700  0.22580  Biso   1.000  O
  O9       1.0000 0.22950  0.12290  0.85530  Biso   1.000  O
  O10      1.0000 0.77050  0.12290  0.64470  Biso   1.000  O
  O11      1.0000 0.72950  0.62290  0.85530  Biso   1.000  O
  O12      1.0000 0.27050  0.62290  0.64470  Biso   1.000  O
  O13      1.0000 0.77050  0.87710  0.14470  Biso   1.000  O
  O14      1.0000 0.22950  0.87710  0.35530  Biso   1.000  O
  O15      1.0000 0.27050  0.37710  0.14470  Biso   1.000  O
  O16      1.0000 0.72950  0.37710  0.35530  Biso   1.000  O
  S1       1.0000 0.50000  0.13460  0.75000  Biso   1.000  S
  S2       1.0000 0.00000  0.63460  0.75000  Biso   1.000  S
  S3       1.0000 0.50000  0.86540  0.25000  Biso   1.000  S
  S4       1.0000 0.00000  0.36540  0.25000  Biso   1.000  S
  Cu1      1.0000 0.00000  0.08443  0.75000  Biso   1.000  Cu
  Cu2      1.0000 0.50000  0.58443  0.75000  Biso   1.000  Cu
  Cu3      1.0000 0.00000  0.91557  0.25000  Biso   1.000  Cu
  Cu4      1.0000 0.50000  0.41557  0.25000  Biso   1.000  Cu
  H73      1.0000 0.75500  0.94800  0.93200  Biso   1.000  H
  H74      1.0000 0.24500  0.94800  0.56800  Biso   1.000  H
  H75      1.0000 0.25500  0.44800  0.93200  Biso   1.000  H
  H76      1.0000 0.74500  0.44800  0.56800  Biso   1.000  H
  H77      1.0000 0.24500  0.05200  0.06800  Biso   1.000  H
  H78      1.0000 0.75500  0.05200  0.43200  Biso   1.000  H
  H79      1.0000 0.74500  0.55200  0.06800  Biso   1.000  H
  H80      1.0000 0.25500  0.55200  0.43200  Biso   1.000  H
  O17      1.0000 0.09150  0.43420  0.98760  Biso   1.000  O
  O18      1.0000 0.90850  0.43420  0.51240  Biso   1.000  O
  O19      1.0000 0.59150  0.93420  0.98760  Biso   1.000  O
  O20      1.0000 0.40850  0.93420  0.51240  Biso   1.000  O
  O21      1.0000 0.90850  0.56580  0.01240  Biso   1.000  O
  O22      1.0000 0.09150  0.56580  0.48760  Biso   1.000  O
  O23      1.0000 0.40850  0.06580  0.01240  Biso   1.000  O
  O24      1.0000 0.59150  0.06580  0.48760  Biso   1.000  O
  H81      1.0000 0.06960  0.39510  0.94690  Biso   1.000  H
  H82      1.0000 0.93040  0.39510  0.55310  Biso   1.000  H
  H83      1.0000 0.56960  0.89510  0.94690  Biso   1.000  H
  H84      1.0000 0.43040  0.89510  0.55310  Biso   1.000  H
  H85      1.0000 0.93040  0.60490  0.05310  Biso   1.000  H
  H86      1.0000 0.06960  0.60490  0.44690  Biso   1.000  H
  H87      1.0000 0.43040  0.10490  0.05310  Biso   1.000  H
  H88      1.0000 0.56960  0.10490  0.44690  Biso   1.000  H
  H89      1.0000 0.14000  0.41200  0.03400  Biso   1.000  H
  H90      1.0000 0.86000  0.41200  0.46600  Biso   1.000  H
  H91      1.0000 0.64000  0.91200  0.03400  Biso   1.000  H
  H92      1.0000 0.36000  0.91200  0.46600  Biso   1.000  H
  H93      1.0000 0.86000  0.58800  0.96600  Biso   1.000  H
  H94      1.0000 0.14000  0.58800  0.53400  Biso   1.000  H
  H95      1.0000 0.36000  0.08800  0.96600  Biso   1.000  H
  H96      1.0000 0.64000  0.08800  0.53400  Biso   1.000  H
  O25      1.0000 0.98140  0.33610  0.83560  Biso   1.000  O
  O26      1.0000 0.01860  0.33610  0.66440  Biso   1.000  O
  O27      1.0000 0.48140  0.83610  0.83560  Biso   1.000  O
  O28      1.0000 0.51860  0.83610  0.66440  Biso   1.000  O
  O29      1.0000 0.01860  0.66390  0.16440  Biso   1.000  O
  O30      1.0000 0.98140  0.66390  0.33560  Biso   1.000  O
  O31      1.0000 0.51860  0.16390  0.16440  Biso   1.000  O
  O32      1.0000 0.48140  0.16390  0.33560  Biso   1.000  O
  H97      1.0000 0.92950  0.29480  0.83240  Biso   1.000  H
  H98      1.0000 0.07050  0.29480  0.66760  Biso   1.000  H
  H99      1.0000 0.42950  0.79480  0.83240  Biso   1.000  H
  H100     1.0000 0.57050  0.79480  0.66760  Biso   1.000  H
  H101     1.0000 0.07050  0.70520  0.16760  Biso   1.000  H
  H102     1.0000 0.92950  0.70520  0.33240  Biso   1.000  H
  H103     1.0000 0.57050  0.20520  0.16760  Biso   1.000  H
  H104     1.0000 0.42950  0.20520  0.33240  Biso   1.000  H
  H105     1.0000 0.05030  0.32100  0.82210  Biso   1.000  H
  H106     1.0000 0.94970  0.32100  0.67790  Biso   1.000  H
  H107     1.0000 0.55030  0.82100  0.82210  Biso   1.000  H
  H108     1.0000 0.44970  0.82100  0.67790  Biso   1.000  H
  H109     1.0000 0.94970  0.67900  0.17790  Biso   1.000  H
  H110     1.0000 0.05030  0.67900  0.32210  Biso   1.000  H
  H111     1.0000 0.44970  0.17900  0.17790  Biso   1.000  H
  H112     1.0000 0.55030  0.17900  0.32210  Biso   1.000  H
