data_image0
_cell_length_a       9.056
_cell_length_b       7.533
_cell_length_c       12.17
_cell_angle_alpha    90
_cell_angle_beta     90.01
_cell_angle_gamma    90

_symmetry_space_group_name_H-M    "P 1"
_symmetry_int_tables_number       1

loop_
  _symmetry_equiv_pos_as_xyz
  'x, y, z'

loop_
  _atom_site_label
  _atom_site_occupancy
  _atom_site_fract_x
  _atom_site_fract_y
  _atom_site_fract_z
  _atom_site_thermal_displace_type
  _atom_site_B_iso_or_equiv
  _atom_site_type_symbol
  Cu1      1.0000 0.52208  0.95604  0.82566  Biso   1.000  Cu
  Cu2      1.0000 0.47792  0.45604  0.17434  Biso   1.000  Cu
  Cl1      1.0000 0.31185  0.87659  0.74404  Biso   1.000  Cl
  Cl2      1.0000 0.68815  0.37659  0.25596  Biso   1.000  Cl
  O1       1.0000 0.48150  0.81830  0.95780  Biso   1.000  O
  O2       1.0000 0.51850  0.31830  0.04220  Biso   1.000  O
  N1       1.0000 0.21630  0.93990  0.05790  Biso   1.000  N
  N2       1.0000 0.78370  0.43990  0.94210  Biso   1.000  N
  C1       1.0000 0.73590  0.88910  0.99740  Biso   1.000  C
  C2       1.0000 0.26410  0.38910  0.00260  Biso   1.000  C
  H1       1.0000 0.79950  0.79310  0.97080  Biso   1.000  H
  H2       1.0000 0.20050  0.29310  0.02920  Biso   1.000  H
  C3       1.0000 0.81050  0.96940  0.09790  Biso   1.000  C
  C4       1.0000 0.18950  0.46940  0.90210  Biso   1.000  C
  H3       1.0000 0.77390  0.08950  0.10700  Biso   1.000  H
  H4       1.0000 0.22610  0.58950  0.89300  Biso   1.000  H
  H5       1.0000 0.77990  0.90210  0.16190  Biso   1.000  H
  H6       1.0000 0.22010  0.40210  0.83810  Biso   1.000  H
  N3       1.0000 0.71150  0.01190  0.90461  Biso   1.000  N
  N4       1.0000 0.28850  0.51190  0.09539  Biso   1.000  N
  C5       1.0000 0.97570  0.97600  0.09660  Biso   1.000  C
  C6       1.0000 0.02430  0.47600  0.90340  Biso   1.000  C
  C7       1.0000 0.07420  0.92020  0.01970  Biso   1.000  C
  C8       1.0000 0.92580  0.42020  0.98030  Biso   1.000  C
  H7       1.0000 0.04910  0.87510  0.95100  Biso   1.000  H
  H8       1.0000 0.95090  0.37510  0.04900  Biso   1.000  H
  C9       1.0000 0.06200  0.03580  0.18770  Biso   1.000  C
  C10      1.0000 0.93800  0.53580  0.81230  Biso   1.000  C
  N5       1.0000 0.62610  0.06600  0.69956  Biso   1.000  N
  N6       1.0000 0.37390  0.56600  0.30044  Biso   1.000  N
  C11      1.0000 0.83240  0.02960  0.82310  Biso   1.000  C
  C12      1.0000 0.16760  0.52960  0.17690  Biso   1.000  C
  H9       1.0000 0.88000  0.91570  0.81240  Biso   1.000  H
  H10      1.0000 0.12000  0.41570  0.18760  Biso   1.000  H
  H11      1.0000 0.90570  0.11300  0.84980  Biso   1.000  H
  H12      1.0000 0.09430  0.61300  0.15020  Biso   1.000  H
  C13      1.0000 0.85770  0.17310  0.63720  Biso   1.000  C
  C14      1.0000 0.14230  0.67310  0.36280  Biso   1.000  C
  H13      1.0000 0.95790  0.19140  0.64980  Biso   1.000  H
  H14      1.0000 0.04210  0.69140  0.35020  Biso   1.000  H
  C15      1.0000 0.77020  0.09400  0.71680  Biso   1.000  C
  C16      1.0000 0.22980  0.59400  0.28320  Biso   1.000  C
  C17      1.0000 0.21300  0.01070  0.16120  Biso   1.000  C
  C18      1.0000 0.78700  0.51070  0.83880  Biso   1.000  C
  C19      1.0000 0.58650  0.80600  0.02830  Biso   1.000  C
  C20      1.0000 0.41350  0.30600  0.97170  Biso   1.000  C
  C21      1.0000 0.28600  0.12700  0.33270  Biso   1.000  C
  C22      1.0000 0.71400  0.62700  0.66730  Biso   1.000  C
  H15      1.0000 0.35950  0.15870  0.38230  Biso   1.000  H
  H16      1.0000 0.64050  0.65870  0.61770  Biso   1.000  H
  C23      1.0000 0.56600  0.11410  0.60440  Biso   1.000  C
  C24      1.0000 0.43400  0.61410  0.39560  Biso   1.000  C
  H17      1.0000 0.46590  0.09360  0.59300  Biso   1.000  H
  H18      1.0000 0.53410  0.59360  0.40700  Biso   1.000  H
  C25      1.0000 0.32630  0.05610  0.23280  Biso   1.000  C
  C26      1.0000 0.67370  0.55610  0.76720  Biso   1.000  C
  H19      1.0000 0.42490  0.03930  0.21420  Biso   1.000  H
  H20      1.0000 0.57510  0.53930  0.78580  Biso   1.000  H
  C27      1.0000 0.64590  0.19230  0.52330  Biso   1.000  C
  C28      1.0000 0.35410  0.69230  0.47670  Biso   1.000  C
  H21      1.0000 0.60130  0.22420  0.45730  Biso   1.000  H
  H22      1.0000 0.39870  0.72420  0.54270  Biso   1.000  H
  C29      1.0000 0.02530  0.10800  0.29120  Biso   1.000  C
  C30      1.0000 0.97470  0.60800  0.70880  Biso   1.000  C
  H23      1.0000 0.92730  0.12510  0.31120  Biso   1.000  H
  H24      1.0000 0.07270  0.62510  0.68880  Biso   1.000  H
  C31      1.0000 0.13910  0.15290  0.36200  Biso   1.000  C
  C32      1.0000 0.86090  0.65290  0.63800  Biso   1.000  C
  H25      1.0000 0.11690  0.20110  0.43040  Biso   1.000  H
  H26      1.0000 0.88310  0.70110  0.56960  Biso   1.000  H
  C33      1.0000 0.79520  0.22370  0.54020  Biso   1.000  C
  C34      1.0000 0.20480  0.72370  0.45980  Biso   1.000  C
  H27      1.0000 0.85170  0.27850  0.48620  Biso   1.000  H
  H28      1.0000 0.14830  0.77850  0.51380  Biso   1.000  H
  O3       1.0000 0.57440  0.72850  0.11526  Biso   1.000  O
  O4       1.0000 0.42560  0.22850  0.88474  Biso   1.000  O
  H29      1.0000 0.29600  0.92400  0.02200  Biso   1.000  H
  H30      1.0000 0.70400  0.42400  0.97800  Biso   1.000  H
  H31      1.0000 0.70000  0.12500  0.93300  Biso   1.000  H
  H32      1.0000 0.30000  0.62500  0.06700  Biso   1.000  H
