data_image0
_cell_length_a       28.527
_cell_length_b       13.224
_cell_length_c       11.761
_cell_angle_alpha    90
_cell_angle_beta     91.26
_cell_angle_gamma    90

_symmetry_space_group_name_H-M    "P 1"
_symmetry_int_tables_number       1

loop_
  _symmetry_equiv_pos_as_xyz
  'x, y, z'

loop_
  _atom_site_label
  _atom_site_occupancy
  _atom_site_fract_x
  _atom_site_fract_y
  _atom_site_fract_z
  _atom_site_thermal_displace_type
  _atom_site_B_iso_or_equiv
  _atom_site_type_symbol
  Cu1      1.0000 0.25000  0.75000  0.50000  Biso   1.000  Cu
  Cu2      1.0000 0.75000  0.75000  0.00000  Biso   1.000  Cu
  Cu3      1.0000 0.75000  0.25000  0.50000  Biso   1.000  Cu
  Cu4      1.0000 0.25000  0.25000  0.00000  Biso   1.000  Cu
  P1       1.0000 0.35374  0.76842  0.60201  Biso   1.000  P
  P2       1.0000 0.64626  0.76842  0.89799  Biso   1.000  P
  P3       1.0000 0.85374  0.26842  0.60201  Biso   1.000  P
  P4       1.0000 0.14626  0.26842  0.89799  Biso   1.000  P
  P5       1.0000 0.64626  0.23158  0.39799  Biso   1.000  P
  P6       1.0000 0.35374  0.23158  0.10201  Biso   1.000  P
  P7       1.0000 0.14626  0.73158  0.39799  Biso   1.000  P
  P8       1.0000 0.85374  0.73158  0.10201  Biso   1.000  P
  O1       1.0000 0.31680  0.73038  0.51873  Biso   1.000  O
  O2       1.0000 0.68320  0.73038  0.98127  Biso   1.000  O
  O3       1.0000 0.81680  0.23038  0.51873  Biso   1.000  O
  O4       1.0000 0.18320  0.23038  0.98127  Biso   1.000  O
  O5       1.0000 0.68320  0.26962  0.48127  Biso   1.000  O
  O6       1.0000 0.31680  0.26962  0.01873  Biso   1.000  O
  O7       1.0000 0.18320  0.76962  0.48127  Biso   1.000  O
  O8       1.0000 0.81680  0.76962  0.01873  Biso   1.000  O
  O9       1.0000 0.33865  0.78790  0.71980  Biso   1.000  O
  O10      1.0000 0.66135  0.78790  0.78020  Biso   1.000  O
  O11      1.0000 0.83865  0.28790  0.71980  Biso   1.000  O
  O12      1.0000 0.16135  0.28790  0.78020  Biso   1.000  O
  O13      1.0000 0.66135  0.21210  0.28020  Biso   1.000  O
  O14      1.0000 0.33865  0.21210  0.21980  Biso   1.000  O
  O15      1.0000 0.16135  0.71210  0.28020  Biso   1.000  O
  O16      1.0000 0.83865  0.71210  0.21980  Biso   1.000  O
  O17      1.0000 0.37511  0.86429  0.54118  Biso   1.000  O
  O18      1.0000 0.62489  0.86429  0.95882  Biso   1.000  O
  O19      1.0000 0.87511  0.36429  0.54118  Biso   1.000  O
  O20      1.0000 0.12489  0.36429  0.95882  Biso   1.000  O
  O21      1.0000 0.62489  0.13571  0.45882  Biso   1.000  O
  O22      1.0000 0.37511  0.13571  0.04118  Biso   1.000  O
  O23      1.0000 0.12489  0.63571  0.45882  Biso   1.000  O
  O24      1.0000 0.87511  0.63571  0.04118  Biso   1.000  O
  O25      1.0000 0.39751  0.69457  0.59680  Biso   1.000  O
  O26      1.0000 0.60249  0.69457  0.90320  Biso   1.000  O
  O27      1.0000 0.89751  0.19457  0.59680  Biso   1.000  O
  O28      1.0000 0.10249  0.19457  0.90320  Biso   1.000  O
  O29      1.0000 0.60249  0.30543  0.40320  Biso   1.000  O
  O30      1.0000 0.39751  0.30543  0.09680  Biso   1.000  O
  O31      1.0000 0.10249  0.80543  0.40320  Biso   1.000  O
  O32      1.0000 0.89751  0.80543  0.09680  Biso   1.000  O
  O33      1.0000 0.24487  0.74969  0.70390  Biso   1.000  O
  O34      1.0000 0.75513  0.74969  0.79610  Biso   1.000  O
  O35      1.0000 0.74487  0.24969  0.70390  Biso   1.000  O
  O36      1.0000 0.25513  0.24969  0.79610  Biso   1.000  O
  O37      1.0000 0.75513  0.25031  0.29610  Biso   1.000  O
  O38      1.0000 0.24487  0.25031  0.20390  Biso   1.000  O
  O39      1.0000 0.25513  0.75031  0.29610  Biso   1.000  O
  O40      1.0000 0.74487  0.75031  0.20390  Biso   1.000  O
  N1       1.0000 0.24300  0.59269  0.50080  Biso   1.000  N
  N2       1.0000 0.75700  0.59269  0.99920  Biso   1.000  N
  N3       1.0000 0.74300  0.09269  0.50080  Biso   1.000  N
  N4       1.0000 0.25700  0.09269  0.99920  Biso   1.000  N
  N5       1.0000 0.75700  0.40731  0.49920  Biso   1.000  N
  N6       1.0000 0.24300  0.40731  0.00080  Biso   1.000  N
  N7       1.0000 0.25700  0.90731  0.49920  Biso   1.000  N
  N8       1.0000 0.74300  0.90731  0.00080  Biso   1.000  N
  N9       1.0000 0.23711  0.27459  0.53100  Biso   1.000  N
  N10      1.0000 0.76289  0.27459  0.96900  Biso   1.000  N
  N11      1.0000 0.73711  0.77459  0.53100  Biso   1.000  N
  N12      1.0000 0.26289  0.77459  0.96900  Biso   1.000  N
  N13      1.0000 0.76289  0.72541  0.46900  Biso   1.000  N
  N14      1.0000 0.23711  0.72541  0.03100  Biso   1.000  N
  N15      1.0000 0.26289  0.22541  0.46900  Biso   1.000  N
  N16      1.0000 0.73711  0.22541  0.03100  Biso   1.000  N
  C1       1.0000 0.21905  0.54600  0.58180  Biso   1.000  C
  C2       1.0000 0.78095  0.54600  0.91820  Biso   1.000  C
  C3       1.0000 0.71905  0.04600  0.58180  Biso   1.000  C
  C4       1.0000 0.28095  0.04600  0.91820  Biso   1.000  C
  C5       1.0000 0.78095  0.45400  0.41820  Biso   1.000  C
  C6       1.0000 0.21905  0.45400  0.08180  Biso   1.000  C
  C7       1.0000 0.28095  0.95400  0.41820  Biso   1.000  C
  C8       1.0000 0.71905  0.95400  0.08180  Biso   1.000  C
  H1       1.0000 0.20320  0.58520  0.63430  Biso   1.000  H
  H2       1.0000 0.79680  0.58520  0.86570  Biso   1.000  H
  H3       1.0000 0.70320  0.08520  0.63430  Biso   1.000  H
  H4       1.0000 0.29680  0.08520  0.86570  Biso   1.000  H
  H5       1.0000 0.79680  0.41480  0.36570  Biso   1.000  H
  H6       1.0000 0.20320  0.41480  0.13430  Biso   1.000  H
  H7       1.0000 0.29680  0.91480  0.36570  Biso   1.000  H
  H8       1.0000 0.70320  0.91480  0.13430  Biso   1.000  H
  C9       1.0000 0.21672  0.44120  0.59110  Biso   1.000  C
  C10      1.0000 0.78328  0.44120  0.90890  Biso   1.000  C
  C11      1.0000 0.71672  0.94120  0.59110  Biso   1.000  C
  C12      1.0000 0.28328  0.94120  0.90890  Biso   1.000  C
  C13      1.0000 0.78328  0.55880  0.40890  Biso   1.000  C
  C14      1.0000 0.21672  0.55880  0.09110  Biso   1.000  C
  C15      1.0000 0.28328  0.05880  0.40890  Biso   1.000  C
  C16      1.0000 0.71672  0.05880  0.09110  Biso   1.000  C
  H9       1.0000 0.19940  0.41120  0.64800  Biso   1.000  H
  H10      1.0000 0.80060  0.41120  0.85200  Biso   1.000  H
  H11      1.0000 0.69940  0.91120  0.64800  Biso   1.000  H
  H12      1.0000 0.30060  0.91120  0.85200  Biso   1.000  H
  H13      1.0000 0.80060  0.58880  0.35200  Biso   1.000  H
  H14      1.0000 0.19940  0.58880  0.14800  Biso   1.000  H
  H15      1.0000 0.30060  0.08880  0.35200  Biso   1.000  H
  H16      1.0000 0.69940  0.08880  0.14800  Biso   1.000  H
  C17      1.0000 0.24055  0.38280  0.51470  Biso   1.000  C
  C18      1.0000 0.75945  0.38280  0.98530  Biso   1.000  C
  C19      1.0000 0.74055  0.88280  0.51470  Biso   1.000  C
  C20      1.0000 0.25945  0.88280  0.98530  Biso   1.000  C
  C21      1.0000 0.75945  0.61720  0.48530  Biso   1.000  C
  C22      1.0000 0.24055  0.61720  0.01470  Biso   1.000  C
  C23      1.0000 0.25945  0.11720  0.48530  Biso   1.000  C
  C24      1.0000 0.74055  0.11720  0.01470  Biso   1.000  C
  C25      1.0000 0.26502  0.42980  0.42910  Biso   1.000  C
  C26      1.0000 0.73498  0.42980  0.07090  Biso   1.000  C
  C27      1.0000 0.76502  0.92980  0.42910  Biso   1.000  C
  C28      1.0000 0.23498  0.92980  0.07090  Biso   1.000  C
  C29      1.0000 0.73498  0.57020  0.57090  Biso   1.000  C
  C30      1.0000 0.26502  0.57020  0.92910  Biso   1.000  C
  C31      1.0000 0.23498  0.07020  0.57090  Biso   1.000  C
  C32      1.0000 0.76502  0.07020  0.92910  Biso   1.000  C
  H17      1.0000 0.28090  0.39210  0.37550  Biso   1.000  H
  H18      1.0000 0.71910  0.39210  0.12450  Biso   1.000  H
  H19      1.0000 0.78090  0.89210  0.37550  Biso   1.000  H
  H20      1.0000 0.21910  0.89210  0.12450  Biso   1.000  H
  H21      1.0000 0.71910  0.60790  0.62450  Biso   1.000  H
  H22      1.0000 0.28090  0.60790  0.87550  Biso   1.000  H
  H23      1.0000 0.21910  0.10790  0.62450  Biso   1.000  H
  H24      1.0000 0.78090  0.10790  0.87550  Biso   1.000  H
  C33      1.0000 0.26516  0.53510  0.42570  Biso   1.000  C
  C34      1.0000 0.73484  0.53510  0.07430  Biso   1.000  C
  C35      1.0000 0.76516  0.03510  0.42570  Biso   1.000  C
  C36      1.0000 0.23484  0.03510  0.07430  Biso   1.000  C
  C37      1.0000 0.73484  0.46490  0.57430  Biso   1.000  C
  C38      1.0000 0.26516  0.46490  0.92570  Biso   1.000  C
  C39      1.0000 0.23484  0.96490  0.57430  Biso   1.000  C
  C40      1.0000 0.76516  0.96490  0.92570  Biso   1.000  C
  H25      1.0000 0.28150  0.56690  0.36820  Biso   1.000  H
  H26      1.0000 0.71850  0.56690  0.13180  Biso   1.000  H
  H27      1.0000 0.78150  0.06690  0.36820  Biso   1.000  H
  H28      1.0000 0.21850  0.06690  0.13180  Biso   1.000  H
  H29      1.0000 0.71850  0.43310  0.63180  Biso   1.000  H
  H30      1.0000 0.28150  0.43310  0.86820  Biso   1.000  H
  H31      1.0000 0.21850  0.93310  0.63180  Biso   1.000  H
  H32      1.0000 0.78150  0.93310  0.86820  Biso   1.000  H
  C41      1.0000 0.40597  0.94070  0.59130  Biso   1.000  C
  C42      1.0000 0.59403  0.94070  0.90870  Biso   1.000  C
  C43      1.0000 0.90597  0.44070  0.59130  Biso   1.000  C
  C44      1.0000 0.09403  0.44070  0.90870  Biso   1.000  C
  C45      1.0000 0.59403  0.05930  0.40870  Biso   1.000  C
  C46      1.0000 0.40597  0.05930  0.09130  Biso   1.000  C
  C47      1.0000 0.09403  0.55930  0.40870  Biso   1.000  C
  C48      1.0000 0.90597  0.55930  0.09130  Biso   1.000  C
  C49      1.0000 0.37710  0.00990  0.66590  Biso   1.000  C
  C50      1.0000 0.62290  0.00990  0.83410  Biso   1.000  C
  C51      1.0000 0.87710  0.50990  0.66590  Biso   1.000  C
  C52      1.0000 0.12290  0.50990  0.83410  Biso   1.000  C
  C53      1.0000 0.62290  0.99010  0.33410  Biso   1.000  C
  C54      1.0000 0.37710  0.99010  0.16590  Biso   1.000  C
  C55      1.0000 0.12290  0.49010  0.33410  Biso   1.000  C
  C56      1.0000 0.87710  0.49010  0.16590  Biso   1.000  C
  H33      1.0000 0.35200  0.03910  0.62120  Biso   1.000  H
  H34      1.0000 0.64800  0.03910  0.87880  Biso   1.000  H
  H35      1.0000 0.85200  0.53910  0.62120  Biso   1.000  H
  H36      1.0000 0.14800  0.53910  0.87880  Biso   1.000  H
  H37      1.0000 0.64800  0.96090  0.37880  Biso   1.000  H
  H38      1.0000 0.35200  0.96090  0.12120  Biso   1.000  H
  H39      1.0000 0.14800  0.46090  0.37880  Biso   1.000  H
  H40      1.0000 0.85200  0.46090  0.12120  Biso   1.000  H
  H41      1.0000 0.39670  0.06280  0.69630  Biso   1.000  H
  H42      1.0000 0.60330  0.06280  0.80370  Biso   1.000  H
  H43      1.0000 0.89670  0.56280  0.69630  Biso   1.000  H
  H44      1.0000 0.10330  0.56280  0.80370  Biso   1.000  H
  H45      1.0000 0.60330  0.93720  0.30370  Biso   1.000  H
  H46      1.0000 0.39670  0.93720  0.19630  Biso   1.000  H
  H47      1.0000 0.10330  0.43720  0.30370  Biso   1.000  H
  H48      1.0000 0.89670  0.43720  0.19630  Biso   1.000  H
  H49      1.0000 0.36430  0.97150  0.72720  Biso   1.000  H
  H50      1.0000 0.63570  0.97150  0.77280  Biso   1.000  H
  H51      1.0000 0.86430  0.47150  0.72720  Biso   1.000  H
  H52      1.0000 0.13570  0.47150  0.77280  Biso   1.000  H
  H53      1.0000 0.63570  0.02850  0.27280  Biso   1.000  H
  H54      1.0000 0.36430  0.02850  0.22720  Biso   1.000  H
  H55      1.0000 0.13570  0.52850  0.27280  Biso   1.000  H
  H56      1.0000 0.86430  0.52850  0.22720  Biso   1.000  H
  C57      1.0000 0.42340  0.99770  0.48830  Biso   1.000  C
  C58      1.0000 0.57660  0.99770  0.01170  Biso   1.000  C
  C59      1.0000 0.92340  0.49770  0.48830  Biso   1.000  C
  C60      1.0000 0.07660  0.49770  0.01170  Biso   1.000  C
  C61      1.0000 0.57660  0.00230  0.51170  Biso   1.000  C
  C62      1.0000 0.42340  0.00230  0.98830  Biso   1.000  C
  C63      1.0000 0.07660  0.50230  0.51170  Biso   1.000  C
  C64      1.0000 0.92340  0.50230  0.98830  Biso   1.000  C
  H57      1.0000 0.39730  0.02830  0.44850  Biso   1.000  H
  H58      1.0000 0.60270  0.02830  0.05150  Biso   1.000  H
  H59      1.0000 0.89730  0.52830  0.44850  Biso   1.000  H
  H60      1.0000 0.10270  0.52830  0.05150  Biso   1.000  H
  H61      1.0000 0.60270  0.97170  0.55150  Biso   1.000  H
  H62      1.0000 0.39730  0.97170  0.94850  Biso   1.000  H
  H63      1.0000 0.10270  0.47170  0.55150  Biso   1.000  H
  H64      1.0000 0.89730  0.47170  0.94850  Biso   1.000  H
  H65      1.0000 0.43890  0.95160  0.43860  Biso   1.000  H
  H66      1.0000 0.56110  0.95160  0.06140  Biso   1.000  H
  H67      1.0000 0.93890  0.45160  0.43860  Biso   1.000  H
  H68      1.0000 0.06110  0.45160  0.06140  Biso   1.000  H
  H69      1.0000 0.56110  0.04840  0.56140  Biso   1.000  H
  H70      1.0000 0.43890  0.04840  0.93860  Biso   1.000  H
  H71      1.0000 0.06110  0.54840  0.56140  Biso   1.000  H
  H72      1.0000 0.93890  0.54840  0.93860  Biso   1.000  H
  H73      1.0000 0.44510  0.04940  0.51280  Biso   1.000  H
  H74      1.0000 0.55490  0.04940  0.98720  Biso   1.000  H
  H75      1.0000 0.94510  0.54940  0.51280  Biso   1.000  H
  H76      1.0000 0.05490  0.54940  0.98720  Biso   1.000  H
  H77      1.0000 0.55490  0.95060  0.48720  Biso   1.000  H
  H78      1.0000 0.44510  0.95060  0.01280  Biso   1.000  H
  H79      1.0000 0.05490  0.45060  0.48720  Biso   1.000  H
  H80      1.0000 0.94510  0.45060  0.01280  Biso   1.000  H
  C65      1.0000 0.44620  0.89310  0.65740  Biso   1.000  C
  C66      1.0000 0.55380  0.89310  0.84260  Biso   1.000  C
  C67      1.0000 0.94620  0.39310  0.65740  Biso   1.000  C
  C68      1.0000 0.05380  0.39310  0.84260  Biso   1.000  C
  C69      1.0000 0.55380  0.10690  0.34260  Biso   1.000  C
  C70      1.0000 0.44620  0.10690  0.15740  Biso   1.000  C
  C71      1.0000 0.05380  0.60690  0.34260  Biso   1.000  C
  C72      1.0000 0.94620  0.60690  0.15740  Biso   1.000  C
  H81      1.0000 0.43430  0.85750  0.72190  Biso   1.000  H
  H82      1.0000 0.56570  0.85750  0.77810  Biso   1.000  H
  H83      1.0000 0.93430  0.35750  0.72190  Biso   1.000  H
  H84      1.0000 0.06570  0.35750  0.77810  Biso   1.000  H
  H85      1.0000 0.56570  0.14250  0.27810  Biso   1.000  H
  H86      1.0000 0.43430  0.14250  0.22190  Biso   1.000  H
  H87      1.0000 0.06570  0.64250  0.27810  Biso   1.000  H
  H88      1.0000 0.93430  0.64250  0.22190  Biso   1.000  H
  H89      1.0000 0.46750  0.94490  0.68310  Biso   1.000  H
  H90      1.0000 0.53250  0.94490  0.81690  Biso   1.000  H
  H91      1.0000 0.96750  0.44490  0.68310  Biso   1.000  H
  H92      1.0000 0.03250  0.44490  0.81690  Biso   1.000  H
  H93      1.0000 0.53250  0.05510  0.31690  Biso   1.000  H
  H94      1.0000 0.46750  0.05510  0.18310  Biso   1.000  H
  H95      1.0000 0.03250  0.55510  0.31690  Biso   1.000  H
  H96      1.0000 0.96750  0.55510  0.18310  Biso   1.000  H
  H97      1.0000 0.46240  0.84660  0.60940  Biso   1.000  H
  H98      1.0000 0.53760  0.84660  0.89060  Biso   1.000  H
  H99      1.0000 0.96240  0.34660  0.60940  Biso   1.000  H
  H100     1.0000 0.03760  0.34660  0.89060  Biso   1.000  H
  H101     1.0000 0.53760  0.15340  0.39060  Biso   1.000  H
  H102     1.0000 0.46240  0.15340  0.10940  Biso   1.000  H
  H103     1.0000 0.03760  0.65340  0.39060  Biso   1.000  H
  H104     1.0000 0.96240  0.65340  0.10940  Biso   1.000  H
  C73      1.0000 0.40492  0.60040  0.65470  Biso   1.000  C
  C74      1.0000 0.59508  0.60040  0.84530  Biso   1.000  C
  C75      1.0000 0.90492  0.10040  0.65470  Biso   1.000  C
  C76      1.0000 0.09508  0.10040  0.84530  Biso   1.000  C
  C77      1.0000 0.59508  0.39960  0.34530  Biso   1.000  C
  C78      1.0000 0.40492  0.39960  0.15470  Biso   1.000  C
  C79      1.0000 0.09508  0.89960  0.34530  Biso   1.000  C
  C80      1.0000 0.90492  0.89960  0.15470  Biso   1.000  C
  C81      1.0000 0.36140  0.53880  0.65950  Biso   1.000  C
  C82      1.0000 0.63860  0.53880  0.84050  Biso   1.000  C
  C83      1.0000 0.86140  0.03880  0.65950  Biso   1.000  C
  C84      1.0000 0.13860  0.03880  0.84050  Biso   1.000  C
  C85      1.0000 0.63860  0.46120  0.34050  Biso   1.000  C
  C86      1.0000 0.36140  0.46120  0.15950  Biso   1.000  C
  C87      1.0000 0.13860  0.96120  0.34050  Biso   1.000  C
  C88      1.0000 0.86140  0.96120  0.15950  Biso   1.000  C
  H105     1.0000 0.33730  0.57730  0.69500  Biso   1.000  H
  H106     1.0000 0.66270  0.57730  0.80500  Biso   1.000  H
  H107     1.0000 0.83730  0.07730  0.69500  Biso   1.000  H
  H108     1.0000 0.16270  0.07730  0.80500  Biso   1.000  H
  H109     1.0000 0.66270  0.42270  0.30500  Biso   1.000  H
  H110     1.0000 0.33730  0.42270  0.19500  Biso   1.000  H
  H111     1.0000 0.16270  0.92270  0.30500  Biso   1.000  H
  H112     1.0000 0.83730  0.92270  0.19500  Biso   1.000  H
  H113     1.0000 0.36760  0.47850  0.70290  Biso   1.000  H
  H114     1.0000 0.63240  0.47850  0.79710  Biso   1.000  H
  H115     1.0000 0.86760  0.97850  0.70290  Biso   1.000  H
  H116     1.0000 0.13240  0.97850  0.79710  Biso   1.000  H
  H117     1.0000 0.63240  0.52150  0.29710  Biso   1.000  H
  H118     1.0000 0.36760  0.52150  0.20290  Biso   1.000  H
  H119     1.0000 0.13240  0.02150  0.29710  Biso   1.000  H
  H120     1.0000 0.86760  0.02150  0.20290  Biso   1.000  H
  H121     1.0000 0.35140  0.52070  0.58380  Biso   1.000  H
  H122     1.0000 0.64860  0.52070  0.91620  Biso   1.000  H
  H123     1.0000 0.85140  0.02070  0.58380  Biso   1.000  H
  H124     1.0000 0.14860  0.02070  0.91620  Biso   1.000  H
  H125     1.0000 0.64860  0.47930  0.41620  Biso   1.000  H
  H126     1.0000 0.35140  0.47930  0.08380  Biso   1.000  H
  H127     1.0000 0.14860  0.97930  0.41620  Biso   1.000  H
  H128     1.0000 0.85140  0.97930  0.08380  Biso   1.000  H
  C89      1.0000 0.42000  0.62850  0.77860  Biso   1.000  C
  C90      1.0000 0.58000  0.62850  0.72140  Biso   1.000  C
  C91      1.0000 0.92000  0.12850  0.77860  Biso   1.000  C
  C92      1.0000 0.08000  0.12850  0.72140  Biso   1.000  C
  C93      1.0000 0.58000  0.37150  0.22140  Biso   1.000  C
  C94      1.0000 0.42000  0.37150  0.27860  Biso   1.000  C
  C95      1.0000 0.08000  0.87150  0.22140  Biso   1.000  C
  C96      1.0000 0.92000  0.87150  0.27860  Biso   1.000  C
  H129     1.0000 0.44870  0.66630  0.77780  Biso   1.000  H
  H130     1.0000 0.55130  0.66630  0.72220  Biso   1.000  H
  H131     1.0000 0.94870  0.16630  0.77780  Biso   1.000  H
  H132     1.0000 0.05130  0.16630  0.72220  Biso   1.000  H
  H133     1.0000 0.55130  0.33370  0.22220  Biso   1.000  H
  H134     1.0000 0.44870  0.33370  0.27780  Biso   1.000  H
  H135     1.0000 0.05130  0.83370  0.22220  Biso   1.000  H
  H136     1.0000 0.94870  0.83370  0.27780  Biso   1.000  H
  H137     1.0000 0.42460  0.56780  0.82220  Biso   1.000  H
  H138     1.0000 0.57540  0.56780  0.67780  Biso   1.000  H
  H139     1.0000 0.92460  0.06780  0.82220  Biso   1.000  H
  H140     1.0000 0.07540  0.06780  0.67780  Biso   1.000  H
  H141     1.0000 0.57540  0.43220  0.17780  Biso   1.000  H
  H142     1.0000 0.42460  0.43220  0.32220  Biso   1.000  H
  H143     1.0000 0.07540  0.93220  0.17780  Biso   1.000  H
  H144     1.0000 0.92460  0.93220  0.32220  Biso   1.000  H
  H145     1.0000 0.39590  0.66870  0.81220  Biso   1.000  H
  H146     1.0000 0.60410  0.66870  0.68780  Biso   1.000  H
  H147     1.0000 0.89590  0.16870  0.81220  Biso   1.000  H
  H148     1.0000 0.10410  0.16870  0.68780  Biso   1.000  H
  H149     1.0000 0.60410  0.33130  0.18780  Biso   1.000  H
  H150     1.0000 0.39590  0.33130  0.31220  Biso   1.000  H
  H151     1.0000 0.10410  0.83130  0.18780  Biso   1.000  H
  H152     1.0000 0.89590  0.83130  0.31220  Biso   1.000  H
  C97      1.0000 0.44590  0.55060  0.59420  Biso   1.000  C
  C98      1.0000 0.55410  0.55060  0.90580  Biso   1.000  C
  C99      1.0000 0.94590  0.05060  0.59420  Biso   1.000  C
  C100     1.0000 0.05410  0.05060  0.90580  Biso   1.000  C
  C101     1.0000 0.55410  0.44940  0.40580  Biso   1.000  C
  C102     1.0000 0.44590  0.44940  0.09420  Biso   1.000  C
  C103     1.0000 0.05410  0.94940  0.40580  Biso   1.000  C
  C104     1.0000 0.94590  0.94940  0.09420  Biso   1.000  C
  H153     1.0000 0.47150  0.59730  0.59080  Biso   1.000  H
  H154     1.0000 0.52850  0.59730  0.90920  Biso   1.000  H
  H155     1.0000 0.97150  0.09730  0.59080  Biso   1.000  H
  H156     1.0000 0.02850  0.09730  0.90920  Biso   1.000  H
  H157     1.0000 0.52850  0.40270  0.40920  Biso   1.000  H
  H158     1.0000 0.47150  0.40270  0.09080  Biso   1.000  H
  H159     1.0000 0.02850  0.90270  0.40920  Biso   1.000  H
  H160     1.0000 0.97150  0.90270  0.09080  Biso   1.000  H
  H161     1.0000 0.43610  0.53180  0.51850  Biso   1.000  H
  H162     1.0000 0.56390  0.53180  0.98150  Biso   1.000  H
  H163     1.0000 0.93610  0.03180  0.51850  Biso   1.000  H
  H164     1.0000 0.06390  0.03180  0.98150  Biso   1.000  H
  H165     1.0000 0.56390  0.46820  0.48150  Biso   1.000  H
  H166     1.0000 0.43610  0.46820  0.01850  Biso   1.000  H
  H167     1.0000 0.06390  0.96820  0.48150  Biso   1.000  H
  H168     1.0000 0.93610  0.96820  0.01850  Biso   1.000  H
  H169     1.0000 0.45570  0.49130  0.63550  Biso   1.000  H
  H170     1.0000 0.54430  0.49130  0.86450  Biso   1.000  H
  H171     1.0000 0.95570  0.99130  0.63550  Biso   1.000  H
  H172     1.0000 0.04430  0.99130  0.86450  Biso   1.000  H
  H173     1.0000 0.54430  0.50870  0.36450  Biso   1.000  H
  H174     1.0000 0.45570  0.50870  0.13550  Biso   1.000  H
  H175     1.0000 0.04430  0.00870  0.36450  Biso   1.000  H
  H176     1.0000 0.95570  0.00870  0.13550  Biso   1.000  H
  H177     1.0000 0.27150  0.76100  0.72660  Biso   1.000  H
  H178     1.0000 0.72850  0.76100  0.77340  Biso   1.000  H
  H179     1.0000 0.77150  0.26100  0.72660  Biso   1.000  H
  H180     1.0000 0.22850  0.26100  0.77340  Biso   1.000  H
  H181     1.0000 0.72850  0.23900  0.27340  Biso   1.000  H
  H182     1.0000 0.27150  0.23900  0.22660  Biso   1.000  H
  H183     1.0000 0.22850  0.73900  0.27340  Biso   1.000  H
  H184     1.0000 0.77150  0.73900  0.22660  Biso   1.000  H
  H185     1.0000 0.22840  0.75470  0.75970  Biso   1.000  H
  H186     1.0000 0.77160  0.75470  0.74030  Biso   1.000  H
  H187     1.0000 0.72840  0.25470  0.75970  Biso   1.000  H
  H188     1.0000 0.27160  0.25470  0.74030  Biso   1.000  H
  H189     1.0000 0.77160  0.24530  0.24030  Biso   1.000  H
  H190     1.0000 0.22840  0.24530  0.25970  Biso   1.000  H
  H191     1.0000 0.27160  0.74530  0.24030  Biso   1.000  H
  H192     1.0000 0.72840  0.74530  0.25970  Biso   1.000  H
  C105     1.0000 0.39470  0.58640  0.63040  Biso   1.000  C
  C106     1.0000 0.60530  0.58640  0.86960  Biso   1.000  C
  C107     1.0000 0.89470  0.08640  0.63040  Biso   1.000  C
  C108     1.0000 0.10530  0.08640  0.86960  Biso   1.000  C
  C109     1.0000 0.60530  0.41360  0.36960  Biso   1.000  C
  C110     1.0000 0.39470  0.41360  0.13040  Biso   1.000  C
  C111     1.0000 0.10530  0.91360  0.36960  Biso   1.000  C
  C112     1.0000 0.89470  0.91360  0.13040  Biso   1.000  C
  C113     1.0000 0.35150  0.55300  0.68700  Biso   1.000  C
  C114     1.0000 0.64850  0.55300  0.81300  Biso   1.000  C
  C115     1.0000 0.85150  0.05300  0.68700  Biso   1.000  C
  C116     1.0000 0.14850  0.05300  0.81300  Biso   1.000  C
  C117     1.0000 0.64850  0.44700  0.31300  Biso   1.000  C
  C118     1.0000 0.35150  0.44700  0.18700  Biso   1.000  C
  C119     1.0000 0.14850  0.94700  0.31300  Biso   1.000  C
  C120     1.0000 0.85150  0.94700  0.18700  Biso   1.000  C
  H193     1.0000 0.32470  0.56530  0.63810  Biso   1.000  H
  H194     1.0000 0.67530  0.56530  0.86190  Biso   1.000  H
  H195     1.0000 0.82470  0.06530  0.63810  Biso   1.000  H
  H196     1.0000 0.17530  0.06530  0.86190  Biso   1.000  H
  H197     1.0000 0.67530  0.43470  0.36190  Biso   1.000  H
  H198     1.0000 0.32470  0.43470  0.13810  Biso   1.000  H
  H199     1.0000 0.17530  0.93470  0.36190  Biso   1.000  H
  H200     1.0000 0.82470  0.93470  0.13810  Biso   1.000  H
  H201     1.0000 0.34810  0.58910  0.75710  Biso   1.000  H
  H202     1.0000 0.65190  0.58910  0.74290  Biso   1.000  H
  H203     1.0000 0.84810  0.08910  0.75710  Biso   1.000  H
  H204     1.0000 0.15190  0.08910  0.74290  Biso   1.000  H
  H205     1.0000 0.65190  0.41090  0.24290  Biso   1.000  H
  H206     1.0000 0.34810  0.41090  0.25710  Biso   1.000  H
  H207     1.0000 0.15190  0.91090  0.24290  Biso   1.000  H
  H208     1.0000 0.84810  0.91090  0.25710  Biso   1.000  H
  H209     1.0000 0.35350  0.48150  0.70300  Biso   1.000  H
  H210     1.0000 0.64650  0.48150  0.79700  Biso   1.000  H
  H211     1.0000 0.85350  0.98150  0.70300  Biso   1.000  H
  H212     1.0000 0.14650  0.98150  0.79700  Biso   1.000  H
  H213     1.0000 0.64650  0.51850  0.29700  Biso   1.000  H
  H214     1.0000 0.35350  0.51850  0.20300  Biso   1.000  H
  H215     1.0000 0.14650  0.01850  0.29700  Biso   1.000  H
  H216     1.0000 0.85350  0.01850  0.20300  Biso   1.000  H
  C121     1.0000 0.39290  0.53630  0.51040  Biso   1.000  C
  C122     1.0000 0.60710  0.53630  0.98960  Biso   1.000  C
  C123     1.0000 0.89290  0.03630  0.51040  Biso   1.000  C
  C124     1.0000 0.10710  0.03630  0.98960  Biso   1.000  C
  C125     1.0000 0.60710  0.46370  0.48960  Biso   1.000  C
  C126     1.0000 0.39290  0.46370  0.01040  Biso   1.000  C
  C127     1.0000 0.10710  0.96370  0.48960  Biso   1.000  C
  C128     1.0000 0.89290  0.96370  0.01040  Biso   1.000  C
  H217     1.0000 0.42090  0.55300  0.47050  Biso   1.000  H
  H218     1.0000 0.57910  0.55300  0.02950  Biso   1.000  H
  H219     1.0000 0.92090  0.05300  0.47050  Biso   1.000  H
  H220     1.0000 0.07910  0.05300  0.02950  Biso   1.000  H
  H221     1.0000 0.57910  0.44700  0.52950  Biso   1.000  H
  H222     1.0000 0.42090  0.44700  0.97050  Biso   1.000  H
  H223     1.0000 0.07910  0.94700  0.52950  Biso   1.000  H
  H224     1.0000 0.92090  0.94700  0.97050  Biso   1.000  H
  H225     1.0000 0.36600  0.56090  0.46830  Biso   1.000  H
  H226     1.0000 0.63400  0.56090  0.03170  Biso   1.000  H
  H227     1.0000 0.86600  0.06090  0.46830  Biso   1.000  H
  H228     1.0000 0.13400  0.06090  0.03170  Biso   1.000  H
  H229     1.0000 0.63400  0.43910  0.53170  Biso   1.000  H
  H230     1.0000 0.36600  0.43910  0.96830  Biso   1.000  H
  H231     1.0000 0.13400  0.93910  0.53170  Biso   1.000  H
  H232     1.0000 0.86600  0.93910  0.96830  Biso   1.000  H
  H233     1.0000 0.39070  0.46430  0.51840  Biso   1.000  H
  H234     1.0000 0.60930  0.46430  0.98160  Biso   1.000  H
  H235     1.0000 0.89070  0.96430  0.51840  Biso   1.000  H
  H236     1.0000 0.10930  0.96430  0.98160  Biso   1.000  H
  H237     1.0000 0.60930  0.53570  0.48160  Biso   1.000  H
  H238     1.0000 0.39070  0.53570  0.01840  Biso   1.000  H
  H239     1.0000 0.10930  0.03570  0.48160  Biso   1.000  H
  H240     1.0000 0.89070  0.03570  0.01840  Biso   1.000  H
  C129     1.0000 0.44160  0.56330  0.69100  Biso   1.000  C
  C130     1.0000 0.55840  0.56330  0.80900  Biso   1.000  C
  C131     1.0000 0.94160  0.06330  0.69100  Biso   1.000  C
  C132     1.0000 0.05840  0.06330  0.80900  Biso   1.000  C
  C133     1.0000 0.55840  0.43670  0.30900  Biso   1.000  C
  C134     1.0000 0.44160  0.43670  0.19100  Biso   1.000  C
  C135     1.0000 0.05840  0.93670  0.30900  Biso   1.000  C
  C136     1.0000 0.94160  0.93670  0.19100  Biso   1.000  C
  H241     1.0000 0.46660  0.59430  0.64980  Biso   1.000  H
  H242     1.0000 0.53340  0.59430  0.85020  Biso   1.000  H
  H243     1.0000 0.96660  0.09430  0.64980  Biso   1.000  H
  H244     1.0000 0.03340  0.09430  0.85020  Biso   1.000  H
  H245     1.0000 0.53340  0.40570  0.35020  Biso   1.000  H
  H246     1.0000 0.46660  0.40570  0.14980  Biso   1.000  H
  H247     1.0000 0.03340  0.90570  0.35020  Biso   1.000  H
  H248     1.0000 0.96660  0.90570  0.14980  Biso   1.000  H
  H249     1.0000 0.44630  0.49140  0.69320  Biso   1.000  H
  H250     1.0000 0.55370  0.49140  0.80680  Biso   1.000  H
  H251     1.0000 0.94630  0.99140  0.69320  Biso   1.000  H
  H252     1.0000 0.05370  0.99140  0.80680  Biso   1.000  H
  H253     1.0000 0.55370  0.50860  0.30680  Biso   1.000  H
  H254     1.0000 0.44630  0.50860  0.19320  Biso   1.000  H
  H255     1.0000 0.05370  0.00860  0.30680  Biso   1.000  H
  H256     1.0000 0.94630  0.00860  0.19320  Biso   1.000  H
  H257     1.0000 0.44130  0.58960  0.76670  Biso   1.000  H
  H258     1.0000 0.55870  0.58960  0.73330  Biso   1.000  H
  H259     1.0000 0.94130  0.08960  0.76670  Biso   1.000  H
  H260     1.0000 0.05870  0.08960  0.73330  Biso   1.000  H
  H261     1.0000 0.55870  0.41040  0.23330  Biso   1.000  H
  H262     1.0000 0.44130  0.41040  0.26670  Biso   1.000  H
  H263     1.0000 0.05870  0.91040  0.23330  Biso   1.000  H
  H264     1.0000 0.94130  0.91040  0.26670  Biso   1.000  H
  N17      1.0000 0.34422  0.73320  0.17220  Biso   1.000  N
  N18      1.0000 0.65578  0.73320  0.32780  Biso   1.000  N
  N19      1.0000 0.84422  0.23320  0.17220  Biso   1.000  N
  N20      1.0000 0.15578  0.23320  0.32780  Biso   1.000  N
  N21      1.0000 0.65578  0.26680  0.82780  Biso   1.000  N
  N22      1.0000 0.34422  0.26680  0.67220  Biso   1.000  N
  N23      1.0000 0.15578  0.76680  0.82780  Biso   1.000  N
  N24      1.0000 0.84422  0.76680  0.67220  Biso   1.000  N
  N25      1.0000 0.49147  0.73140  0.20250  Biso   1.000  N
  N26      1.0000 0.50853  0.73140  0.29750  Biso   1.000  N
  N27      1.0000 0.99147  0.23140  0.20250  Biso   1.000  N
  N28      1.0000 0.00853  0.23140  0.29750  Biso   1.000  N
  N29      1.0000 0.50853  0.26860  0.79750  Biso   1.000  N
  N30      1.0000 0.49147  0.26860  0.70250  Biso   1.000  N
  N31      1.0000 0.00853  0.76860  0.79750  Biso   1.000  N
  N32      1.0000 0.99147  0.76860  0.70250  Biso   1.000  N
  C137     1.0000 0.36498  0.73190  0.27450  Biso   1.000  C
  C138     1.0000 0.63502  0.73190  0.22550  Biso   1.000  C
  C139     1.0000 0.86498  0.23190  0.27450  Biso   1.000  C
  C140     1.0000 0.13502  0.23190  0.22550  Biso   1.000  C
  C141     1.0000 0.63502  0.26810  0.72550  Biso   1.000  C
  C142     1.0000 0.36498  0.26810  0.77450  Biso   1.000  C
  C143     1.0000 0.13502  0.76810  0.72550  Biso   1.000  C
  C144     1.0000 0.86498  0.76810  0.77450  Biso   1.000  C
  H265     1.0000 0.34600  0.73090  0.33780  Biso   1.000  H
  H266     1.0000 0.65400  0.73090  0.16220  Biso   1.000  H
  H267     1.0000 0.84600  0.23090  0.33780  Biso   1.000  H
  H268     1.0000 0.15400  0.23090  0.16220  Biso   1.000  H
  H269     1.0000 0.65400  0.26910  0.66220  Biso   1.000  H
  H270     1.0000 0.34600  0.26910  0.83780  Biso   1.000  H
  H271     1.0000 0.15400  0.76910  0.66220  Biso   1.000  H
  H272     1.0000 0.84600  0.76910  0.83780  Biso   1.000  H
  C145     1.0000 0.41329  0.73190  0.29290  Biso   1.000  C
  C146     1.0000 0.58671  0.73190  0.20710  Biso   1.000  C
  C147     1.0000 0.91329  0.23190  0.29290  Biso   1.000  C
  C148     1.0000 0.08671  0.23190  0.20710  Biso   1.000  C
  C149     1.0000 0.58671  0.26810  0.70710  Biso   1.000  C
  C150     1.0000 0.41329  0.26810  0.79290  Biso   1.000  C
  C151     1.0000 0.08671  0.76810  0.70710  Biso   1.000  C
  C152     1.0000 0.91329  0.76810  0.79290  Biso   1.000  C
  H273     1.0000 0.42640  0.73240  0.36600  Biso   1.000  H
  H274     1.0000 0.57360  0.73240  0.13400  Biso   1.000  H
  H275     1.0000 0.92640  0.23240  0.36600  Biso   1.000  H
  H276     1.0000 0.07360  0.23240  0.13400  Biso   1.000  H
  H277     1.0000 0.57360  0.26760  0.63400  Biso   1.000  H
  H278     1.0000 0.42640  0.26760  0.86600  Biso   1.000  H
  H279     1.0000 0.07360  0.76760  0.63400  Biso   1.000  H
  H280     1.0000 0.92640  0.76760  0.86600  Biso   1.000  H
  C153     1.0000 0.37192  0.73380  0.08300  Biso   1.000  C
  C154     1.0000 0.62808  0.73380  0.41700  Biso   1.000  C
  C155     1.0000 0.87192  0.23380  0.08300  Biso   1.000  C
  C156     1.0000 0.12808  0.23380  0.41700  Biso   1.000  C
  C157     1.0000 0.62808  0.26620  0.91700  Biso   1.000  C
  C158     1.0000 0.37192  0.26620  0.58300  Biso   1.000  C
  C159     1.0000 0.12808  0.76620  0.91700  Biso   1.000  C
  C160     1.0000 0.87192  0.76620  0.58300  Biso   1.000  C
  H281     1.0000 0.35790  0.73550  0.01090  Biso   1.000  H
  H282     1.0000 0.64210  0.73550  0.48910  Biso   1.000  H
  H283     1.0000 0.85790  0.23550  0.01090  Biso   1.000  H
  H284     1.0000 0.14210  0.23550  0.48910  Biso   1.000  H
  H285     1.0000 0.64210  0.26450  0.98910  Biso   1.000  H
  H286     1.0000 0.35790  0.26450  0.51090  Biso   1.000  H
  H287     1.0000 0.14210  0.76450  0.98910  Biso   1.000  H
  H288     1.0000 0.85790  0.76450  0.51090  Biso   1.000  H
  C161     1.0000 0.44113  0.73100  0.19740  Biso   1.000  C
  C162     1.0000 0.55887  0.73100  0.30260  Biso   1.000  C
  C163     1.0000 0.94113  0.23100  0.19740  Biso   1.000  C
  C164     1.0000 0.05887  0.23100  0.30260  Biso   1.000  C
  C165     1.0000 0.55887  0.26900  0.80260  Biso   1.000  C
  C166     1.0000 0.44113  0.26900  0.69740  Biso   1.000  C
  C167     1.0000 0.05887  0.76900  0.80260  Biso   1.000  C
  C168     1.0000 0.94113  0.76900  0.69740  Biso   1.000  C
  C169     1.0000 0.41951  0.73210  0.09040  Biso   1.000  C
  C170     1.0000 0.58049  0.73210  0.40960  Biso   1.000  C
  C171     1.0000 0.91951  0.23210  0.09040  Biso   1.000  C
  C172     1.0000 0.08049  0.23210  0.40960  Biso   1.000  C
  C173     1.0000 0.58049  0.26790  0.90960  Biso   1.000  C
  C174     1.0000 0.41951  0.26790  0.59040  Biso   1.000  C
  C175     1.0000 0.08049  0.76790  0.90960  Biso   1.000  C
  C176     1.0000 0.91951  0.76790  0.59040  Biso   1.000  C
  H289     1.0000 0.43730  0.73170  0.02500  Biso   1.000  H
  H290     1.0000 0.56270  0.73170  0.47500  Biso   1.000  H
  H291     1.0000 0.93730  0.23170  0.02500  Biso   1.000  H
  H292     1.0000 0.06270  0.23170  0.47500  Biso   1.000  H
  H293     1.0000 0.56270  0.26830  0.97500  Biso   1.000  H
  H294     1.0000 0.43730  0.26830  0.52500  Biso   1.000  H
  H295     1.0000 0.06270  0.76830  0.97500  Biso   1.000  H
  H296     1.0000 0.93730  0.76830  0.52500  Biso   1.000  H
