data_image0
_cell_length_a       12.065
_cell_length_b       21.327
_cell_length_c       7.825
_cell_angle_alpha    90
_cell_angle_beta     113.9
_cell_angle_gamma    90

_symmetry_space_group_name_H-M    "P 1"
_symmetry_int_tables_number       1

loop_
  _symmetry_equiv_pos_as_xyz
  'x, y, z'

loop_
  _atom_site_label
  _atom_site_occupancy
  _atom_site_fract_x
  _atom_site_fract_y
  _atom_site_fract_z
  _atom_site_thermal_displace_type
  _atom_site_B_iso_or_equiv
  _atom_site_type_symbol
  Cu1      1.0000 0.00000  0.23490  0.25000  Biso   1.000  Cu
  Cu2      1.0000 0.50000  0.73490  0.25000  Biso   1.000  Cu
  Cu3      1.0000 0.00000  0.76510  0.75000  Biso   1.000  Cu
  Cu4      1.0000 0.50000  0.26510  0.75000  Biso   1.000  Cu
  O1       1.0000 0.09300  0.18770  0.57460  Biso   1.000  O
  O2       1.0000 0.59300  0.68770  0.57460  Biso   1.000  O
  O3       1.0000 0.90700  0.18770  0.92540  Biso   1.000  O
  O4       1.0000 0.40700  0.68770  0.92540  Biso   1.000  O
  O5       1.0000 0.90700  0.81230  0.42540  Biso   1.000  O
  O6       1.0000 0.40700  0.31230  0.42540  Biso   1.000  O
  O7       1.0000 0.09300  0.81230  0.07460  Biso   1.000  O
  O8       1.0000 0.59300  0.31230  0.07460  Biso   1.000  O
  O9       1.0000 0.12370  0.16640  0.32220  Biso   1.000  O
  O10      1.0000 0.62370  0.66640  0.32220  Biso   1.000  O
  O11      1.0000 0.87630  0.16640  0.17780  Biso   1.000  O
  O12      1.0000 0.37630  0.66640  0.17780  Biso   1.000  O
  O13      1.0000 0.87630  0.83360  0.67780  Biso   1.000  O
  O14      1.0000 0.37630  0.33360  0.67780  Biso   1.000  O
  O15      1.0000 0.12370  0.83360  0.82220  Biso   1.000  O
  O16      1.0000 0.62370  0.33360  0.82220  Biso   1.000  O
  O17      1.0000 0.37400  0.20280  0.69270  Biso   1.000  O
  O18      1.0000 0.87400  0.70280  0.69270  Biso   1.000  O
  O19      1.0000 0.62600  0.20280  0.80730  Biso   1.000  O
  O20      1.0000 0.12600  0.70280  0.80730  Biso   1.000  O
  O21      1.0000 0.62600  0.79720  0.30730  Biso   1.000  O
  O22      1.0000 0.12600  0.29720  0.30730  Biso   1.000  O
  O23      1.0000 0.37400  0.79720  0.19270  Biso   1.000  O
  O24      1.0000 0.87400  0.29720  0.19270  Biso   1.000  O
  O25      1.0000 0.44330  0.16500  0.98350  Biso   1.000  O
  O26      1.0000 0.94330  0.66500  0.98350  Biso   1.000  O
  O27      1.0000 0.55670  0.16500  0.51650  Biso   1.000  O
  O28      1.0000 0.05670  0.66500  0.51650  Biso   1.000  O
  O29      1.0000 0.55670  0.83500  0.01650  Biso   1.000  O
  O30      1.0000 0.05670  0.33500  0.01650  Biso   1.000  O
  O31      1.0000 0.44330  0.83500  0.48350  Biso   1.000  O
  O32      1.0000 0.94330  0.33500  0.48350  Biso   1.000  O
  C1       1.0000 0.20950  0.09690  0.58040  Biso   1.000  C
  C2       1.0000 0.70950  0.59690  0.58040  Biso   1.000  C
  C3       1.0000 0.79050  0.09690  0.91960  Biso   1.000  C
  C4       1.0000 0.29050  0.59690  0.91960  Biso   1.000  C
  C5       1.0000 0.79050  0.90310  0.41960  Biso   1.000  C
  C6       1.0000 0.29050  0.40310  0.41960  Biso   1.000  C
  C7       1.0000 0.20950  0.90310  0.08040  Biso   1.000  C
  C8       1.0000 0.70950  0.40310  0.08040  Biso   1.000  C
  C9       1.0000 0.31760  0.09930  0.73600  Biso   1.000  C
  C10      1.0000 0.81760  0.59930  0.73600  Biso   1.000  C
  C11      1.0000 0.68240  0.09930  0.76400  Biso   1.000  C
  C12      1.0000 0.18240  0.59930  0.76400  Biso   1.000  C
  C13      1.0000 0.68240  0.90070  0.26400  Biso   1.000  C
  C14      1.0000 0.18240  0.40070  0.26400  Biso   1.000  C
  C15      1.0000 0.31760  0.90070  0.23600  Biso   1.000  C
  C16      1.0000 0.81760  0.40070  0.23600  Biso   1.000  C
  C17      1.0000 0.37560  0.04400  0.82130  Biso   1.000  C
  C18      1.0000 0.87560  0.54400  0.82130  Biso   1.000  C
  C19      1.0000 0.62440  0.04400  0.67870  Biso   1.000  C
  C20      1.0000 0.12440  0.54400  0.67870  Biso   1.000  C
  C21      1.0000 0.62440  0.95600  0.17870  Biso   1.000  C
  C22      1.0000 0.12440  0.45600  0.17870  Biso   1.000  C
  C23      1.0000 0.37560  0.95600  0.32130  Biso   1.000  C
  C24      1.0000 0.87560  0.45600  0.32130  Biso   1.000  C
  C25      1.0000 0.32020  0.98650  0.74800  Biso   1.000  C
  C26      1.0000 0.82020  0.48650  0.74800  Biso   1.000  C
  C27      1.0000 0.67980  0.98650  0.75200  Biso   1.000  C
  C28      1.0000 0.17980  0.48650  0.75200  Biso   1.000  C
  C29      1.0000 0.67980  0.01350  0.25200  Biso   1.000  C
  C30      1.0000 0.17980  0.51350  0.25200  Biso   1.000  C
  C31      1.0000 0.32020  0.01350  0.24800  Biso   1.000  C
  C32      1.0000 0.82020  0.51350  0.24800  Biso   1.000  C
  C33      1.0000 0.21320  0.98370  0.59860  Biso   1.000  C
  C34      1.0000 0.71320  0.48370  0.59860  Biso   1.000  C
  C35      1.0000 0.78680  0.98370  0.90140  Biso   1.000  C
  C36      1.0000 0.28680  0.48370  0.90140  Biso   1.000  C
  C37      1.0000 0.78680  0.01630  0.40140  Biso   1.000  C
  C38      1.0000 0.28680  0.51630  0.40140  Biso   1.000  C
  C39      1.0000 0.21320  0.01630  0.09860  Biso   1.000  C
  C40      1.0000 0.71320  0.51630  0.09860  Biso   1.000  C
  C41      1.0000 0.15440  0.03920  0.51230  Biso   1.000  C
  C42      1.0000 0.65440  0.53920  0.51230  Biso   1.000  C
  C43      1.0000 0.84560  0.03920  0.98770  Biso   1.000  C
  C44      1.0000 0.34560  0.53920  0.98770  Biso   1.000  C
  C45      1.0000 0.84560  0.96080  0.48770  Biso   1.000  C
  C46      1.0000 0.34560  0.46080  0.48770  Biso   1.000  C
  C47      1.0000 0.15440  0.96080  0.01230  Biso   1.000  C
  C48      1.0000 0.65440  0.46080  0.01230  Biso   1.000  C
  C49      1.0000 0.13940  0.15460  0.48860  Biso   1.000  C
  C50      1.0000 0.63940  0.65460  0.48860  Biso   1.000  C
  C51      1.0000 0.86060  0.15460  0.01140  Biso   1.000  C
  C52      1.0000 0.36060  0.65460  0.01140  Biso   1.000  C
  C53      1.0000 0.86060  0.84540  0.51140  Biso   1.000  C
  C54      1.0000 0.36060  0.34540  0.51140  Biso   1.000  C
  C55      1.0000 0.13940  0.84540  0.98860  Biso   1.000  C
  C56      1.0000 0.63940  0.34540  0.98860  Biso   1.000  C
  C57      1.0000 0.38420  0.15990  0.81540  Biso   1.000  C
  C58      1.0000 0.88420  0.65990  0.81540  Biso   1.000  C
  C59      1.0000 0.61580  0.15990  0.68460  Biso   1.000  C
  C60      1.0000 0.11580  0.65990  0.68460  Biso   1.000  C
  C61      1.0000 0.61580  0.84010  0.18460  Biso   1.000  C
  C62      1.0000 0.11580  0.34010  0.18460  Biso   1.000  C
  C63      1.0000 0.38420  0.84010  0.31540  Biso   1.000  C
  C64      1.0000 0.88420  0.34010  0.31540  Biso   1.000  C
  H1       1.0000 0.46800  0.04200  0.92900  Biso   1.000  H
  H2       1.0000 0.96800  0.54200  0.92900  Biso   1.000  H
  H3       1.0000 0.53200  0.04200  0.57100  Biso   1.000  H
  H4       1.0000 0.03200  0.54200  0.57100  Biso   1.000  H
  H5       1.0000 0.53200  0.95800  0.07100  Biso   1.000  H
  H6       1.0000 0.03200  0.45800  0.07100  Biso   1.000  H
  H7       1.0000 0.46800  0.95800  0.42900  Biso   1.000  H
  H8       1.0000 0.96800  0.45800  0.42900  Biso   1.000  H
  H9       1.0000 0.37300  0.94700  0.82000  Biso   1.000  H
  H10      1.0000 0.87300  0.44700  0.82000  Biso   1.000  H
  H11      1.0000 0.62700  0.94700  0.68000  Biso   1.000  H
  H12      1.0000 0.12700  0.44700  0.68000  Biso   1.000  H
  H13      1.0000 0.62700  0.05300  0.18000  Biso   1.000  H
  H14      1.0000 0.12700  0.55300  0.18000  Biso   1.000  H
  H15      1.0000 0.37300  0.05300  0.32000  Biso   1.000  H
  H16      1.0000 0.87300  0.55300  0.32000  Biso   1.000  H
  H17      1.0000 0.15200  0.94700  0.53500  Biso   1.000  H
  H18      1.0000 0.65200  0.44700  0.53500  Biso   1.000  H
  H19      1.0000 0.84800  0.94700  0.96500  Biso   1.000  H
  H20      1.0000 0.34800  0.44700  0.96500  Biso   1.000  H
  H21      1.0000 0.84800  0.05300  0.46500  Biso   1.000  H
  H22      1.0000 0.34800  0.55300  0.46500  Biso   1.000  H
  H23      1.0000 0.15200  0.05300  0.03500  Biso   1.000  H
  H24      1.0000 0.65200  0.55300  0.03500  Biso   1.000  H
  H25      1.0000 0.06200  0.03600  0.39800  Biso   1.000  H
  H26      1.0000 0.56200  0.53600  0.39800  Biso   1.000  H
  H27      1.0000 0.93800  0.03600  0.10200  Biso   1.000  H
  H28      1.0000 0.43800  0.53600  0.10200  Biso   1.000  H
  H29      1.0000 0.93800  0.96400  0.60200  Biso   1.000  H
  H30      1.0000 0.43800  0.46400  0.60200  Biso   1.000  H
  H31      1.0000 0.06200  0.96400  0.89800  Biso   1.000  H
  H32      1.0000 0.56200  0.46400  0.89800  Biso   1.000  H
  K1       1.0000 0.33380  0.19670  0.26900  Biso   1.000  K
  K2       1.0000 0.83380  0.69670  0.26900  Biso   1.000  K
  K3       1.0000 0.66620  0.19670  0.23100  Biso   1.000  K
  K4       1.0000 0.16620  0.69670  0.23100  Biso   1.000  K
  K5       1.0000 0.66620  0.80330  0.73100  Biso   1.000  K
  K6       1.0000 0.16620  0.30330  0.73100  Biso   1.000  K
  K7       1.0000 0.33380  0.80330  0.76900  Biso   1.000  K
  K8       1.0000 0.83380  0.30330  0.76900  Biso   1.000  K
  O33      1.0000 0.35080  0.32020  0.05100  Biso   1.000  O
  O34      1.0000 0.85080  0.82020  0.05100  Biso   1.000  O
  O35      1.0000 0.64920  0.32020  0.44900  Biso   1.000  O
  O36      1.0000 0.14920  0.82020  0.44900  Biso   1.000  O
  O37      1.0000 0.64920  0.67980  0.94900  Biso   1.000  O
  O38      1.0000 0.14920  0.17980  0.94900  Biso   1.000  O
  O39      1.0000 0.35080  0.67980  0.55100  Biso   1.000  O
  O40      1.0000 0.85080  0.17980  0.55100  Biso   1.000  O
  H33      1.0000 0.35700  0.32800  0.14900  Biso   1.000  H
  H34      1.0000 0.85700  0.82800  0.14900  Biso   1.000  H
  H35      1.0000 0.64300  0.32800  0.35100  Biso   1.000  H
  H36      1.0000 0.14300  0.82800  0.35100  Biso   1.000  H
  H37      1.0000 0.64300  0.67200  0.85100  Biso   1.000  H
  H38      1.0000 0.14300  0.17200  0.85100  Biso   1.000  H
  H39      1.0000 0.35700  0.67200  0.64900  Biso   1.000  H
  H40      1.0000 0.85700  0.17200  0.64900  Biso   1.000  H
  H41      1.0000 0.42900  0.31500  0.03900  Biso   1.000  H
  H42      1.0000 0.92900  0.81500  0.03900  Biso   1.000  H
  H43      1.0000 0.57100  0.31500  0.46100  Biso   1.000  H
  H44      1.0000 0.07100  0.81500  0.46100  Biso   1.000  H
  H45      1.0000 0.57100  0.68500  0.96100  Biso   1.000  H
  H46      1.0000 0.07100  0.18500  0.96100  Biso   1.000  H
  H47      1.0000 0.42900  0.68500  0.53900  Biso   1.000  H
  H48      1.0000 0.92900  0.18500  0.53900  Biso   1.000  H
