data_image0
_cell_length_a       7.8972
_cell_length_b       14.975
_cell_length_c       10.4944
_cell_angle_alpha    90
_cell_angle_beta     95.14
_cell_angle_gamma    90

_symmetry_space_group_name_H-M    "P 1"
_symmetry_int_tables_number       1

loop_
  _symmetry_equiv_pos_as_xyz
  'x, y, z'

loop_
  _atom_site_label
  _atom_site_occupancy
  _atom_site_fract_x
  _atom_site_fract_y
  _atom_site_fract_z
  _atom_site_thermal_displace_type
  _atom_site_B_iso_or_equiv
  _atom_site_type_symbol
  Cu1      1.0000 0.49920  0.10253  0.61722  Biso   1.000  Cu
  Cu2      1.0000 0.49920  0.89747  0.11722  Biso   1.000  Cu
  Cu3      1.0000 0.99920  0.60253  0.61722  Biso   1.000  Cu
  Cu4      1.0000 0.99920  0.39747  0.11722  Biso   1.000  Cu
  S1       1.0000 0.78870  0.07900  0.42920  Biso   1.000  S
  S2       1.0000 0.78870  0.92100  0.92920  Biso   1.000  S
  S3       1.0000 0.28870  0.57900  0.42920  Biso   1.000  S
  S4       1.0000 0.28870  0.42100  0.92920  Biso   1.000  S
  S5       1.0000 0.22820  0.10110  0.82340  Biso   1.000  S
  S6       1.0000 0.22820  0.89890  0.32340  Biso   1.000  S
  S7       1.0000 0.72820  0.60110  0.82340  Biso   1.000  S
  S8       1.0000 0.72820  0.39890  0.32340  Biso   1.000  S
  N1       1.0000 0.33910  0.20050  0.55760  Biso   1.000  N
  N2       1.0000 0.33910  0.79950  0.05760  Biso   1.000  N
  N3       1.0000 0.83910  0.70050  0.55760  Biso   1.000  N
  N4       1.0000 0.83910  0.29950  0.05760  Biso   1.000  N
  N5       1.0000 0.64910  0.20770  0.66850  Biso   1.000  N
  N6       1.0000 0.64910  0.79230  0.16850  Biso   1.000  N
  N7       1.0000 0.14910  0.70770  0.66850  Biso   1.000  N
  N8       1.0000 0.14910  0.29230  0.16850  Biso   1.000  N
  N9       1.0000 0.27460  0.34470  0.54430  Biso   1.000  N
  N10      1.0000 0.27460  0.65530  0.04430  Biso   1.000  N
  N11      1.0000 0.77460  0.84470  0.54430  Biso   1.000  N
  N12      1.0000 0.77460  0.15530  0.04430  Biso   1.000  N
  H1       1.0000 0.28000  0.40340  0.54900  Biso   1.000  H
  H2       1.0000 0.28000  0.59660  0.04900  Biso   1.000  H
  H3       1.0000 0.78000  0.90340  0.54900  Biso   1.000  H
  H4       1.0000 0.78000  0.09660  0.04900  Biso   1.000  H
  N13      1.0000 0.63150  0.98050  0.22510  Biso   1.000  N
  N14      1.0000 0.63150  0.01950  0.72510  Biso   1.000  N
  N15      1.0000 0.13150  0.48050  0.22510  Biso   1.000  N
  N16      1.0000 0.13150  0.51950  0.72510  Biso   1.000  N
  N17      1.0000 0.36790  0.98760  0.01020  Biso   1.000  N
  N18      1.0000 0.36790  0.01240  0.51020  Biso   1.000  N
  N19      1.0000 0.86790  0.48760  0.01020  Biso   1.000  N
  N20      1.0000 0.86790  0.51240  0.51020  Biso   1.000  N
  C1       1.0000 0.80620  0.20430  0.72190  Biso   1.000  C
  C2       1.0000 0.80620  0.79570  0.22190  Biso   1.000  C
  C3       1.0000 0.30620  0.70430  0.72190  Biso   1.000  C
  C4       1.0000 0.30620  0.29570  0.22190  Biso   1.000  C
  H5       1.0000 0.85940  0.14840  0.74100  Biso   1.000  H
  H6       1.0000 0.85940  0.85160  0.24100  Biso   1.000  H
  H7       1.0000 0.35940  0.64840  0.74100  Biso   1.000  H
  H8       1.0000 0.35940  0.35160  0.24100  Biso   1.000  H
  C5       1.0000 0.89600  0.28590  0.75090  Biso   1.000  C
  C6       1.0000 0.89600  0.71410  0.25090  Biso   1.000  C
  C7       1.0000 0.39600  0.78590  0.75090  Biso   1.000  C
  C8       1.0000 0.39600  0.21410  0.25090  Biso   1.000  C
  H9       1.0000 0.01070  0.28560  0.78700  Biso   1.000  H
  H10      1.0000 0.01070  0.71440  0.28700  Biso   1.000  H
  H11      1.0000 0.51070  0.78560  0.78700  Biso   1.000  H
  H12      1.0000 0.51070  0.21440  0.28700  Biso   1.000  H
  C9       1.0000 0.81210  0.36320  0.72500  Biso   1.000  C
  C10      1.0000 0.81210  0.63680  0.22500  Biso   1.000  C
  C11      1.0000 0.31210  0.86320  0.72500  Biso   1.000  C
  C12      1.0000 0.31210  0.13680  0.22500  Biso   1.000  C
  H13      1.0000 0.87130  0.41730  0.74510  Biso   1.000  H
  H14      1.0000 0.87130  0.58270  0.24510  Biso   1.000  H
  H15      1.0000 0.37130  0.91730  0.74510  Biso   1.000  H
  H16      1.0000 0.37130  0.08270  0.24510  Biso   1.000  H
  C13      1.0000 0.65380  0.36900  0.67390  Biso   1.000  C
  C14      1.0000 0.65380  0.63100  0.17390  Biso   1.000  C
  C15      1.0000 0.15380  0.86900  0.67390  Biso   1.000  C
  C16      1.0000 0.15380  0.13100  0.17390  Biso   1.000  C
  H17      1.0000 0.59720  0.42430  0.65760  Biso   1.000  H
  H18      1.0000 0.59720  0.57570  0.15760  Biso   1.000  H
  H19      1.0000 0.09720  0.92430  0.65760  Biso   1.000  H
  H20      1.0000 0.09720  0.07570  0.15760  Biso   1.000  H
  C17      1.0000 0.57760  0.28760  0.64620  Biso   1.000  C
  C18      1.0000 0.57760  0.71240  0.14620  Biso   1.000  C
  C19      1.0000 0.07760  0.78760  0.64620  Biso   1.000  C
  C20      1.0000 0.07760  0.21240  0.14620  Biso   1.000  C
  C21      1.0000 0.41000  0.28350  0.58640  Biso   1.000  C
  C22      1.0000 0.41000  0.71650  0.08640  Biso   1.000  C
  C23      1.0000 0.91000  0.78350  0.58640  Biso   1.000  C
  C24      1.0000 0.91000  0.21650  0.08640  Biso   1.000  C
  C25      1.0000 0.17960  0.21170  0.50560  Biso   1.000  C
  C26      1.0000 0.17960  0.78830  0.00560  Biso   1.000  C
  C27      1.0000 0.67960  0.71170  0.50560  Biso   1.000  C
  C28      1.0000 0.67960  0.28830  0.00560  Biso   1.000  C
  H21      1.0000 0.10620  0.16370  0.47880  Biso   1.000  H
  H22      1.0000 0.10620  0.83630  0.97880  Biso   1.000  H
  H23      1.0000 0.60620  0.66370  0.47880  Biso   1.000  H
  H24      1.0000 0.60620  0.33630  0.97880  Biso   1.000  H
  C29      1.0000 0.13560  0.29570  0.49550  Biso   1.000  C
  C30      1.0000 0.13560  0.70430  0.99550  Biso   1.000  C
  C31      1.0000 0.63560  0.79570  0.49550  Biso   1.000  C
  C32      1.0000 0.63560  0.20430  0.99550  Biso   1.000  C
  H25      1.0000 0.02880  0.31860  0.46130  Biso   1.000  H
  H26      1.0000 0.02880  0.68140  0.96130  Biso   1.000  H
  H27      1.0000 0.52880  0.81860  0.46130  Biso   1.000  H
  H28      1.0000 0.52880  0.18140  0.96130  Biso   1.000  H
  C33      1.0000 0.69840  0.02020  0.31000  Biso   1.000  C
  C34      1.0000 0.69840  0.97980  0.81000  Biso   1.000  C
  C35      1.0000 0.19840  0.52020  0.31000  Biso   1.000  C
  C36      1.0000 0.19840  0.47980  0.81000  Biso   1.000  C
  C37      1.0000 0.31200  0.03320  0.93620  Biso   1.000  C
  C38      1.0000 0.31200  0.96680  0.43620  Biso   1.000  C
  C39      1.0000 0.81200  0.53320  0.93620  Biso   1.000  C
  C40      1.0000 0.81200  0.46680  0.43620  Biso   1.000  C
