data_image0
_cell_length_a       9.5176
_cell_length_b       16.4831
_cell_length_c       7.6488
_cell_angle_alpha    90
_cell_angle_beta     99.988
_cell_angle_gamma    90

_symmetry_space_group_name_H-M    "P 1"
_symmetry_int_tables_number       1

loop_
  _symmetry_equiv_pos_as_xyz
  'x, y, z'

loop_
  _atom_site_label
  _atom_site_occupancy
  _atom_site_fract_x
  _atom_site_fract_y
  _atom_site_fract_z
  _atom_site_thermal_displace_type
  _atom_site_B_iso_or_equiv
  _atom_site_type_symbol
  Cu1      1.0000 0.14811  0.12284  0.37252  Biso   1.000  Cu
  Cu2      1.0000 0.85189  0.62284  0.12748  Biso   1.000  Cu
  Cu3      1.0000 0.85189  0.87716  0.62748  Biso   1.000  Cu
  Cu4      1.0000 0.14811  0.37716  0.87252  Biso   1.000  Cu
  S1       1.0000 0.28778  0.38203  0.59795  Biso   1.000  S
  S2       1.0000 0.71222  0.88203  0.90205  Biso   1.000  S
  S3       1.0000 0.71222  0.61797  0.40205  Biso   1.000  S
  S4       1.0000 0.28778  0.11797  0.09795  Biso   1.000  S
  S5       1.0000 0.68222  0.18911  0.08472  Biso   1.000  S
  S6       1.0000 0.31778  0.68911  0.41528  Biso   1.000  S
  S7       1.0000 0.31778  0.81089  0.91528  Biso   1.000  S
  S8       1.0000 0.68222  0.31089  0.58472  Biso   1.000  S
  N1       1.0000 0.31232  0.08117  0.55223  Biso   1.000  N
  N2       1.0000 0.68768  0.58117  0.94777  Biso   1.000  N
  N3       1.0000 0.68768  0.91883  0.44777  Biso   1.000  N
  N4       1.0000 0.31232  0.41883  0.05223  Biso   1.000  N
  N5       1.0000 0.42261  0.97727  0.69270  Biso   1.000  N
  N6       1.0000 0.57739  0.47727  0.80730  Biso   1.000  N
  N7       1.0000 0.57739  0.02273  0.30730  Biso   1.000  N
  N8       1.0000 0.42261  0.52273  0.19270  Biso   1.000  N
  H1       1.0000 0.44390  0.92810  0.72450  Biso   1.000  H
  H2       1.0000 0.55610  0.42810  0.77550  Biso   1.000  H
  H3       1.0000 0.55610  0.07190  0.27550  Biso   1.000  H
  H4       1.0000 0.44390  0.57190  0.22450  Biso   1.000  H
  N9       1.0000 0.10836  0.00363  0.34882  Biso   1.000  N
  N10      1.0000 0.89164  0.50363  0.15118  Biso   1.000  N
  N11      1.0000 0.89164  0.99637  0.65118  Biso   1.000  N
  N12      1.0000 0.10836  0.49637  0.84882  Biso   1.000  N
  N13      1.0000 0.18190  0.87942  0.41180  Biso   1.000  N
  N14      1.0000 0.81810  0.37942  0.08820  Biso   1.000  N
  N15      1.0000 0.81810  0.12058  0.58820  Biso   1.000  N
  N16      1.0000 0.18190  0.62058  0.91180  Biso   1.000  N
  H5       1.0000 0.23220  0.83940  0.46010  Biso   1.000  H
  H6       1.0000 0.76780  0.33940  0.03990  Biso   1.000  H
  H7       1.0000 0.76780  0.16060  0.53990  Biso   1.000  H
  H8       1.0000 0.23220  0.66060  0.96010  Biso   1.000  H
  N17      1.0000 0.19380  0.23411  0.44790  Biso   1.000  N
  N18      1.0000 0.80620  0.73411  0.05210  Biso   1.000  N
  N19      1.0000 0.80620  0.76589  0.55210  Biso   1.000  N
  N20      1.0000 0.19380  0.26589  0.94790  Biso   1.000  N
  N21      1.0000 0.96044  0.15073  0.23620  Biso   1.000  N
  N22      1.0000 0.03956  0.65073  0.26380  Biso   1.000  N
  N23      1.0000 0.03956  0.84927  0.76380  Biso   1.000  N
  N24      1.0000 0.96044  0.34927  0.73620  Biso   1.000  N
  C1       1.0000 0.42480  0.10977  0.67260  Biso   1.000  C
  C2       1.0000 0.57520  0.60977  0.82740  Biso   1.000  C
  C3       1.0000 0.57520  0.89023  0.32740  Biso   1.000  C
  C4       1.0000 0.42480  0.39023  0.17260  Biso   1.000  C
  H9       1.0000 0.44990  0.16400  0.69100  Biso   1.000  H
  H10      1.0000 0.55010  0.66400  0.80900  Biso   1.000  H
  H11      1.0000 0.55010  0.83600  0.30900  Biso   1.000  H
  H12      1.0000 0.44990  0.33600  0.19100  Biso   1.000  H
  C5       1.0000 0.49350  0.04581  0.76060  Biso   1.000  C
  C6       1.0000 0.50650  0.54581  0.73940  Biso   1.000  C
  C7       1.0000 0.50650  0.95419  0.23940  Biso   1.000  C
  C8       1.0000 0.49350  0.45419  0.26060  Biso   1.000  C
  H13      1.0000 0.57340  0.04800  0.84990  Biso   1.000  H
  H14      1.0000 0.42660  0.54800  0.65010  Biso   1.000  H
  H15      1.0000 0.42660  0.95200  0.15010  Biso   1.000  H
  H16      1.0000 0.57340  0.45200  0.34990  Biso   1.000  H
  C9       1.0000 0.31375  0.00115  0.56750  Biso   1.000  C
  C10      1.0000 0.68625  0.50115  0.93250  Biso   1.000  C
  C11      1.0000 0.68625  0.99885  0.43250  Biso   1.000  C
  C12      1.0000 0.31375  0.49885  0.06750  Biso   1.000  C
  C13      1.0000 0.20525  0.95789  0.44920  Biso   1.000  C
  C14      1.0000 0.79475  0.45789  0.05080  Biso   1.000  C
  C15      1.0000 0.79475  0.04211  0.55080  Biso   1.000  C
  C16      1.0000 0.20525  0.54211  0.94920  Biso   1.000  C
  C17      1.0000 0.01860  0.95119  0.24380  Biso   1.000  C
  C18      1.0000 0.98140  0.45119  0.25620  Biso   1.000  C
  C19      1.0000 0.98140  0.04881  0.75620  Biso   1.000  C
  C20      1.0000 0.01860  0.54881  0.74380  Biso   1.000  C
  H17      1.0000 0.94010  0.96610  0.15990  Biso   1.000  H
  H18      1.0000 0.05990  0.46610  0.34010  Biso   1.000  H
  H19      1.0000 0.05990  0.03390  0.84010  Biso   1.000  H
  H20      1.0000 0.94010  0.53390  0.65990  Biso   1.000  H
  C21      1.0000 0.06300  0.87440  0.28230  Biso   1.000  C
  C22      1.0000 0.93700  0.37440  0.21770  Biso   1.000  C
  C23      1.0000 0.93700  0.12560  0.71770  Biso   1.000  C
  C24      1.0000 0.06300  0.62560  0.78230  Biso   1.000  C
  H21      1.0000 0.02110  0.82720  0.23080  Biso   1.000  H
  H22      1.0000 0.97890  0.32720  0.26920  Biso   1.000  H
  H23      1.0000 0.97890  0.17280  0.76920  Biso   1.000  H
  H24      1.0000 0.02110  0.67280  0.73080  Biso   1.000  H
  C25      1.0000 0.23400  0.29470  0.51070  Biso   1.000  C
  C26      1.0000 0.76600  0.79470  0.98930  Biso   1.000  C
  C27      1.0000 0.76600  0.70530  0.48930  Biso   1.000  C
  C28      1.0000 0.23400  0.20530  0.01070  Biso   1.000  C
  C29      1.0000 0.84640  0.16621  0.17130  Biso   1.000  C
  C30      1.0000 0.15360  0.66621  0.32870  Biso   1.000  C
  C31      1.0000 0.15360  0.83379  0.82870  Biso   1.000  C
  C32      1.0000 0.84640  0.33379  0.67130  Biso   1.000  C
