data_image0
_cell_length_a       7.253
_cell_length_b       11.567
_cell_length_c       13.91
_cell_angle_alpha    74.62
_cell_angle_beta     76.86
_cell_angle_gamma    82.51

_symmetry_space_group_name_H-M    "P 1"
_symmetry_int_tables_number       1

loop_
  _symmetry_equiv_pos_as_xyz
  'x, y, z'

loop_
  _atom_site_label
  _atom_site_occupancy
  _atom_site_fract_x
  _atom_site_fract_y
  _atom_site_fract_z
  _atom_site_thermal_displace_type
  _atom_site_B_iso_or_equiv
  _atom_site_type_symbol
  Cu1      1.0000 0.64900  0.70193  0.88138  Biso   1.000  Cu
  Cu2      1.0000 0.35100  0.29807  0.11862  Biso   1.000  Cu
  Cu3      1.0000 0.04730  0.32086  0.79170  Biso   1.000  Cu
  Cu4      1.0000 0.95270  0.67914  0.20830  Biso   1.000  Cu
  O1       1.0000 0.96060  0.53810  0.70790  Biso   1.000  O
  O2       1.0000 0.03940  0.46190  0.29210  Biso   1.000  O
  O3       1.0000 0.83130  0.76530  0.68910  Biso   1.000  O
  O4       1.0000 0.16870  0.23470  0.31090  Biso   1.000  O
  O5       1.0000 0.23770  0.26900  0.68380  Biso   1.000  O
  O6       1.0000 0.76230  0.73100  0.31620  Biso   1.000  O
  O7       1.0000 0.79310  0.81670  0.90000  Biso   1.000  O
  O8       1.0000 0.20690  0.18330  0.10000  Biso   1.000  O
  O9       1.0000 0.82020  0.35060  0.89180  Biso   1.000  O
  O10      1.0000 0.17980  0.64940  0.10820  Biso   1.000  O
  O11      1.0000 0.17510  0.61510  0.85070  Biso   1.000  O
  O12      1.0000 0.82490  0.38490  0.14930  Biso   1.000  O
  O13      1.0000 0.26280  0.14060  0.58670  Biso   1.000  O
  O14      1.0000 0.73720  0.85940  0.41330  Biso   1.000  O
  N1       1.0000 0.47840  0.83690  0.82380  Biso   1.000  N
  N2       1.0000 0.52160  0.16310  0.17620  Biso   1.000  N
  O15      1.0000 0.51400  0.30090  0.94660  Biso   1.000  O
  O16      1.0000 0.48600  0.69910  0.05340  Biso   1.000  O
  O17      1.0000 0.47780  0.60620  0.85790  Biso   1.000  O
  O18      1.0000 0.52220  0.39380  0.14210  Biso   1.000  O
  C1       1.0000 0.95490  0.19470  0.67050  Biso   1.000  C
  C2       1.0000 0.04510  0.80530  0.32950  Biso   1.000  C
  H1       1.0000 0.92760  0.12020  0.72150  Biso   1.000  H
  H2       1.0000 0.07240  0.87980  0.27850  Biso   1.000  H
  H3       1.0000 0.90570  0.19350  0.61160  Biso   1.000  H
  H4       1.0000 0.09430  0.80650  0.38840  Biso   1.000  H
  O19      1.0000 0.75590  0.00900  0.91420  Biso   1.000  O
  O20      1.0000 0.24410  0.99100  0.08580  Biso   1.000  O
  C3       1.0000 0.69060  0.27740  0.78550  Biso   1.000  C
  C4       1.0000 0.30940  0.72260  0.21450  Biso   1.000  C
  H5       1.0000 0.67750  0.19150  0.80240  Biso   1.000  H
  H6       1.0000 0.32250  0.80850  0.19760  Biso   1.000  H
  H7       1.0000 0.58590  0.31660  0.75310  Biso   1.000  H
  H8       1.0000 0.41410  0.68340  0.24690  Biso   1.000  H
  N3       1.0000 0.86020  0.30080  0.71280  Biso   1.000  N
  N4       1.0000 0.13980  0.69920  0.28720  Biso   1.000  N
  C5       1.0000 0.26450  0.59790  0.60580  Biso   1.000  C
  C6       1.0000 0.73550  0.40210  0.39420  Biso   1.000  C
  H9       1.0000 0.31100  0.51780  0.61430  Biso   1.000  H
  H10      1.0000 0.68900  0.48220  0.38570  Biso   1.000  H
  C7       1.0000 0.38120  0.68850  0.54840  Biso   1.000  C
  C8       1.0000 0.61880  0.31150  0.45160  Biso   1.000  C
  H11      1.0000 0.50580  0.66900  0.51860  Biso   1.000  H
  H12      1.0000 0.49420  0.33100  0.48140  Biso   1.000  H
  C9       1.0000 0.31170  0.80820  0.53560  Biso   1.000  C
  C10      1.0000 0.68830  0.19180  0.46440  Biso   1.000  C
  H13      1.0000 0.38980  0.86890  0.49730  Biso   1.000  H
  H14      1.0000 0.61020  0.13110  0.50270  Biso   1.000  H
  C11      1.0000 0.12560  0.83740  0.58020  Biso   1.000  C
  C12      1.0000 0.87440  0.16260  0.41980  Biso   1.000  C
  H15      1.0000 0.07910  0.91750  0.57160  Biso   1.000  H
  H16      1.0000 0.92090  0.08250  0.42840  Biso   1.000  H
  C13      1.0000 0.00890  0.74670  0.63750  Biso   1.000  C
  C14      1.0000 0.99110  0.25330  0.36250  Biso   1.000  C
  C15      1.0000 0.07840  0.62700  0.65030  Biso   1.000  C
  C16      1.0000 0.92160  0.37300  0.34970  Biso   1.000  C
  C17      1.0000 0.29450  0.79340  0.85520  Biso   1.000  C
  C18      1.0000 0.70550  0.20660  0.14480  Biso   1.000  C
  H17      1.0000 0.21200  0.84090  0.81090  Biso   1.000  H
  H18      1.0000 0.78800  0.15910  0.18910  Biso   1.000  H
  H19      1.0000 0.24000  0.79980  0.92420  Biso   1.000  H
  H20      1.0000 0.76000  0.20020  0.07580  Biso   1.000  H
  C19      1.0000 0.80000  0.52210  0.66800  Biso   1.000  C
  C20      1.0000 0.20000  0.47790  0.33200  Biso   1.000  C
  H21      1.0000 0.78150  0.58930  0.61120  Biso   1.000  H
  H22      1.0000 0.21850  0.41070  0.38880  Biso   1.000  H
  H23      1.0000 0.68510  0.51790  0.72030  Biso   1.000  H
  H24      1.0000 0.31490  0.48210  0.27970  Biso   1.000  H
  C21      1.0000 0.73760  0.88380  0.66420  Biso   1.000  C
  C22      1.0000 0.26240  0.11620  0.33580  Biso   1.000  C
  H25      1.0000 0.75800  0.91460  0.59090  Biso   1.000  H
  H26      1.0000 0.24200  0.08540  0.40910  Biso   1.000  H
  H27      1.0000 0.78860  0.93800  0.69240  Biso   1.000  H
  H28      1.0000 0.21140  0.06200  0.30760  Biso   1.000  H
  C23      1.0000 0.84230  0.40640  0.63350  Biso   1.000  C
  C24      1.0000 0.15770  0.59360  0.36650  Biso   1.000  C
  H29      1.0000 0.74160  0.39800  0.60080  Biso   1.000  H
  H30      1.0000 0.25840  0.60200  0.39920  Biso   1.000  H
  H31      1.0000 0.95940  0.41190  0.58280  Biso   1.000  H
  H32      1.0000 0.04060  0.58810  0.41720  Biso   1.000  H
  C25      1.0000 0.16500  0.20520  0.64090  Biso   1.000  C
  C26      1.0000 0.83500  0.79480  0.35910  Biso   1.000  C
  C27      1.0000 0.53020  0.87550  0.70800  Biso   1.000  C
  C28      1.0000 0.46980  0.12450  0.29200  Biso   1.000  C
  H33      1.0000 0.48350  0.81870  0.68050  Biso   1.000  H
  H34      1.0000 0.51650  0.18130  0.31950  Biso   1.000  H
  H35      1.0000 0.46490  0.95340  0.68550  Biso   1.000  H
  H36      1.0000 0.53510  0.04660  0.31450  Biso   1.000  H
  C29      1.0000 0.66730  0.31360  0.88090  Biso   1.000  C
  C30      1.0000 0.33270  0.68640  0.11910  Biso   1.000  C
  C31      1.0000 0.70720  0.91560  0.89710  Biso   1.000  C
  C32      1.0000 0.29280  0.08440  0.10290  Biso   1.000  C
  C33      1.0000 0.31200  0.66190  0.85000  Biso   1.000  C
  C34      1.0000 0.68800  0.33810  0.15000  Biso   1.000  C
  C35      1.0000 0.51670  0.93880  0.86870  Biso   1.000  C
  C36      1.0000 0.48330  0.06120  0.13130  Biso   1.000  C
  H37      1.0000 0.51120  0.01510  0.81890  Biso   1.000  H
  H38      1.0000 0.48880  0.98490  0.18110  Biso   1.000  H
  H39      1.0000 0.41930  0.94360  0.92850  Biso   1.000  H
  H40      1.0000 0.58070  0.05640  0.07150  Biso   1.000  H
  O21      1.0000 0.82210  0.57080  0.93480  Biso   1.000  O
  O22      1.0000 0.17790  0.42920  0.06520  Biso   1.000  O
  O23      1.0000 0.22370  0.38230  0.84800  Biso   1.000  O
  O24      1.0000 0.77630  0.61770  0.15200  Biso   1.000  O
  O25      1.0000 0.07920  0.12030  0.89820  Biso   1.000  O
  O26      1.0000 0.92080  0.87970  0.10180  Biso   1.000  O
