data_image0
_cell_length_a       14.7592
_cell_length_b       16.2786
_cell_length_c       6.9207
_cell_angle_alpha    90
_cell_angle_beta     102.753
_cell_angle_gamma    90

_symmetry_space_group_name_H-M    "P 1"
_symmetry_int_tables_number       1

loop_
  _symmetry_equiv_pos_as_xyz
  'x, y, z'

loop_
  _atom_site_label
  _atom_site_occupancy
  _atom_site_fract_x
  _atom_site_fract_y
  _atom_site_fract_z
  _atom_site_thermal_displace_type
  _atom_site_B_iso_or_equiv
  _atom_site_type_symbol
  Cu1      1.0000 0.31922  0.70891  0.87495  Biso   1.000  Cu
  Cu2      1.0000 0.68078  0.20891  0.62505  Biso   1.000  Cu
  Cu3      1.0000 0.68078  0.29109  0.12505  Biso   1.000  Cu
  Cu4      1.0000 0.31922  0.79109  0.37495  Biso   1.000  Cu
  C1       1.0000 0.11358  0.45044  0.09700  Biso   1.000  C
  C2       1.0000 0.88642  0.95044  0.40300  Biso   1.000  C
  C3       1.0000 0.88642  0.54956  0.90300  Biso   1.000  C
  C4       1.0000 0.11358  0.04956  0.59700  Biso   1.000  C
  C5       1.0000 0.10190  0.46960  0.28590  Biso   1.000  C
  C6       1.0000 0.89810  0.96960  0.21410  Biso   1.000  C
  C7       1.0000 0.89810  0.53040  0.71410  Biso   1.000  C
  C8       1.0000 0.10190  0.03040  0.78590  Biso   1.000  C
  H1       1.0000 0.13270  0.51590  0.35420  Biso   1.000  H
  H2       1.0000 0.86730  0.01590  0.14580  Biso   1.000  H
  H3       1.0000 0.86730  0.48410  0.64580  Biso   1.000  H
  H4       1.0000 0.13270  0.98410  0.85420  Biso   1.000  H
  C9       1.0000 0.04460  0.42060  0.37490  Biso   1.000  C
  C10      1.0000 0.95540  0.92060  0.12510  Biso   1.000  C
  C11      1.0000 0.95540  0.57940  0.62510  Biso   1.000  C
  C12      1.0000 0.04460  0.07940  0.87490  Biso   1.000  C
  H5       1.0000 0.03830  0.43290  0.50550  Biso   1.000  H
  H6       1.0000 0.96170  0.93290  0.99450  Biso   1.000  H
  H7       1.0000 0.96170  0.56710  0.49450  Biso   1.000  H
  H8       1.0000 0.03830  0.06710  0.00550  Biso   1.000  H
  C13      1.0000 0.99740  0.35480  0.27500  Biso   1.000  C
  C14      1.0000 0.00260  0.85480  0.22500  Biso   1.000  C
  C15      1.0000 0.00260  0.64520  0.72500  Biso   1.000  C
  C16      1.0000 0.99740  0.14520  0.77500  Biso   1.000  C
  H9       1.0000 0.95720  0.32260  0.33430  Biso   1.000  H
  H10      1.0000 0.04280  0.82260  0.16570  Biso   1.000  H
  H11      1.0000 0.04280  0.67740  0.66570  Biso   1.000  H
  H12      1.0000 0.95720  0.17740  0.83430  Biso   1.000  H
  C17      1.0000 0.00940  0.33610  0.08700  Biso   1.000  C
  C18      1.0000 0.99060  0.83610  0.41300  Biso   1.000  C
  C19      1.0000 0.99060  0.66390  0.91300  Biso   1.000  C
  C20      1.0000 0.00940  0.16390  0.58700  Biso   1.000  C
  H13      1.0000 0.97750  0.29040  0.01810  Biso   1.000  H
  H14      1.0000 0.02250  0.79040  0.48190  Biso   1.000  H
  H15      1.0000 0.02250  0.70960  0.98190  Biso   1.000  H
  H16      1.0000 0.97750  0.20960  0.51810  Biso   1.000  H
  C21      1.0000 0.06700  0.38287  0.99800  Biso   1.000  C
  C22      1.0000 0.93300  0.88287  0.50200  Biso   1.000  C
  C23      1.0000 0.93300  0.61713  0.00200  Biso   1.000  C
  C24      1.0000 0.06700  0.11713  0.49800  Biso   1.000  C
  H17      1.0000 0.07480  0.36900  0.86940  Biso   1.000  H
  H18      1.0000 0.92520  0.86900  0.63060  Biso   1.000  H
  H19      1.0000 0.92520  0.63100  0.13060  Biso   1.000  H
  H20      1.0000 0.07480  0.13100  0.36940  Biso   1.000  H
  C25      1.0000 0.17182  0.50189  0.00080  Biso   1.000  C
  C26      1.0000 0.82818  0.00189  0.49920  Biso   1.000  C
  C27      1.0000 0.82818  0.49811  0.99920  Biso   1.000  C
  C28      1.0000 0.17182  0.99811  0.50080  Biso   1.000  C
  C29      1.0000 0.19883  0.58434  0.03830  Biso   1.000  C
  C30      1.0000 0.80117  0.08434  0.46170  Biso   1.000  C
  C31      1.0000 0.80117  0.41566  0.96170  Biso   1.000  C
  C32      1.0000 0.19883  0.91566  0.53830  Biso   1.000  C
  H21      1.0000 0.18340  0.61870  0.13730  Biso   1.000  H
  H22      1.0000 0.81660  0.11870  0.36270  Biso   1.000  H
  H23      1.0000 0.81660  0.38130  0.86270  Biso   1.000  H
  H24      1.0000 0.18340  0.88130  0.63730  Biso   1.000  H
  C33      1.0000 0.31116  0.53474  0.65470  Biso   1.000  C
  C34      1.0000 0.68884  0.03474  0.84530  Biso   1.000  C
  C35      1.0000 0.68884  0.46526  0.34530  Biso   1.000  C
  C36      1.0000 0.31116  0.96526  0.15470  Biso   1.000  C
  H25      1.0000 0.28550  0.57240  0.54380  Biso   1.000  H
  H26      1.0000 0.71450  0.07240  0.95620  Biso   1.000  H
  H27      1.0000 0.71450  0.42760  0.45620  Biso   1.000  H
  H28      1.0000 0.28550  0.92760  0.04380  Biso   1.000  H
  H29      1.0000 0.30970  0.47830  0.60070  Biso   1.000  H
  H30      1.0000 0.69030  0.97830  0.89930  Biso   1.000  H
  H31      1.0000 0.69030  0.52170  0.39930  Biso   1.000  H
  H32      1.0000 0.30970  0.02170  0.10070  Biso   1.000  H
  C37      1.0000 0.41028  0.55854  0.74460  Biso   1.000  C
  C38      1.0000 0.58972  0.05854  0.75540  Biso   1.000  C
  C39      1.0000 0.58972  0.44146  0.25540  Biso   1.000  C
  C40      1.0000 0.41028  0.94146  0.24460  Biso   1.000  C
  C41      1.0000 0.48240  0.50652  0.72850  Biso   1.000  C
  C42      1.0000 0.51760  0.00652  0.77150  Biso   1.000  C
  C43      1.0000 0.51760  0.49348  0.27150  Biso   1.000  C
  C44      1.0000 0.48240  0.99348  0.22850  Biso   1.000  C
  H33      1.0000 0.46990  0.45470  0.66510  Biso   1.000  H
  H34      1.0000 0.53010  0.95470  0.83490  Biso   1.000  H
  H35      1.0000 0.53010  0.54530  0.33490  Biso   1.000  H
  H36      1.0000 0.46990  0.04530  0.16510  Biso   1.000  H
  C45      1.0000 0.57336  0.53101  0.80640  Biso   1.000  C
  C46      1.0000 0.42664  0.03101  0.69360  Biso   1.000  C
  C47      1.0000 0.42664  0.46899  0.19360  Biso   1.000  C
  C48      1.0000 0.57336  0.96899  0.30640  Biso   1.000  C
  H37      1.0000 0.62400  0.49680  0.79510  Biso   1.000  H
  H38      1.0000 0.37600  0.99680  0.70490  Biso   1.000  H
  H39      1.0000 0.37600  0.50320  0.20490  Biso   1.000  H
  H40      1.0000 0.62400  0.00320  0.29510  Biso   1.000  H
  C49      1.0000 0.58857  0.60635  0.90070  Biso   1.000  C
  C50      1.0000 0.41143  0.10635  0.59930  Biso   1.000  C
  C51      1.0000 0.41143  0.39365  0.09930  Biso   1.000  C
  C52      1.0000 0.58857  0.89365  0.40070  Biso   1.000  C
  H41      1.0000 0.65000  0.62450  0.95620  Biso   1.000  H
  H42      1.0000 0.35000  0.12450  0.54380  Biso   1.000  H
  H43      1.0000 0.35000  0.37550  0.04380  Biso   1.000  H
  H44      1.0000 0.65000  0.87550  0.45620  Biso   1.000  H
  C53      1.0000 0.51265  0.65504  0.91320  Biso   1.000  C
  C54      1.0000 0.48735  0.15504  0.58680  Biso   1.000  C
  C55      1.0000 0.48735  0.34496  0.08680  Biso   1.000  C
  C56      1.0000 0.51265  0.84496  0.41320  Biso   1.000  C
  H45      1.0000 0.52340  0.70640  0.97970  Biso   1.000  H
  H46      1.0000 0.47660  0.20640  0.52030  Biso   1.000  H
  H47      1.0000 0.47660  0.29360  0.02030  Biso   1.000  H
  H48      1.0000 0.52340  0.79360  0.47970  Biso   1.000  H
  Cl1      1.0000 0.20862  0.78536  0.98037  Biso   1.000  Cl
  Cl2      1.0000 0.79138  0.28536  0.51963  Biso   1.000  Cl
  Cl3      1.0000 0.79138  0.21464  0.01963  Biso   1.000  Cl
  Cl4      1.0000 0.20862  0.71464  0.48037  Biso   1.000  Cl
  Cl5      1.0000 0.39842  0.82060  0.81363  Biso   1.000  Cl
  Cl6      1.0000 0.60158  0.32060  0.68637  Biso   1.000  Cl
  Cl7      1.0000 0.60158  0.17940  0.18637  Biso   1.000  Cl
  Cl8      1.0000 0.39842  0.67940  0.31363  Biso   1.000  Cl
  N1       1.0000 0.24987  0.60551  0.90980  Biso   1.000  N
  N2       1.0000 0.75013  0.10551  0.59020  Biso   1.000  N
  N3       1.0000 0.75013  0.39449  0.09020  Biso   1.000  N
  N4       1.0000 0.24987  0.89449  0.40980  Biso   1.000  N
  N5       1.0000 0.25368  0.53829  0.80090  Biso   1.000  N
  N6       1.0000 0.74632  0.03829  0.69910  Biso   1.000  N
  N7       1.0000 0.74632  0.46171  0.19910  Biso   1.000  N
  N8       1.0000 0.25368  0.96171  0.30090  Biso   1.000  N
  N9       1.0000 0.20823  0.47459  0.85060  Biso   1.000  N
  N10      1.0000 0.79177  0.97459  0.64940  Biso   1.000  N
  N11      1.0000 0.79177  0.52541  0.14940  Biso   1.000  N
  N12      1.0000 0.20823  0.02541  0.35060  Biso   1.000  N
  N13      1.0000 0.42437  0.63230  0.83460  Biso   1.000  N
  N14      1.0000 0.57563  0.13230  0.66540  Biso   1.000  N
  N15      1.0000 0.57563  0.36770  0.16540  Biso   1.000  N
  N16      1.0000 0.42437  0.86770  0.33460  Biso   1.000  N
  C57      1.0000 0.71910  0.78870  0.08300  Biso   1.000  C
  C58      1.0000 0.28090  0.28870  0.41700  Biso   1.000  C
  C59      1.0000 0.28090  0.21130  0.91700  Biso   1.000  C
  C60      1.0000 0.71910  0.71130  0.58300  Biso   1.000  C
  C61      1.0000 0.74660  0.74680  0.25700  Biso   1.000  C
  C62      1.0000 0.25340  0.24680  0.24300  Biso   1.000  C
  C63      1.0000 0.25340  0.25320  0.74300  Biso   1.000  C
  C64      1.0000 0.74660  0.75320  0.75700  Biso   1.000  C
  H49      1.0000 0.78860  0.78130  0.35310  Biso   1.000  H
  H50      1.0000 0.21140  0.28130  0.14690  Biso   1.000  H
  H51      1.0000 0.21140  0.21870  0.64690  Biso   1.000  H
  H52      1.0000 0.78860  0.71870  0.85310  Biso   1.000  H
  H53      1.0000 0.77890  0.69640  0.23350  Biso   1.000  H
  H54      1.0000 0.22110  0.19640  0.26650  Biso   1.000  H
  H55      1.0000 0.22110  0.30360  0.76650  Biso   1.000  H
  H56      1.0000 0.77890  0.80360  0.73350  Biso   1.000  H
  N17      1.0000 0.68670  0.81190  0.92300  Biso   1.000  N
  N18      1.0000 0.31330  0.31190  0.57700  Biso   1.000  N
  N19      1.0000 0.31330  0.18810  0.07700  Biso   1.000  N
  N20      1.0000 0.68670  0.68810  0.42300  Biso   1.000  N
  H57      1.0000 0.69200  0.73270  0.30890  Biso   1.000  H
  H58      1.0000 0.30800  0.23270  0.19110  Biso   1.000  H
  H59      1.0000 0.30800  0.26730  0.69110  Biso   1.000  H
  H60      1.0000 0.69200  0.76730  0.80890  Biso   1.000  H
