data_image0
_cell_length_a       6.954
_cell_length_b       13.236
_cell_length_c       17.079
_cell_angle_alpha    90
_cell_angle_beta     90
_cell_angle_gamma    90

_symmetry_space_group_name_H-M    "P 1"
_symmetry_int_tables_number       1

loop_
  _symmetry_equiv_pos_as_xyz
  'x, y, z'

loop_
  _atom_site_label
  _atom_site_occupancy
  _atom_site_fract_x
  _atom_site_fract_y
  _atom_site_fract_z
  _atom_site_thermal_displace_type
  _atom_site_B_iso_or_equiv
  _atom_site_type_symbol
  Cu1      1.0000 0.12732  0.84029  0.92541  Biso   1.000  Cu
  Cu2      1.0000 0.37268  0.15971  0.42541  Biso   1.000  Cu
  Cu3      1.0000 0.87268  0.34029  0.57459  Biso   1.000  Cu
  Cu4      1.0000 0.62732  0.65971  0.07459  Biso   1.000  Cu
  C1       1.0000 0.23210  0.22880  0.04270  Biso   1.000  C
  C2       1.0000 0.26790  0.77120  0.54270  Biso   1.000  C
  C3       1.0000 0.76790  0.72880  0.45730  Biso   1.000  C
  C4       1.0000 0.73210  0.27120  0.95730  Biso   1.000  C
  C5       1.0000 0.24090  0.32450  0.00990  Biso   1.000  C
  C6       1.0000 0.25910  0.67550  0.50990  Biso   1.000  C
  C7       1.0000 0.75910  0.82450  0.49010  Biso   1.000  C
  C8       1.0000 0.74090  0.17550  0.99010  Biso   1.000  C
  H1       1.0000 0.24890  0.33150  0.95580  Biso   1.000  H
  H2       1.0000 0.25110  0.66850  0.45580  Biso   1.000  H
  H3       1.0000 0.75110  0.83150  0.54420  Biso   1.000  H
  H4       1.0000 0.74890  0.16850  0.04420  Biso   1.000  H
  C9       1.0000 0.23810  0.40950  0.05660  Biso   1.000  C
  C10      1.0000 0.26190  0.59050  0.55660  Biso   1.000  C
  C11      1.0000 0.76190  0.90950  0.44340  Biso   1.000  C
  C12      1.0000 0.73810  0.09050  0.94340  Biso   1.000  C
  H5       1.0000 0.24400  0.47340  0.03400  Biso   1.000  H
  H6       1.0000 0.25600  0.52660  0.53400  Biso   1.000  H
  H7       1.0000 0.75600  0.97340  0.46600  Biso   1.000  H
  H8       1.0000 0.74400  0.02660  0.96600  Biso   1.000  H
  C13      1.0000 0.22640  0.39980  0.13690  Biso   1.000  C
  C14      1.0000 0.27360  0.60020  0.63690  Biso   1.000  C
  C15      1.0000 0.77360  0.89980  0.36310  Biso   1.000  C
  C16      1.0000 0.72640  0.10020  0.86310  Biso   1.000  C
  H9       1.0000 0.22410  0.45710  0.16830  Biso   1.000  H
  H10      1.0000 0.27590  0.54290  0.66830  Biso   1.000  H
  H11      1.0000 0.77590  0.95710  0.33170  Biso   1.000  H
  H12      1.0000 0.72410  0.04290  0.83170  Biso   1.000  H
  C17      1.0000 0.21820  0.30550  0.17070  Biso   1.000  C
  C18      1.0000 0.28180  0.69450  0.67070  Biso   1.000  C
  C19      1.0000 0.78180  0.80550  0.32930  Biso   1.000  C
  C20      1.0000 0.71820  0.19450  0.82930  Biso   1.000  C
  H13      1.0000 0.21080  0.29880  0.22490  Biso   1.000  H
  H14      1.0000 0.28920  0.70120  0.72490  Biso   1.000  H
  H15      1.0000 0.78920  0.79880  0.27510  Biso   1.000  H
  H16      1.0000 0.71080  0.20120  0.77510  Biso   1.000  H
  C21      1.0000 0.22120  0.22100  0.12340  Biso   1.000  C
  C22      1.0000 0.27880  0.77900  0.62340  Biso   1.000  C
  C23      1.0000 0.77880  0.72100  0.37660  Biso   1.000  C
  C24      1.0000 0.72120  0.27900  0.87660  Biso   1.000  C
  H17      1.0000 0.21580  0.15740  0.14630  Biso   1.000  H
  H18      1.0000 0.28420  0.84260  0.64630  Biso   1.000  H
  H19      1.0000 0.78420  0.65740  0.35370  Biso   1.000  H
  H20      1.0000 0.71580  0.34260  0.85370  Biso   1.000  H
  C25      1.0000 0.23090  0.13810  0.99330  Biso   1.000  C
  C26      1.0000 0.26910  0.86190  0.49330  Biso   1.000  C
  C27      1.0000 0.76910  0.63810  0.50670  Biso   1.000  C
  C28      1.0000 0.73090  0.36190  0.00670  Biso   1.000  C
  C29      1.0000 0.19920  0.03820  0.01420  Biso   1.000  C
  C30      1.0000 0.30080  0.96180  0.51420  Biso   1.000  C
  C31      1.0000 0.80080  0.53820  0.48580  Biso   1.000  C
  C32      1.0000 0.69920  0.46180  0.98580  Biso   1.000  C
  H21      1.0000 0.17560  0.01440  0.06460  Biso   1.000  H
  H22      1.0000 0.32440  0.98560  0.56460  Biso   1.000  H
  H23      1.0000 0.82440  0.51440  0.43540  Biso   1.000  H
  H24      1.0000 0.67560  0.48560  0.93540  Biso   1.000  H
  C33      1.0000 0.27960  0.01240  0.81270  Biso   1.000  C
  C34      1.0000 0.22040  0.98760  0.31270  Biso   1.000  C
  C35      1.0000 0.72040  0.51240  0.68730  Biso   1.000  C
  C36      1.0000 0.77960  0.48760  0.18730  Biso   1.000  C
  H25      1.0000 0.38300  0.96320  0.81250  Biso   1.000  H
  H26      1.0000 0.11700  0.03680  0.31250  Biso   1.000  H
  H27      1.0000 0.61700  0.46320  0.68750  Biso   1.000  H
  H28      1.0000 0.88300  0.53680  0.18750  Biso   1.000  H
  H29      1.0000 0.31820  0.06890  0.78010  Biso   1.000  H
  H30      1.0000 0.18180  0.93110  0.28010  Biso   1.000  H
  H31      1.0000 0.68180  0.56890  0.71990  Biso   1.000  H
  H32      1.0000 0.81820  0.43110  0.21990  Biso   1.000  H
  C37      1.0000 0.10120  0.96540  0.77990  Biso   1.000  C
  C38      1.0000 0.39880  0.03460  0.27990  Biso   1.000  C
  C39      1.0000 0.89880  0.46540  0.72010  Biso   1.000  C
  C40      1.0000 0.60120  0.53460  0.22010  Biso   1.000  C
  C41      1.0000 0.01670  0.00090  0.71210  Biso   1.000  C
  C42      1.0000 0.48330  0.99910  0.21210  Biso   1.000  C
  C43      1.0000 0.98330  0.50090  0.78790  Biso   1.000  C
  C44      1.0000 0.51670  0.49910  0.28790  Biso   1.000  C
  H33      1.0000 0.06930  0.05610  0.68620  Biso   1.000  H
  H34      1.0000 0.43070  0.94390  0.18620  Biso   1.000  H
  H35      1.0000 0.93070  0.55610  0.81380  Biso   1.000  H
  H36      1.0000 0.56930  0.44390  0.31380  Biso   1.000  H
  C45      1.0000 0.85430  0.95450  0.68280  Biso   1.000  C
  C46      1.0000 0.64570  0.04550  0.18280  Biso   1.000  C
  C47      1.0000 0.14570  0.45450  0.81720  Biso   1.000  C
  C48      1.0000 0.35430  0.54550  0.31720  Biso   1.000  C
  H37      1.0000 0.79550  0.97870  0.63760  Biso   1.000  H
  H38      1.0000 0.70450  0.02130  0.13760  Biso   1.000  H
  H39      1.0000 0.20450  0.47870  0.86240  Biso   1.000  H
  H40      1.0000 0.29550  0.52130  0.36240  Biso   1.000  H
  C49      1.0000 0.78190  0.87300  0.72110  Biso   1.000  C
  C50      1.0000 0.71810  0.12700  0.22110  Biso   1.000  C
  C51      1.0000 0.21810  0.37300  0.77890  Biso   1.000  C
  C52      1.0000 0.28190  0.62700  0.27890  Biso   1.000  C
  H41      1.0000 0.67520  0.83920  0.70120  Biso   1.000  H
  H42      1.0000 0.82480  0.16080  0.20120  Biso   1.000  H
  H43      1.0000 0.32480  0.33920  0.79880  Biso   1.000  H
  H44      1.0000 0.17520  0.66080  0.29880  Biso   1.000  H
  C53      1.0000 0.86770  0.84060  0.78970  Biso   1.000  C
  C54      1.0000 0.63230  0.15940  0.28970  Biso   1.000  C
  C55      1.0000 0.13230  0.34060  0.71030  Biso   1.000  C
  C56      1.0000 0.36770  0.65940  0.21030  Biso   1.000  C
  H45      1.0000 0.81430  0.78610  0.81630  Biso   1.000  H
  H46      1.0000 0.68570  0.21390  0.31630  Biso   1.000  H
  H47      1.0000 0.18570  0.28610  0.68370  Biso   1.000  H
  H48      1.0000 0.31430  0.71390  0.18370  Biso   1.000  H
  S1       1.0000 0.99466  0.81801  0.09322  Biso   1.000  S
  S2       1.0000 0.50534  0.18199  0.59322  Biso   1.000  S
  S3       1.0000 0.00534  0.31801  0.40678  Biso   1.000  S
  S4       1.0000 0.49466  0.68199  0.90678  Biso   1.000  S
  N1       1.0000 0.20860  0.98220  0.94909  Biso   1.000  N
  N2       1.0000 0.29140  0.01780  0.44909  Biso   1.000  N
  N3       1.0000 0.79140  0.48220  0.55091  Biso   1.000  N
  N4       1.0000 0.70860  0.51780  0.05091  Biso   1.000  N
  N5       1.0000 0.24670  0.04740  0.89214  Biso   1.000  N
  N6       1.0000 0.25330  0.95260  0.39214  Biso   1.000  N
  N7       1.0000 0.75330  0.54740  0.60786  Biso   1.000  N
  N8       1.0000 0.74670  0.45260  0.10786  Biso   1.000  N
  N9       1.0000 0.26330  0.14230  0.91543  Biso   1.000  N
  N10      1.0000 0.23670  0.85770  0.41543  Biso   1.000  N
  N11      1.0000 0.73670  0.64230  0.58457  Biso   1.000  N
  N12      1.0000 0.76330  0.35770  0.08457  Biso   1.000  N
  N13      1.0000 0.02600  0.88530  0.81932  Biso   1.000  N
  N14      1.0000 0.47400  0.11470  0.31932  Biso   1.000  N
  N15      1.0000 0.97400  0.38530  0.68068  Biso   1.000  N
  N16      1.0000 0.52600  0.61470  0.18068  Biso   1.000  N
  O1       1.0000 0.16390  0.80830  0.03697  Biso   1.000  O
  O2       1.0000 0.33610  0.19170  0.53697  Biso   1.000  O
  O3       1.0000 0.83610  0.30830  0.46303  Biso   1.000  O
  O4       1.0000 0.66390  0.69170  0.96303  Biso   1.000  O
  O5       1.0000 0.85210  0.88200  0.05355  Biso   1.000  O
  O6       1.0000 0.64790  0.11800  0.55355  Biso   1.000  O
  O7       1.0000 0.14790  0.38200  0.44645  Biso   1.000  O
  O8       1.0000 0.35210  0.61800  0.94645  Biso   1.000  O
  O9       1.0000 0.06740  0.86460  0.16385  Biso   1.000  O
  O10      1.0000 0.43260  0.13540  0.66385  Biso   1.000  O
  O11      1.0000 0.93260  0.36460  0.33615  Biso   1.000  O
  O12      1.0000 0.56740  0.63540  0.83615  Biso   1.000  O
  O13      1.0000 0.91670  0.71650  0.10785  Biso   1.000  O
  O14      1.0000 0.58330  0.28350  0.60785  Biso   1.000  O
  O15      1.0000 0.08330  0.21650  0.39215  Biso   1.000  O
  O16      1.0000 0.41670  0.78350  0.89215  Biso   1.000  O
  O17      1.0000 0.02110  0.70370  0.90883  Biso   1.000  O
  O18      1.0000 0.47890  0.29630  0.40883  Biso   1.000  O
  O19      1.0000 0.97890  0.20370  0.59117  Biso   1.000  O
  O20      1.0000 0.52110  0.79630  0.09117  Biso   1.000  O
  H49      1.0000 0.10200  0.66500  0.93000  Biso   1.000  H
  H50      1.0000 0.39800  0.33500  0.43000  Biso   1.000  H
  H51      1.0000 0.89800  0.16500  0.57000  Biso   1.000  H
  H52      1.0000 0.60200  0.83500  0.07000  Biso   1.000  H
  H53      1.0000 0.91500  0.68700  0.93000  Biso   1.000  H
  H54      1.0000 0.58500  0.31300  0.43000  Biso   1.000  H
  H55      1.0000 0.08500  0.18700  0.57000  Biso   1.000  H
  H56      1.0000 0.41500  0.81300  0.07000  Biso   1.000  H
