data_image0
_cell_length_a       34.193
_cell_length_b       6.964
_cell_length_c       14.7483
_cell_angle_alpha    90
_cell_angle_beta     107.963
_cell_angle_gamma    90

_symmetry_space_group_name_H-M    "P 1"
_symmetry_int_tables_number       1

loop_
  _symmetry_equiv_pos_as_xyz
  'x, y, z'

loop_
  _atom_site_label
  _atom_site_occupancy
  _atom_site_fract_x
  _atom_site_fract_y
  _atom_site_fract_z
  _atom_site_thermal_displace_type
  _atom_site_B_iso_or_equiv
  _atom_site_type_symbol
  Cu1      1.0000 0.30587  0.45870  0.35824  Biso   1.000  Cu
  Cu2      1.0000 0.69413  0.45870  0.14176  Biso   1.000  Cu
  Cu3      1.0000 0.80587  0.95870  0.35824  Biso   1.000  Cu
  Cu4      1.0000 0.19413  0.95870  0.14176  Biso   1.000  Cu
  Cu5      1.0000 0.69413  0.54130  0.64176  Biso   1.000  Cu
  Cu6      1.0000 0.30587  0.54130  0.85824  Biso   1.000  Cu
  Cu7      1.0000 0.19413  0.04130  0.64176  Biso   1.000  Cu
  Cu8      1.0000 0.80587  0.04130  0.85824  Biso   1.000  Cu
  O1       1.0000 0.30250  0.61170  0.57310  Biso   1.000  O
  O2       1.0000 0.69750  0.61170  0.92690  Biso   1.000  O
  O3       1.0000 0.80250  0.11170  0.57310  Biso   1.000  O
  O4       1.0000 0.19750  0.11170  0.92690  Biso   1.000  O
  O5       1.0000 0.69750  0.38830  0.42690  Biso   1.000  O
  O6       1.0000 0.30250  0.38830  0.07310  Biso   1.000  O
  O7       1.0000 0.19750  0.88830  0.42690  Biso   1.000  O
  O8       1.0000 0.80250  0.88830  0.07310  Biso   1.000  O
  O9       1.0000 0.17241  0.43800  0.54780  Biso   1.000  O
  O10      1.0000 0.82759  0.43800  0.95220  Biso   1.000  O
  O11      1.0000 0.67241  0.93800  0.54780  Biso   1.000  O
  O12      1.0000 0.32759  0.93800  0.95220  Biso   1.000  O
  O13      1.0000 0.82759  0.56200  0.45220  Biso   1.000  O
  O14      1.0000 0.17241  0.56200  0.04780  Biso   1.000  O
  O15      1.0000 0.32759  0.06200  0.45220  Biso   1.000  O
  O16      1.0000 0.67241  0.06200  0.04780  Biso   1.000  O
  O17      1.0000 0.19454  0.24580  0.23500  Biso   1.000  O
  O18      1.0000 0.80546  0.24580  0.26500  Biso   1.000  O
  O19      1.0000 0.69454  0.74580  0.23500  Biso   1.000  O
  O20      1.0000 0.30546  0.74580  0.26500  Biso   1.000  O
  O21      1.0000 0.80546  0.75420  0.76500  Biso   1.000  O
  O22      1.0000 0.19454  0.75420  0.73500  Biso   1.000  O
  O23      1.0000 0.30546  0.25420  0.76500  Biso   1.000  O
  O24      1.0000 0.69454  0.25420  0.73500  Biso   1.000  O
  O25      1.0000 0.25871  0.34780  0.26070  Biso   1.000  O
  O26      1.0000 0.74129  0.34780  0.23930  Biso   1.000  O
  O27      1.0000 0.75871  0.84780  0.26070  Biso   1.000  O
  O28      1.0000 0.24129  0.84780  0.23930  Biso   1.000  O
  O29      1.0000 0.74129  0.65220  0.73930  Biso   1.000  O
  O30      1.0000 0.25871  0.65220  0.76070  Biso   1.000  O
  O31      1.0000 0.24129  0.15220  0.73930  Biso   1.000  O
  O32      1.0000 0.75871  0.15220  0.76070  Biso   1.000  O
  N1       1.0000 0.26508  0.48030  0.43030  Biso   1.000  N
  N2       1.0000 0.73492  0.48030  0.06970  Biso   1.000  N
  N3       1.0000 0.76508  0.98030  0.43030  Biso   1.000  N
  N4       1.0000 0.23492  0.98030  0.06970  Biso   1.000  N
  N5       1.0000 0.73492  0.51970  0.56970  Biso   1.000  N
  N6       1.0000 0.26508  0.51970  0.93030  Biso   1.000  N
  N7       1.0000 0.23492  0.01970  0.56970  Biso   1.000  N
  N8       1.0000 0.76508  0.01970  0.93030  Biso   1.000  N
  N9       1.0000 0.23712  0.52630  0.55540  Biso   1.000  N
  N10      1.0000 0.76288  0.52630  0.94460  Biso   1.000  N
  N11      1.0000 0.73712  0.02630  0.55540  Biso   1.000  N
  N12      1.0000 0.26288  0.02630  0.94460  Biso   1.000  N
  N13      1.0000 0.76288  0.47370  0.44460  Biso   1.000  N
  N14      1.0000 0.23712  0.47370  0.05540  Biso   1.000  N
  N15      1.0000 0.26288  0.97370  0.44460  Biso   1.000  N
  N16      1.0000 0.73712  0.97370  0.05540  Biso   1.000  N
  H1       1.0000 0.24050  0.56800  0.61230  Biso   1.000  H
  H2       1.0000 0.75950  0.56800  0.88770  Biso   1.000  H
  H3       1.0000 0.74050  0.06800  0.61230  Biso   1.000  H
  H4       1.0000 0.25950  0.06800  0.88770  Biso   1.000  H
  H5       1.0000 0.75950  0.43200  0.38770  Biso   1.000  H
  H6       1.0000 0.24050  0.43200  0.11230  Biso   1.000  H
  H7       1.0000 0.25950  0.93200  0.38770  Biso   1.000  H
  H8       1.0000 0.74050  0.93200  0.11230  Biso   1.000  H
  C1       1.0000 0.27034  0.54330  0.52110  Biso   1.000  C
  C2       1.0000 0.72966  0.54330  0.97890  Biso   1.000  C
  C3       1.0000 0.77034  0.04330  0.52110  Biso   1.000  C
  C4       1.0000 0.22966  0.04330  0.97890  Biso   1.000  C
  C5       1.0000 0.72966  0.45670  0.47890  Biso   1.000  C
  C6       1.0000 0.27034  0.45670  0.02110  Biso   1.000  C
  C7       1.0000 0.22966  0.95670  0.47890  Biso   1.000  C
  C8       1.0000 0.77034  0.95670  0.02110  Biso   1.000  C
  C9       1.0000 0.19929  0.44990  0.50830  Biso   1.000  C
  C10      1.0000 0.80071  0.44990  0.99170  Biso   1.000  C
  C11      1.0000 0.69929  0.94990  0.50830  Biso   1.000  C
  C12      1.0000 0.30071  0.94990  0.99170  Biso   1.000  C
  C13      1.0000 0.80071  0.55010  0.49170  Biso   1.000  C
  C14      1.0000 0.19929  0.55010  0.00830  Biso   1.000  C
  C15      1.0000 0.30071  0.05010  0.49170  Biso   1.000  C
  C16      1.0000 0.69929  0.05010  0.00830  Biso   1.000  C
  C17      1.0000 0.19548  0.38480  0.41400  Biso   1.000  C
  C18      1.0000 0.80452  0.38480  0.08600  Biso   1.000  C
  C19      1.0000 0.69548  0.88480  0.41400  Biso   1.000  C
  C20      1.0000 0.30452  0.88480  0.08600  Biso   1.000  C
  C21      1.0000 0.80452  0.61520  0.58600  Biso   1.000  C
  C22      1.0000 0.19548  0.61520  0.91400  Biso   1.000  C
  C23      1.0000 0.30452  0.11520  0.58600  Biso   1.000  C
  C24      1.0000 0.69548  0.11520  0.91400  Biso   1.000  C
  H9       1.0000 0.17100  0.33170  0.37570  Biso   1.000  H
  H10      1.0000 0.82900  0.33170  0.12430  Biso   1.000  H
  H11      1.0000 0.67100  0.83170  0.37570  Biso   1.000  H
  H12      1.0000 0.32900  0.83170  0.12430  Biso   1.000  H
  H13      1.0000 0.82900  0.66830  0.62430  Biso   1.000  H
  H14      1.0000 0.17100  0.66830  0.87570  Biso   1.000  H
  H15      1.0000 0.32900  0.16830  0.62430  Biso   1.000  H
  H16      1.0000 0.67100  0.16830  0.87570  Biso   1.000  H
  C25      1.0000 0.22839  0.40200  0.38150  Biso   1.000  C
  C26      1.0000 0.77161  0.40200  0.11850  Biso   1.000  C
  C27      1.0000 0.72839  0.90200  0.38150  Biso   1.000  C
  C28      1.0000 0.27161  0.90200  0.11850  Biso   1.000  C
  C29      1.0000 0.77161  0.59800  0.61850  Biso   1.000  C
  C30      1.0000 0.22839  0.59800  0.88150  Biso   1.000  C
  C31      1.0000 0.27161  0.09800  0.61850  Biso   1.000  C
  C32      1.0000 0.72839  0.09800  0.88150  Biso   1.000  C
  C33      1.0000 0.22611  0.32520  0.28360  Biso   1.000  C
  C34      1.0000 0.77389  0.32520  0.21640  Biso   1.000  C
  C35      1.0000 0.72611  0.82520  0.28360  Biso   1.000  C
  C36      1.0000 0.27389  0.82520  0.21640  Biso   1.000  C
  C37      1.0000 0.77389  0.67480  0.71640  Biso   1.000  C
  C38      1.0000 0.22611  0.67480  0.78360  Biso   1.000  C
  C39      1.0000 0.27389  0.17480  0.71640  Biso   1.000  C
  C40      1.0000 0.72611  0.17480  0.78360  Biso   1.000  C
  N17      1.0000 0.33960  0.36600  0.27700  Biso   1.000  N
  N18      1.0000 0.66040  0.36600  0.22300  Biso   1.000  N
  N19      1.0000 0.83960  0.86600  0.27700  Biso   1.000  N
  N20      1.0000 0.16040  0.86600  0.22300  Biso   1.000  N
  N21      1.0000 0.66040  0.63400  0.72300  Biso   1.000  N
  N22      1.0000 0.33960  0.63400  0.77700  Biso   1.000  N
  N23      1.0000 0.16040  0.13400  0.72300  Biso   1.000  N
  N24      1.0000 0.83960  0.13400  0.77700  Biso   1.000  N
  H17      1.0000 0.32190  0.34480  0.21860  Biso   1.000  H
  H18      1.0000 0.67810  0.34480  0.28140  Biso   1.000  H
  H19      1.0000 0.82190  0.84480  0.21860  Biso   1.000  H
  H20      1.0000 0.17810  0.84480  0.28140  Biso   1.000  H
  H21      1.0000 0.67810  0.65520  0.78140  Biso   1.000  H
  H22      1.0000 0.32190  0.65520  0.71860  Biso   1.000  H
  H23      1.0000 0.17810  0.15520  0.78140  Biso   1.000  H
  H24      1.0000 0.82190  0.15520  0.71860  Biso   1.000  H
  H25      1.0000 0.35550  0.46550  0.27120  Biso   1.000  H
  H26      1.0000 0.64450  0.46550  0.22880  Biso   1.000  H
  H27      1.0000 0.85550  0.96550  0.27120  Biso   1.000  H
  H28      1.0000 0.14450  0.96550  0.22880  Biso   1.000  H
  H29      1.0000 0.64450  0.53450  0.72880  Biso   1.000  H
  H30      1.0000 0.35550  0.53450  0.77120  Biso   1.000  H
  H31      1.0000 0.14450  0.03450  0.72880  Biso   1.000  H
  H32      1.0000 0.85550  0.03450  0.77120  Biso   1.000  H
  C41      1.0000 0.36610  0.20100  0.29990  Biso   1.000  C
  C42      1.0000 0.63390  0.20100  0.20010  Biso   1.000  C
  C43      1.0000 0.86610  0.70100  0.29990  Biso   1.000  C
  C44      1.0000 0.13390  0.70100  0.20010  Biso   1.000  C
  C45      1.0000 0.63390  0.79900  0.70010  Biso   1.000  C
  C46      1.0000 0.36610  0.79900  0.79990  Biso   1.000  C
  C47      1.0000 0.13390  0.29900  0.70010  Biso   1.000  C
  C48      1.0000 0.86610  0.29900  0.79990  Biso   1.000  C
  H33      1.0000 0.34940  0.08870  0.30070  Biso   1.000  H
  H34      1.0000 0.65060  0.08870  0.19930  Biso   1.000  H
  H35      1.0000 0.84940  0.58870  0.30070  Biso   1.000  H
  H36      1.0000 0.15060  0.58870  0.19930  Biso   1.000  H
  H37      1.0000 0.65060  0.91130  0.69930  Biso   1.000  H
  H38      1.0000 0.34940  0.91130  0.80070  Biso   1.000  H
  H39      1.0000 0.15060  0.41130  0.69930  Biso   1.000  H
  H40      1.0000 0.84940  0.41130  0.80070  Biso   1.000  H
  H41      1.0000 0.38500  0.21730  0.36370  Biso   1.000  H
  H42      1.0000 0.61500  0.21730  0.13630  Biso   1.000  H
  H43      1.0000 0.88500  0.71730  0.36370  Biso   1.000  H
  H44      1.0000 0.11500  0.71730  0.13630  Biso   1.000  H
  H45      1.0000 0.61500  0.78270  0.63630  Biso   1.000  H
  H46      1.0000 0.38500  0.78270  0.86370  Biso   1.000  H
  H47      1.0000 0.11500  0.28270  0.63630  Biso   1.000  H
  H48      1.0000 0.88500  0.28270  0.86370  Biso   1.000  H
  C49      1.0000 0.39050  0.16300  0.23350  Biso   1.000  C
  C50      1.0000 0.60950  0.16300  0.26650  Biso   1.000  C
  C51      1.0000 0.89050  0.66300  0.23350  Biso   1.000  C
  C52      1.0000 0.10950  0.66300  0.26650  Biso   1.000  C
  C53      1.0000 0.60950  0.83700  0.76650  Biso   1.000  C
  C54      1.0000 0.39050  0.83700  0.73350  Biso   1.000  C
  C55      1.0000 0.10950  0.33700  0.76650  Biso   1.000  C
  C56      1.0000 0.89050  0.33700  0.73350  Biso   1.000  C
  H49      1.0000 0.41110  0.26270  0.24120  Biso   1.000  H
  H50      1.0000 0.58890  0.26270  0.25880  Biso   1.000  H
  H51      1.0000 0.91110  0.76270  0.24120  Biso   1.000  H
  H52      1.0000 0.08890  0.76270  0.25880  Biso   1.000  H
  H53      1.0000 0.58890  0.73730  0.75880  Biso   1.000  H
  H54      1.0000 0.41110  0.73730  0.74120  Biso   1.000  H
  H55      1.0000 0.08890  0.23730  0.75880  Biso   1.000  H
  H56      1.0000 0.91110  0.23730  0.74120  Biso   1.000  H
  H57      1.0000 0.37250  0.16780  0.16830  Biso   1.000  H
  H58      1.0000 0.62750  0.16780  0.33170  Biso   1.000  H
  H59      1.0000 0.87250  0.66780  0.16830  Biso   1.000  H
  H60      1.0000 0.12750  0.66780  0.33170  Biso   1.000  H
  H61      1.0000 0.62750  0.83220  0.83170  Biso   1.000  H
  H62      1.0000 0.37250  0.83220  0.66830  Biso   1.000  H
  H63      1.0000 0.12750  0.33220  0.83170  Biso   1.000  H
  H64      1.0000 0.87250  0.33220  0.66830  Biso   1.000  H
  C57      1.0000 0.41140  0.97000  0.25210  Biso   1.000  C
  C58      1.0000 0.58860  0.97000  0.24790  Biso   1.000  C
  C59      1.0000 0.91140  0.47000  0.25210  Biso   1.000  C
  C60      1.0000 0.08860  0.47000  0.24790  Biso   1.000  C
  C61      1.0000 0.58860  0.03000  0.74790  Biso   1.000  C
  C62      1.0000 0.41140  0.03000  0.75210  Biso   1.000  C
  C63      1.0000 0.08860  0.53000  0.74790  Biso   1.000  C
  C64      1.0000 0.91140  0.53000  0.75210  Biso   1.000  C
  H65      1.0000 0.43230  0.97330  0.31390  Biso   1.000  H
  H66      1.0000 0.56770  0.97330  0.18610  Biso   1.000  H
  H67      1.0000 0.93230  0.47330  0.31390  Biso   1.000  H
  H68      1.0000 0.06770  0.47330  0.18610  Biso   1.000  H
  H69      1.0000 0.56770  0.02670  0.68610  Biso   1.000  H
  H70      1.0000 0.43230  0.02670  0.81390  Biso   1.000  H
  H71      1.0000 0.06770  0.52670  0.68610  Biso   1.000  H
  H72      1.0000 0.93230  0.52670  0.81390  Biso   1.000  H
  H73      1.0000 0.39130  0.87400  0.25510  Biso   1.000  H
  H74      1.0000 0.60870  0.87400  0.24490  Biso   1.000  H
  H75      1.0000 0.89130  0.37400  0.25510  Biso   1.000  H
  H76      1.0000 0.10870  0.37400  0.24490  Biso   1.000  H
  H77      1.0000 0.60870  0.12600  0.74490  Biso   1.000  H
  H78      1.0000 0.39130  0.12600  0.75510  Biso   1.000  H
  H79      1.0000 0.10870  0.62600  0.74490  Biso   1.000  H
  H80      1.0000 0.89130  0.62600  0.75510  Biso   1.000  H
  C65      1.0000 0.43050  0.91000  0.18140  Biso   1.000  C
  C66      1.0000 0.56950  0.91000  0.31860  Biso   1.000  C
  C67      1.0000 0.93050  0.41000  0.18140  Biso   1.000  C
  C68      1.0000 0.06950  0.41000  0.31860  Biso   1.000  C
  C69      1.0000 0.56950  0.09000  0.81860  Biso   1.000  C
  C70      1.0000 0.43050  0.09000  0.68140  Biso   1.000  C
  C71      1.0000 0.06950  0.59000  0.81860  Biso   1.000  C
  C72      1.0000 0.93050  0.59000  0.68140  Biso   1.000  C
  H81      1.0000 0.44300  0.78640  0.19830  Biso   1.000  H
  H82      1.0000 0.55700  0.78640  0.30170  Biso   1.000  H
  H83      1.0000 0.94300  0.28640  0.19830  Biso   1.000  H
  H84      1.0000 0.05700  0.28640  0.30170  Biso   1.000  H
  H85      1.0000 0.55700  0.21360  0.80170  Biso   1.000  H
  H86      1.0000 0.44300  0.21360  0.69830  Biso   1.000  H
  H87      1.0000 0.05700  0.71360  0.80170  Biso   1.000  H
  H88      1.0000 0.94300  0.71360  0.69830  Biso   1.000  H
  H89      1.0000 0.45110  0.00180  0.17910  Biso   1.000  H
  H90      1.0000 0.54890  0.00180  0.32090  Biso   1.000  H
  H91      1.0000 0.95110  0.50180  0.17910  Biso   1.000  H
  H92      1.0000 0.04890  0.50180  0.32090  Biso   1.000  H
  H93      1.0000 0.54890  0.99820  0.82090  Biso   1.000  H
  H94      1.0000 0.45110  0.99820  0.67910  Biso   1.000  H
  H95      1.0000 0.04890  0.49820  0.82090  Biso   1.000  H
  H96      1.0000 0.95110  0.49820  0.67910  Biso   1.000  H
  H97      1.0000 0.41000  0.90280  0.12010  Biso   1.000  H
  H98      1.0000 0.59000  0.90280  0.37990  Biso   1.000  H
  H99      1.0000 0.91000  0.40280  0.12010  Biso   1.000  H
  H100     1.0000 0.09000  0.40280  0.37990  Biso   1.000  H
  H101     1.0000 0.59000  0.09720  0.87990  Biso   1.000  H
  H102     1.0000 0.41000  0.09720  0.62010  Biso   1.000  H
  H103     1.0000 0.09000  0.59720  0.87990  Biso   1.000  H
  H104     1.0000 0.91000  0.59720  0.62010  Biso   1.000  H
  N25      1.0000 0.35060  0.59600  0.45400  Biso   1.000  N
  N26      1.0000 0.64940  0.59600  0.04600  Biso   1.000  N
  N27      1.0000 0.85060  0.09600  0.45400  Biso   1.000  N
  N28      1.0000 0.14940  0.09600  0.04600  Biso   1.000  N
  N29      1.0000 0.64940  0.40400  0.54600  Biso   1.000  N
  N30      1.0000 0.35060  0.40400  0.95400  Biso   1.000  N
  N31      1.0000 0.14940  0.90400  0.54600  Biso   1.000  N
  N32      1.0000 0.85060  0.90400  0.95400  Biso   1.000  N
  H105     1.0000 0.34990  0.71460  0.42940  Biso   1.000  H
  H106     1.0000 0.65010  0.71460  0.07060  Biso   1.000  H
  H107     1.0000 0.84990  0.21460  0.42940  Biso   1.000  H
  H108     1.0000 0.15010  0.21460  0.07060  Biso   1.000  H
  H109     1.0000 0.65010  0.28540  0.57060  Biso   1.000  H
  H110     1.0000 0.34990  0.28540  0.92940  Biso   1.000  H
  H111     1.0000 0.15010  0.78540  0.57060  Biso   1.000  H
  H112     1.0000 0.84990  0.78540  0.92940  Biso   1.000  H
  H113     1.0000 0.34100  0.60940  0.50400  Biso   1.000  H
  H114     1.0000 0.65900  0.60940  0.99600  Biso   1.000  H
  H115     1.0000 0.84100  0.10940  0.50400  Biso   1.000  H
  H116     1.0000 0.15900  0.10940  0.99600  Biso   1.000  H
  H117     1.0000 0.65900  0.39060  0.49600  Biso   1.000  H
  H118     1.0000 0.34100  0.39060  0.00400  Biso   1.000  H
  H119     1.0000 0.15900  0.89060  0.49600  Biso   1.000  H
  H120     1.0000 0.84100  0.89060  0.00400  Biso   1.000  H
  C73      1.0000 0.39250  0.56000  0.49630  Biso   1.000  C
  C74      1.0000 0.60750  0.56000  0.00370  Biso   1.000  C
  C75      1.0000 0.89250  0.06000  0.49630  Biso   1.000  C
  C76      1.0000 0.10750  0.06000  0.00370  Biso   1.000  C
  C77      1.0000 0.60750  0.44000  0.50370  Biso   1.000  C
  C78      1.0000 0.39250  0.44000  0.99630  Biso   1.000  C
  C79      1.0000 0.10750  0.94000  0.50370  Biso   1.000  C
  C80      1.0000 0.89250  0.94000  0.99630  Biso   1.000  C
  H121     1.0000 0.40510  0.54730  0.44600  Biso   1.000  H
  H122     1.0000 0.59490  0.54730  0.05400  Biso   1.000  H
  H123     1.0000 0.90510  0.04730  0.44600  Biso   1.000  H
  H124     1.0000 0.09490  0.04730  0.05400  Biso   1.000  H
  H125     1.0000 0.59490  0.45270  0.55400  Biso   1.000  H
  H126     1.0000 0.40510  0.45270  0.94600  Biso   1.000  H
  H127     1.0000 0.09490  0.95270  0.55400  Biso   1.000  H
  H128     1.0000 0.90510  0.95270  0.94600  Biso   1.000  H
  H129     1.0000 0.40470  0.67200  0.53380  Biso   1.000  H
  H130     1.0000 0.59530  0.67200  0.96620  Biso   1.000  H
  H131     1.0000 0.90470  0.17200  0.53380  Biso   1.000  H
  H132     1.0000 0.09530  0.17200  0.96620  Biso   1.000  H
  H133     1.0000 0.59530  0.32800  0.46620  Biso   1.000  H
  H134     1.0000 0.40470  0.32800  0.03380  Biso   1.000  H
  H135     1.0000 0.09530  0.82800  0.46620  Biso   1.000  H
  H136     1.0000 0.90470  0.82800  0.03380  Biso   1.000  H
  C81      1.0000 0.40240  0.40200  0.55360  Biso   1.000  C
  C82      1.0000 0.59760  0.40200  0.94640  Biso   1.000  C
  C83      1.0000 0.90240  0.90200  0.55360  Biso   1.000  C
  C84      1.0000 0.09760  0.90200  0.94640  Biso   1.000  C
  C85      1.0000 0.59760  0.59800  0.44640  Biso   1.000  C
  C86      1.0000 0.40240  0.59800  0.05360  Biso   1.000  C
  C87      1.0000 0.09760  0.09800  0.44640  Biso   1.000  C
  C88      1.0000 0.90240  0.09800  0.05360  Biso   1.000  C
  H137     1.0000 0.38590  0.29500  0.52060  Biso   1.000  H
  H138     1.0000 0.61410  0.29500  0.97940  Biso   1.000  H
  H139     1.0000 0.88590  0.79500  0.52060  Biso   1.000  H
  H140     1.0000 0.11410  0.79500  0.97940  Biso   1.000  H
  H141     1.0000 0.61410  0.70500  0.47940  Biso   1.000  H
  H142     1.0000 0.38590  0.70500  0.02060  Biso   1.000  H
  H143     1.0000 0.11410  0.20500  0.47940  Biso   1.000  H
  H144     1.0000 0.88590  0.20500  0.02060  Biso   1.000  H
  H145     1.0000 0.39480  0.42620  0.61070  Biso   1.000  H
  H146     1.0000 0.60520  0.42620  0.88930  Biso   1.000  H
  H147     1.0000 0.89480  0.92620  0.61070  Biso   1.000  H
  H148     1.0000 0.10520  0.92620  0.88930  Biso   1.000  H
  H149     1.0000 0.60520  0.57380  0.38930  Biso   1.000  H
  H150     1.0000 0.39480  0.57380  0.11070  Biso   1.000  H
  H151     1.0000 0.10520  0.07380  0.38930  Biso   1.000  H
  H152     1.0000 0.89480  0.07380  0.11070  Biso   1.000  H
  C89      1.0000 0.44850  0.34000  0.58430  Biso   1.000  C
  C90      1.0000 0.55150  0.34000  0.91570  Biso   1.000  C
  C91      1.0000 0.94850  0.84000  0.58430  Biso   1.000  C
  C92      1.0000 0.05150  0.84000  0.91570  Biso   1.000  C
  C93      1.0000 0.55150  0.66000  0.41570  Biso   1.000  C
  C94      1.0000 0.44850  0.66000  0.08430  Biso   1.000  C
  C95      1.0000 0.05150  0.16000  0.41570  Biso   1.000  C
  C96      1.0000 0.94850  0.16000  0.08430  Biso   1.000  C
  H153     1.0000 0.45260  0.23500  0.62920  Biso   1.000  H
  H154     1.0000 0.54740  0.23500  0.87080  Biso   1.000  H
  H155     1.0000 0.95260  0.73500  0.62920  Biso   1.000  H
  H156     1.0000 0.04740  0.73500  0.87080  Biso   1.000  H
  H157     1.0000 0.54740  0.76500  0.37080  Biso   1.000  H
  H158     1.0000 0.45260  0.76500  0.12920  Biso   1.000  H
  H159     1.0000 0.04740  0.26500  0.37080  Biso   1.000  H
  H160     1.0000 0.95260  0.26500  0.12920  Biso   1.000  H
  H161     1.0000 0.45510  0.29400  0.52870  Biso   1.000  H
  H162     1.0000 0.54490  0.29400  0.97130  Biso   1.000  H
  H163     1.0000 0.95510  0.79400  0.52870  Biso   1.000  H
  H164     1.0000 0.04490  0.79400  0.97130  Biso   1.000  H
  H165     1.0000 0.54490  0.70600  0.47130  Biso   1.000  H
  H166     1.0000 0.45510  0.70600  0.02870  Biso   1.000  H
  H167     1.0000 0.04490  0.20600  0.47130  Biso   1.000  H
  H168     1.0000 0.95510  0.20600  0.02870  Biso   1.000  H
  C97      1.0000 0.47440  0.48300  0.62400  Biso   1.000  C
  C98      1.0000 0.52560  0.48300  0.87600  Biso   1.000  C
  C99      1.0000 0.97440  0.98300  0.62400  Biso   1.000  C
  C100     1.0000 0.02560  0.98300  0.87600  Biso   1.000  C
  C101     1.0000 0.52560  0.51700  0.37600  Biso   1.000  C
  C102     1.0000 0.47440  0.51700  0.12400  Biso   1.000  C
  C103     1.0000 0.02560  0.01700  0.37600  Biso   1.000  C
  C104     1.0000 0.97440  0.01700  0.12400  Biso   1.000  C
  H169     1.0000 0.50220  0.43650  0.64190  Biso   1.000  H
  H170     1.0000 0.49780  0.43650  0.85810  Biso   1.000  H
  H171     1.0000 0.00220  0.93650  0.64190  Biso   1.000  H
  H172     1.0000 0.99780  0.93650  0.85810  Biso   1.000  H
  H173     1.0000 0.49780  0.56350  0.35810  Biso   1.000  H
  H174     1.0000 0.50220  0.56350  0.14190  Biso   1.000  H
  H175     1.0000 0.99780  0.06350  0.35810  Biso   1.000  H
  H176     1.0000 0.00220  0.06350  0.14190  Biso   1.000  H
  H177     1.0000 0.46840  0.52820  0.68000  Biso   1.000  H
  H178     1.0000 0.53160  0.52820  0.82000  Biso   1.000  H
  H179     1.0000 0.96840  0.02820  0.68000  Biso   1.000  H
  H180     1.0000 0.03160  0.02820  0.82000  Biso   1.000  H
  H181     1.0000 0.53160  0.47180  0.32000  Biso   1.000  H
  H182     1.0000 0.46840  0.47180  0.18000  Biso   1.000  H
  H183     1.0000 0.03160  0.97180  0.32000  Biso   1.000  H
  H184     1.0000 0.96840  0.97180  0.18000  Biso   1.000  H
  H185     1.0000 0.47120  0.58640  0.57950  Biso   1.000  H
  H186     1.0000 0.52880  0.58640  0.92050  Biso   1.000  H
  H187     1.0000 0.97120  0.08640  0.57950  Biso   1.000  H
  H188     1.0000 0.02880  0.08640  0.92050  Biso   1.000  H
  H189     1.0000 0.52880  0.41360  0.42050  Biso   1.000  H
  H190     1.0000 0.47120  0.41360  0.07950  Biso   1.000  H
  H191     1.0000 0.02880  0.91360  0.42050  Biso   1.000  H
  H192     1.0000 0.97120  0.91360  0.07950  Biso   1.000  H
  C105     1.0000 0.10940  0.15200  0.04790  Biso   1.000  C
  C106     1.0000 0.89060  0.15200  0.45210  Biso   1.000  C
  C107     1.0000 0.60940  0.65200  0.04790  Biso   1.000  C
  C108     1.0000 0.39060  0.65200  0.45210  Biso   1.000  C
  C109     1.0000 0.89060  0.84800  0.95210  Biso   1.000  C
  C110     1.0000 0.10940  0.84800  0.54790  Biso   1.000  C
  C111     1.0000 0.39060  0.34800  0.95210  Biso   1.000  C
  C112     1.0000 0.60940  0.34800  0.54790  Biso   1.000  C
  C113     1.0000 0.07860  0.16400  0.96290  Biso   1.000  C
  C114     1.0000 0.92140  0.16400  0.53710  Biso   1.000  C
  C115     1.0000 0.57860  0.66400  0.96290  Biso   1.000  C
  C116     1.0000 0.42140  0.66400  0.53710  Biso   1.000  C
  C117     1.0000 0.92140  0.83600  0.03710  Biso   1.000  C
  C118     1.0000 0.07860  0.83600  0.46290  Biso   1.000  C
  C119     1.0000 0.42140  0.33600  0.03710  Biso   1.000  C
  C120     1.0000 0.57860  0.33600  0.46290  Biso   1.000  C
  C121     1.0000 0.03980  0.28100  0.96410  Biso   1.000  C
  C122     1.0000 0.96020  0.28100  0.53590  Biso   1.000  C
  C123     1.0000 0.53980  0.78100  0.96410  Biso   1.000  C
  C124     1.0000 0.46020  0.78100  0.53590  Biso   1.000  C
  C125     1.0000 0.96020  0.71900  0.03590  Biso   1.000  C
  C126     1.0000 0.03980  0.71900  0.46410  Biso   1.000  C
  C127     1.0000 0.46020  0.21900  0.03590  Biso   1.000  C
  C128     1.0000 0.53980  0.21900  0.46410  Biso   1.000  C
  C129     1.0000 0.00610  0.23600  0.89200  Biso   1.000  C
  C130     1.0000 0.99390  0.23600  0.60800  Biso   1.000  C
  C131     1.0000 0.50610  0.73600  0.89200  Biso   1.000  C
  C132     1.0000 0.49390  0.73600  0.60800  Biso   1.000  C
  C133     1.0000 0.99390  0.76400  0.10800  Biso   1.000  C
  C134     1.0000 0.00610  0.76400  0.39200  Biso   1.000  C
  C135     1.0000 0.49390  0.26400  0.10800  Biso   1.000  C
  C136     1.0000 0.50610  0.26400  0.39200  Biso   1.000  C
  C137     1.0000 0.12130  0.82800  0.21240  Biso   1.000  C
  C138     1.0000 0.87870  0.82800  0.28760  Biso   1.000  C
  C139     1.0000 0.62130  0.32800  0.21240  Biso   1.000  C
  C140     1.0000 0.37870  0.32800  0.28760  Biso   1.000  C
  C141     1.0000 0.87870  0.17200  0.78760  Biso   1.000  C
  C142     1.0000 0.12130  0.17200  0.71240  Biso   1.000  C
  C143     1.0000 0.37870  0.67200  0.78760  Biso   1.000  C
  C144     1.0000 0.62130  0.67200  0.71240  Biso   1.000  C
  C145     1.0000 0.10360  0.66600  0.25310  Biso   1.000  C
  C146     1.0000 0.89640  0.66600  0.24690  Biso   1.000  C
  C147     1.0000 0.60360  0.16600  0.25310  Biso   1.000  C
  C148     1.0000 0.39640  0.16600  0.24690  Biso   1.000  C
  C149     1.0000 0.89640  0.33400  0.74690  Biso   1.000  C
  C150     1.0000 0.10360  0.33400  0.75310  Biso   1.000  C
  C151     1.0000 0.39640  0.83400  0.74690  Biso   1.000  C
  C152     1.0000 0.60360  0.83400  0.75310  Biso   1.000  C
  C153     1.0000 0.09530  0.49400  0.18790  Biso   1.000  C
  C154     1.0000 0.90470  0.49400  0.31210  Biso   1.000  C
  C155     1.0000 0.59530  0.99400  0.18790  Biso   1.000  C
  C156     1.0000 0.40470  0.99400  0.31210  Biso   1.000  C
  C157     1.0000 0.90470  0.50600  0.81210  Biso   1.000  C
  C158     1.0000 0.09530  0.50600  0.68790  Biso   1.000  C
  C159     1.0000 0.40470  0.00600  0.81210  Biso   1.000  C
  C160     1.0000 0.59530  0.00600  0.68790  Biso   1.000  C
  C161     1.0000 0.05220  0.46200  0.13640  Biso   1.000  C
  C162     1.0000 0.94780  0.46200  0.36360  Biso   1.000  C
  C163     1.0000 0.55220  0.96200  0.13640  Biso   1.000  C
  C164     1.0000 0.44780  0.96200  0.36360  Biso   1.000  C
  C165     1.0000 0.94780  0.53800  0.86360  Biso   1.000  C
  C166     1.0000 0.05220  0.53800  0.63640  Biso   1.000  C
  C167     1.0000 0.44780  0.03800  0.86360  Biso   1.000  C
  C168     1.0000 0.55220  0.03800  0.63640  Biso   1.000  C
  H193     1.0000 0.09960  0.07550  0.09130  Biso   1.000  H
  H194     1.0000 0.90040  0.07550  0.40870  Biso   1.000  H
  H195     1.0000 0.59960  0.57550  0.09130  Biso   1.000  H
  H196     1.0000 0.40040  0.57550  0.40870  Biso   1.000  H
  H197     1.0000 0.90040  0.92450  0.90870  Biso   1.000  H
  H198     1.0000 0.09960  0.92450  0.59130  Biso   1.000  H
  H199     1.0000 0.40040  0.42450  0.90870  Biso   1.000  H
  H200     1.0000 0.59960  0.42450  0.59130  Biso   1.000  H
  H201     1.0000 0.11460  0.28070  0.07460  Biso   1.000  H
  H202     1.0000 0.88540  0.28070  0.42540  Biso   1.000  H
  H203     1.0000 0.61460  0.78070  0.07460  Biso   1.000  H
  H204     1.0000 0.38540  0.78070  0.42540  Biso   1.000  H
  H205     1.0000 0.88540  0.71930  0.92540  Biso   1.000  H
  H206     1.0000 0.11460  0.71930  0.57460  Biso   1.000  H
  H207     1.0000 0.38540  0.21930  0.92540  Biso   1.000  H
  H208     1.0000 0.61460  0.21930  0.57460  Biso   1.000  H
  H209     1.0000 0.06990  0.03420  0.94160  Biso   1.000  H
  H210     1.0000 0.93010  0.03420  0.55840  Biso   1.000  H
  H211     1.0000 0.56990  0.53420  0.94160  Biso   1.000  H
  H212     1.0000 0.43010  0.53420  0.55840  Biso   1.000  H
  H213     1.0000 0.93010  0.96580  0.05840  Biso   1.000  H
  H214     1.0000 0.06990  0.96580  0.44160  Biso   1.000  H
  H215     1.0000 0.43010  0.46580  0.05840  Biso   1.000  H
  H216     1.0000 0.56990  0.46580  0.44160  Biso   1.000  H
  H217     1.0000 0.08970  0.22090  0.91610  Biso   1.000  H
  H218     1.0000 0.91030  0.22090  0.58390  Biso   1.000  H
  H219     1.0000 0.58970  0.72090  0.91610  Biso   1.000  H
  H220     1.0000 0.41030  0.72090  0.58390  Biso   1.000  H
  H221     1.0000 0.91030  0.77910  0.08390  Biso   1.000  H
  H222     1.0000 0.08970  0.77910  0.41610  Biso   1.000  H
  H223     1.0000 0.41030  0.27910  0.08390  Biso   1.000  H
  H224     1.0000 0.58970  0.27910  0.41610  Biso   1.000  H
  H225     1.0000 0.03440  0.25750  0.02390  Biso   1.000  H
  H226     1.0000 0.96560  0.25750  0.47610  Biso   1.000  H
  H227     1.0000 0.53440  0.75750  0.02390  Biso   1.000  H
  H228     1.0000 0.46560  0.75750  0.47610  Biso   1.000  H
  H229     1.0000 0.96560  0.74250  0.97610  Biso   1.000  H
  H230     1.0000 0.03440  0.74250  0.52390  Biso   1.000  H
  H231     1.0000 0.46560  0.24250  0.97610  Biso   1.000  H
  H232     1.0000 0.53440  0.24250  0.52390  Biso   1.000  H
  H233     1.0000 0.04550  0.41650  0.96080  Biso   1.000  H
  H234     1.0000 0.95450  0.41650  0.53920  Biso   1.000  H
  H235     1.0000 0.54550  0.91650  0.96080  Biso   1.000  H
  H236     1.0000 0.45450  0.91650  0.53920  Biso   1.000  H
  H237     1.0000 0.95450  0.58350  0.03920  Biso   1.000  H
  H238     1.0000 0.04550  0.58350  0.46080  Biso   1.000  H
  H239     1.0000 0.45450  0.08350  0.03920  Biso   1.000  H
  H240     1.0000 0.54550  0.08350  0.46080  Biso   1.000  H
  H241     1.0000 0.98340  0.31240  0.89650  Biso   1.000  H
  H242     1.0000 0.01660  0.31240  0.60350  Biso   1.000  H
  H243     1.0000 0.48340  0.81240  0.89650  Biso   1.000  H
  H244     1.0000 0.51660  0.81240  0.60350  Biso   1.000  H
  H245     1.0000 0.01660  0.68760  0.10350  Biso   1.000  H
  H246     1.0000 0.98340  0.68760  0.39650  Biso   1.000  H
  H247     1.0000 0.51660  0.18760  0.10350  Biso   1.000  H
  H248     1.0000 0.48340  0.18760  0.39650  Biso   1.000  H
  H249     1.0000 0.99980  0.10250  0.89560  Biso   1.000  H
  H250     1.0000 0.00020  0.10250  0.60440  Biso   1.000  H
  H251     1.0000 0.49980  0.60250  0.89560  Biso   1.000  H
  H252     1.0000 0.50020  0.60250  0.60440  Biso   1.000  H
  H253     1.0000 0.00020  0.89750  0.10440  Biso   1.000  H
  H254     1.0000 0.99980  0.89750  0.39560  Biso   1.000  H
  H255     1.0000 0.50020  0.39750  0.10440  Biso   1.000  H
  H256     1.0000 0.49980  0.39750  0.39560  Biso   1.000  H
  H257     1.0000 0.01100  0.26140  0.83240  Biso   1.000  H
  H258     1.0000 0.98900  0.26140  0.66760  Biso   1.000  H
  H259     1.0000 0.51100  0.76140  0.83240  Biso   1.000  H
  H260     1.0000 0.48900  0.76140  0.66760  Biso   1.000  H
  H261     1.0000 0.98900  0.73860  0.16760  Biso   1.000  H
  H262     1.0000 0.01100  0.73860  0.33240  Biso   1.000  H
  H263     1.0000 0.48900  0.23860  0.16760  Biso   1.000  H
  H264     1.0000 0.51100  0.23860  0.33240  Biso   1.000  H
  H265     1.0000 0.16060  0.67910  0.17840  Biso   1.000  H
  H266     1.0000 0.83940  0.67910  0.32160  Biso   1.000  H
  H267     1.0000 0.66060  0.17910  0.17840  Biso   1.000  H
  H268     1.0000 0.33940  0.17910  0.32160  Biso   1.000  H
  H269     1.0000 0.83940  0.32090  0.82160  Biso   1.000  H
  H270     1.0000 0.16060  0.32090  0.67840  Biso   1.000  H
  H271     1.0000 0.33940  0.82090  0.82160  Biso   1.000  H
  H272     1.0000 0.66060  0.82090  0.67840  Biso   1.000  H
  H273     1.0000 0.17810  0.78220  0.26590  Biso   1.000  H
  H274     1.0000 0.82190  0.78220  0.23410  Biso   1.000  H
  H275     1.0000 0.67810  0.28220  0.26590  Biso   1.000  H
  H276     1.0000 0.32190  0.28220  0.23410  Biso   1.000  H
  H277     1.0000 0.82190  0.21780  0.73410  Biso   1.000  H
  H278     1.0000 0.17810  0.21780  0.76590  Biso   1.000  H
  H279     1.0000 0.32190  0.71780  0.73410  Biso   1.000  H
  H280     1.0000 0.67810  0.71780  0.76590  Biso   1.000  H
  H281     1.0000 0.15790  0.17030  0.01960  Biso   1.000  H
  H282     1.0000 0.84210  0.17030  0.48040  Biso   1.000  H
  H283     1.0000 0.65790  0.67030  0.01960  Biso   1.000  H
  H284     1.0000 0.34210  0.67030  0.48040  Biso   1.000  H
  H285     1.0000 0.84210  0.82970  0.98040  Biso   1.000  H
  H286     1.0000 0.15790  0.82970  0.51960  Biso   1.000  H
  H287     1.0000 0.34210  0.32970  0.98040  Biso   1.000  H
  H288     1.0000 0.65790  0.32970  0.51960  Biso   1.000  H
  H289     1.0000 0.13900  0.98510  0.99880  Biso   1.000  H
  H290     1.0000 0.86100  0.98510  0.50120  Biso   1.000  H
  H291     1.0000 0.63900  0.48510  0.99880  Biso   1.000  H
  H292     1.0000 0.36100  0.48510  0.50120  Biso   1.000  H
  H293     1.0000 0.86100  0.01490  0.00120  Biso   1.000  H
  H294     1.0000 0.13900  0.01490  0.49880  Biso   1.000  H
  H295     1.0000 0.36100  0.51490  0.00120  Biso   1.000  H
  H296     1.0000 0.63900  0.51490  0.49880  Biso   1.000  H
  H297     1.0000 0.10280  0.85650  0.14930  Biso   1.000  H
  H298     1.0000 0.89720  0.85650  0.35070  Biso   1.000  H
  H299     1.0000 0.60280  0.35650  0.14930  Biso   1.000  H
  H300     1.0000 0.39720  0.35650  0.35070  Biso   1.000  H
  H301     1.0000 0.89720  0.14350  0.85070  Biso   1.000  H
  H302     1.0000 0.10280  0.14350  0.64930  Biso   1.000  H
  H303     1.0000 0.39720  0.64350  0.85070  Biso   1.000  H
  H304     1.0000 0.60280  0.64350  0.64930  Biso   1.000  H
  H305     1.0000 0.12220  0.94110  0.25160  Biso   1.000  H
  H306     1.0000 0.87780  0.94110  0.24840  Biso   1.000  H
  H307     1.0000 0.62220  0.44110  0.25160  Biso   1.000  H
  H308     1.0000 0.37780  0.44110  0.24840  Biso   1.000  H
  H309     1.0000 0.87780  0.05890  0.74840  Biso   1.000  H
  H310     1.0000 0.12220  0.05890  0.75160  Biso   1.000  H
  H311     1.0000 0.37780  0.55890  0.74840  Biso   1.000  H
  H312     1.0000 0.62220  0.55890  0.75160  Biso   1.000  H
  H313     1.0000 0.07820  0.70680  0.26340  Biso   1.000  H
  H314     1.0000 0.92180  0.70680  0.23660  Biso   1.000  H
  H315     1.0000 0.57820  0.20680  0.26340  Biso   1.000  H
  H316     1.0000 0.42180  0.20680  0.23660  Biso   1.000  H
  H317     1.0000 0.92180  0.29320  0.73660  Biso   1.000  H
  H318     1.0000 0.07820  0.29320  0.76340  Biso   1.000  H
  H319     1.0000 0.42180  0.79320  0.73660  Biso   1.000  H
  H320     1.0000 0.57820  0.79320  0.76340  Biso   1.000  H
  H321     1.0000 0.12270  0.62980  0.31440  Biso   1.000  H
  H322     1.0000 0.87730  0.62980  0.18560  Biso   1.000  H
  H323     1.0000 0.62270  0.12980  0.31440  Biso   1.000  H
  H324     1.0000 0.37730  0.12980  0.18560  Biso   1.000  H
  H325     1.0000 0.87730  0.37020  0.68560  Biso   1.000  H
  H326     1.0000 0.12270  0.37020  0.81440  Biso   1.000  H
  H327     1.0000 0.37730  0.87020  0.68560  Biso   1.000  H
  H328     1.0000 0.62270  0.87020  0.81440  Biso   1.000  H
  H329     1.0000 0.11020  0.50910  0.14200  Biso   1.000  H
  H330     1.0000 0.88980  0.50910  0.35800  Biso   1.000  H
  H331     1.0000 0.61020  0.00910  0.14200  Biso   1.000  H
  H332     1.0000 0.38980  0.00910  0.35800  Biso   1.000  H
  H333     1.0000 0.88980  0.49090  0.85800  Biso   1.000  H
  H334     1.0000 0.11020  0.49090  0.64200  Biso   1.000  H
  H335     1.0000 0.38980  0.99090  0.85800  Biso   1.000  H
  H336     1.0000 0.61020  0.99090  0.64200  Biso   1.000  H
  H337     1.0000 0.10600  0.38010  0.22550  Biso   1.000  H
  H338     1.0000 0.89400  0.38010  0.27450  Biso   1.000  H
  H339     1.0000 0.60600  0.88010  0.22550  Biso   1.000  H
  H340     1.0000 0.39400  0.88010  0.27450  Biso   1.000  H
  H341     1.0000 0.89400  0.61990  0.77450  Biso   1.000  H
  H342     1.0000 0.10600  0.61990  0.72550  Biso   1.000  H
  H343     1.0000 0.39400  0.11990  0.77450  Biso   1.000  H
  H344     1.0000 0.60600  0.11990  0.72550  Biso   1.000  H
  H345     1.0000 0.04950  0.34970  0.09700  Biso   1.000  H
  H346     1.0000 0.95050  0.34970  0.40300  Biso   1.000  H
  H347     1.0000 0.54950  0.84970  0.09700  Biso   1.000  H
  H348     1.0000 0.45050  0.84970  0.40300  Biso   1.000  H
  H349     1.0000 0.95050  0.65030  0.90300  Biso   1.000  H
  H350     1.0000 0.04950  0.65030  0.59700  Biso   1.000  H
  H351     1.0000 0.45050  0.15030  0.90300  Biso   1.000  H
  H352     1.0000 0.54950  0.15030  0.59700  Biso   1.000  H
  H353     1.0000 0.04140  0.57130  0.09720  Biso   1.000  H
  H354     1.0000 0.95860  0.57130  0.40280  Biso   1.000  H
  H355     1.0000 0.54140  0.07130  0.09720  Biso   1.000  H
  H356     1.0000 0.45860  0.07130  0.40280  Biso   1.000  H
  H357     1.0000 0.95860  0.42870  0.90280  Biso   1.000  H
  H358     1.0000 0.04140  0.42870  0.59720  Biso   1.000  H
  H359     1.0000 0.45860  0.92870  0.90280  Biso   1.000  H
  H360     1.0000 0.54140  0.92870  0.59720  Biso   1.000  H
  H361     1.0000 0.03720  0.44290  0.18100  Biso   1.000  H
  H362     1.0000 0.96280  0.44290  0.31900  Biso   1.000  H
  H363     1.0000 0.53720  0.94290  0.18100  Biso   1.000  H
  H364     1.0000 0.46280  0.94290  0.31900  Biso   1.000  H
  H365     1.0000 0.96280  0.55710  0.81900  Biso   1.000  H
  H366     1.0000 0.03720  0.55710  0.68100  Biso   1.000  H
  H367     1.0000 0.46280  0.05710  0.81900  Biso   1.000  H
  H368     1.0000 0.53720  0.05710  0.68100  Biso   1.000  H
  N33      1.0000 0.16180  0.79600  0.20540  Biso   1.000  N
  N34      1.0000 0.83820  0.79600  0.29460  Biso   1.000  N
  N35      1.0000 0.66180  0.29600  0.20540  Biso   1.000  N
  N36      1.0000 0.33820  0.29600  0.29460  Biso   1.000  N
  N37      1.0000 0.83820  0.20400  0.79460  Biso   1.000  N
  N38      1.0000 0.16180  0.20400  0.70540  Biso   1.000  N
  N39      1.0000 0.33820  0.70400  0.79460  Biso   1.000  N
  N40      1.0000 0.66180  0.70400  0.70540  Biso   1.000  N
  N41      1.0000 0.14660  0.07500  0.04460  Biso   1.000  N
  N42      1.0000 0.85340  0.07500  0.45540  Biso   1.000  N
  N43      1.0000 0.64660  0.57500  0.04460  Biso   1.000  N
  N44      1.0000 0.35340  0.57500  0.45540  Biso   1.000  N
  N45      1.0000 0.85340  0.92500  0.95540  Biso   1.000  N
  N46      1.0000 0.14660  0.92500  0.54460  Biso   1.000  N
  N47      1.0000 0.35340  0.42500  0.95540  Biso   1.000  N
  N48      1.0000 0.64660  0.42500  0.54460  Biso   1.000  N
