data_image0
_cell_length_a       9.1494
_cell_length_b       7.5833
_cell_length_c       14.3728
_cell_angle_alpha    90
_cell_angle_beta     92.813
_cell_angle_gamma    90

_symmetry_space_group_name_H-M    "P 1"
_symmetry_int_tables_number       1

loop_
  _symmetry_equiv_pos_as_xyz
  'x, y, z'

loop_
  _atom_site_label
  _atom_site_occupancy
  _atom_site_fract_x
  _atom_site_fract_y
  _atom_site_fract_z
  _atom_site_thermal_displace_type
  _atom_site_B_iso_or_equiv
  _atom_site_type_symbol
  Cu1      1.0000 0.00000  0.00000  0.50000  Biso   1.000  Cu
  Cu2      1.0000 0.00000  0.50000  0.00000  Biso   1.000  Cu
  O1       1.0000 0.90994  0.84792  0.35696  Biso   1.000  O
  O2       1.0000 0.09006  0.34792  0.14304  Biso   1.000  O
  O3       1.0000 0.09006  0.15208  0.64304  Biso   1.000  O
  O4       1.0000 0.90994  0.65208  0.85696  Biso   1.000  O
  O5       1.0000 0.73378  0.77860  0.25021  Biso   1.000  O
  O6       1.0000 0.26622  0.27860  0.24979  Biso   1.000  O
  O7       1.0000 0.26622  0.22140  0.74979  Biso   1.000  O
  O8       1.0000 0.73378  0.72140  0.75021  Biso   1.000  O
  C1       1.0000 0.84535  0.85890  0.27387  Biso   1.000  C
  C2       1.0000 0.15465  0.35890  0.22613  Biso   1.000  C
  C3       1.0000 0.15465  0.14110  0.72613  Biso   1.000  C
  C4       1.0000 0.84535  0.64110  0.77387  Biso   1.000  C
  C5       1.0000 0.92260  0.98140  0.20995  Biso   1.000  C
  C6       1.0000 0.07740  0.48140  0.29005  Biso   1.000  C
  C7       1.0000 0.07740  0.01860  0.79005  Biso   1.000  C
  C8       1.0000 0.92260  0.51860  0.70995  Biso   1.000  C
  H1       1.0000 0.02250  0.94090  0.20510  Biso   1.000  H
  H2       1.0000 0.97750  0.44090  0.29490  Biso   1.000  H
  H3       1.0000 0.97750  0.05910  0.79490  Biso   1.000  H
  H4       1.0000 0.02250  0.55910  0.70510  Biso   1.000  H
  H5       1.0000 0.92650  0.09800  0.23770  Biso   1.000  H
  H6       1.0000 0.07350  0.59800  0.26230  Biso   1.000  H
  H7       1.0000 0.07350  0.90200  0.76230  Biso   1.000  H
  H8       1.0000 0.92650  0.40200  0.73770  Biso   1.000  H
  C9       1.0000 0.85145  0.99570  0.11269  Biso   1.000  C
  C10      1.0000 0.14855  0.49570  0.38731  Biso   1.000  C
  C11      1.0000 0.14855  0.00430  0.88731  Biso   1.000  C
  C12      1.0000 0.85145  0.50430  0.61269  Biso   1.000  C
  H9       1.0000 0.74660  0.00670  0.11830  Biso   1.000  H
  H10      1.0000 0.25340  0.50670  0.38170  Biso   1.000  H
  H11      1.0000 0.25340  0.99330  0.88170  Biso   1.000  H
  H12      1.0000 0.74660  0.49330  0.61830  Biso   1.000  H
  H13      1.0000 0.88520  0.10380  0.08470  Biso   1.000  H
  H14      1.0000 0.11480  0.60380  0.41530  Biso   1.000  H
  H15      1.0000 0.11480  0.89620  0.91530  Biso   1.000  H
  H16      1.0000 0.88520  0.39620  0.58470  Biso   1.000  H
  C13      1.0000 0.87867  0.84590  0.04688  Biso   1.000  C
  C14      1.0000 0.12133  0.34590  0.45312  Biso   1.000  C
  C15      1.0000 0.12133  0.15410  0.95312  Biso   1.000  C
  C16      1.0000 0.87867  0.65410  0.54688  Biso   1.000  C
  O9       1.0000 0.96593  0.72378  0.07081  Biso   1.000  O
  O10      1.0000 0.03407  0.22378  0.42919  Biso   1.000  O
  O11      1.0000 0.03407  0.27622  0.92919  Biso   1.000  O
  O12      1.0000 0.96593  0.77622  0.57081  Biso   1.000  O
  O13      1.0000 0.81109  0.85789  0.96797  Biso   1.000  O
  O14      1.0000 0.18891  0.35789  0.53203  Biso   1.000  O
  O15      1.0000 0.18891  0.14211  0.03203  Biso   1.000  O
  O16      1.0000 0.81109  0.64211  0.46797  Biso   1.000  O
  N1       1.0000 0.20347  0.92031  0.47738  Biso   1.000  N
  N2       1.0000 0.79653  0.42031  0.02262  Biso   1.000  N
  N3       1.0000 0.79653  0.07969  0.52262  Biso   1.000  N
  N4       1.0000 0.20347  0.57969  0.97738  Biso   1.000  N
  C17      1.0000 0.25255  0.94750  0.39224  Biso   1.000  C
  C18      1.0000 0.74745  0.44750  0.10776  Biso   1.000  C
  C19      1.0000 0.74745  0.05250  0.60776  Biso   1.000  C
  C20      1.0000 0.25255  0.55250  0.89224  Biso   1.000  C
  H17      1.0000 0.19410  0.01110  0.34940  Biso   1.000  H
  H18      1.0000 0.80590  0.51110  0.15060  Biso   1.000  H
  H19      1.0000 0.80590  0.98890  0.65060  Biso   1.000  H
  H20      1.0000 0.19410  0.48890  0.84940  Biso   1.000  H
  C21      1.0000 0.38730  0.88490  0.36485  Biso   1.000  C
  C22      1.0000 0.61270  0.38490  0.13515  Biso   1.000  C
  C23      1.0000 0.61270  0.11510  0.63515  Biso   1.000  C
  C24      1.0000 0.38730  0.61510  0.86485  Biso   1.000  C
  C25      1.0000 0.47333  0.79050  0.43031  Biso   1.000  C
  C26      1.0000 0.52667  0.29050  0.06969  Biso   1.000  C
  C27      1.0000 0.52667  0.20950  0.56969  Biso   1.000  C
  C28      1.0000 0.47333  0.70950  0.93031  Biso   1.000  C
  H21      1.0000 0.56350  0.74550  0.41490  Biso   1.000  H
  H22      1.0000 0.43650  0.24550  0.08510  Biso   1.000  H
  H23      1.0000 0.43650  0.25450  0.58510  Biso   1.000  H
  H24      1.0000 0.56350  0.75450  0.91490  Biso   1.000  H
  C29      1.0000 0.42302  0.76460  0.51845  Biso   1.000  C
  C30      1.0000 0.57698  0.26460  0.98155  Biso   1.000  C
  C31      1.0000 0.57698  0.23540  0.48155  Biso   1.000  C
  C32      1.0000 0.42302  0.73540  0.01845  Biso   1.000  C
  H25      1.0000 0.48010  0.70350  0.56300  Biso   1.000  H
  H26      1.0000 0.51990  0.20350  0.93700  Biso   1.000  H
  H27      1.0000 0.51990  0.29650  0.43700  Biso   1.000  H
  H28      1.0000 0.48010  0.79650  0.06300  Biso   1.000  H
  C33      1.0000 0.28691  0.83010  0.54034  Biso   1.000  C
  C34      1.0000 0.71309  0.33010  0.95966  Biso   1.000  C
  C35      1.0000 0.71309  0.16990  0.45966  Biso   1.000  C
  C36      1.0000 0.28691  0.66990  0.04034  Biso   1.000  C
  H29      1.0000 0.25320  0.81120  0.59950  Biso   1.000  H
  H30      1.0000 0.74680  0.31120  0.90050  Biso   1.000  H
  H31      1.0000 0.74680  0.18880  0.40050  Biso   1.000  H
  H32      1.0000 0.25320  0.68880  0.09950  Biso   1.000  H
  N5       1.0000 0.42717  0.91180  0.27489  Biso   1.000  N
  N6       1.0000 0.57283  0.41180  0.22511  Biso   1.000  N
  N7       1.0000 0.57283  0.08820  0.72511  Biso   1.000  N
  N8       1.0000 0.42717  0.58820  0.77489  Biso   1.000  N
  H33      1.0000 0.50830  0.86960  0.25690  Biso   1.000  H
  H34      1.0000 0.49170  0.36960  0.24310  Biso   1.000  H
  H35      1.0000 0.49170  0.13040  0.74310  Biso   1.000  H
  H36      1.0000 0.50830  0.63040  0.75690  Biso   1.000  H
  H37      1.0000 0.37090  0.97080  0.23660  Biso   1.000  H
  H38      1.0000 0.62910  0.47080  0.26340  Biso   1.000  H
  H39      1.0000 0.62910  0.02920  0.76340  Biso   1.000  H
  H40      1.0000 0.37090  0.52920  0.73660  Biso   1.000  H
  H41      1.0000 0.86100  0.76500  0.39900  Biso   1.000  H
  H42      1.0000 0.13900  0.26500  0.10100  Biso   1.000  H
  H43      1.0000 0.13900  0.23500  0.60100  Biso   1.000  H
  H44      1.0000 0.86100  0.73500  0.89900  Biso   1.000  H
