data_image0
_cell_length_a       6.5407
_cell_length_b       9.8108
_cell_length_c       10.3024
_cell_angle_alpha    113.931
_cell_angle_beta     99.232
_cell_angle_gamma    99.09

_symmetry_space_group_name_H-M    "P 1"
_symmetry_int_tables_number       1

loop_
  _symmetry_equiv_pos_as_xyz
  'x, y, z'

loop_
  _atom_site_label
  _atom_site_occupancy
  _atom_site_fract_x
  _atom_site_fract_y
  _atom_site_fract_z
  _atom_site_thermal_displace_type
  _atom_site_B_iso_or_equiv
  _atom_site_type_symbol
  Cu1      1.0000 0.50000  0.50000  0.50000  Biso   1.000  Cu
  O1       1.0000 0.48980  0.14410  0.81505  Biso   1.000  O
  O2       1.0000 0.51020  0.85590  0.18495  Biso   1.000  O
  O3       1.0000 0.36280  0.30093  0.98495  Biso   1.000  O
  O4       1.0000 0.63720  0.69907  0.01505  Biso   1.000  O
  C1       1.0000 0.36310  0.17000  0.90500  Biso   1.000  C
  C2       1.0000 0.63690  0.83000  0.09500  Biso   1.000  C
  C3       1.0000 0.22240  0.03100  0.90320  Biso   1.000  C
  C4       1.0000 0.77760  0.96900  0.09680  Biso   1.000  C
  H1       1.0000 0.31260  0.97380  0.93280  Biso   1.000  H
  H2       1.0000 0.68740  0.02620  0.06720  Biso   1.000  H
  H3       1.0000 0.13880  0.96450  0.80360  Biso   1.000  H
  H4       1.0000 0.86120  0.03550  0.19640  Biso   1.000  H
  C5       1.0000 0.07080  0.07140  0.00370  Biso   1.000  C
  C6       1.0000 0.92920  0.92860  0.99630  Biso   1.000  C
  H5       1.0000 0.15380  0.13560  0.10380  Biso   1.000  H
  H6       1.0000 0.84620  0.86440  0.89620  Biso   1.000  H
  H7       1.0000 0.98180  0.13000  0.97550  Biso   1.000  H
  H8       1.0000 0.01820  0.87000  0.02450  Biso   1.000  H
  O5       1.0000 0.65750  0.70421  0.53109  Biso   1.000  O
  O6       1.0000 0.34250  0.29579  0.46891  Biso   1.000  O
  O7       1.0000 0.47170  0.86112  0.65451  Biso   1.000  O
  O8       1.0000 0.52830  0.13888  0.34549  Biso   1.000  O
  C7       1.0000 0.62160  0.83450  0.59205  Biso   1.000  C
  C8       1.0000 0.37840  0.16550  0.40795  Biso   1.000  C
  C9       1.0000 0.76970  0.96940  0.59030  Biso   1.000  C
  C10      1.0000 0.23030  0.03060  0.40970  Biso   1.000  C
  H9       1.0000 0.84700  0.03970  0.69040  Biso   1.000  H
  H10      1.0000 0.15300  0.96030  0.30960  Biso   1.000  H
  H11      1.0000 0.68290  0.02390  0.55380  Biso   1.000  H
  H12      1.0000 0.31710  0.97610  0.44620  Biso   1.000  H
  C11      1.0000 0.93180  0.92850  0.49860  Biso   1.000  C
  C12      1.0000 0.06820  0.07150  0.50140  Biso   1.000  C
  H13      1.0000 0.85690  0.85750  0.39820  Biso   1.000  H
  H14      1.0000 0.14310  0.14250  0.60180  Biso   1.000  H
  H15      1.0000 0.02370  0.87750  0.53640  Biso   1.000  H
  H16      1.0000 0.97630  0.12250  0.46360  Biso   1.000  H
  N1       1.0000 0.25060  0.50279  0.35791  Biso   1.000  N
  N2       1.0000 0.74940  0.49721  0.64209  Biso   1.000  N
  C13      1.0000 0.05110  0.43320  0.34880  Biso   1.000  C
  C14      1.0000 0.94890  0.56680  0.65120  Biso   1.000  C
  H17      1.0000 0.03350  0.37300  0.39840  Biso   1.000  H
  H18      1.0000 0.96650  0.62700  0.60160  Biso   1.000  H
  C15      1.0000 0.86940  0.44700  0.26855  Biso   1.000  C
  C16      1.0000 0.13060  0.55300  0.73145  Biso   1.000  C
  C17      1.0000 0.89810  0.53050  0.18830  Biso   1.000  C
  C18      1.0000 0.10190  0.46950  0.81170  Biso   1.000  C
  H19      1.0000 0.78090  0.54080  0.13180  Biso   1.000  H
  H20      1.0000 0.21910  0.45920  0.86820  Biso   1.000  H
  C19      1.0000 0.10370  0.59780  0.19400  Biso   1.000  C
  C20      1.0000 0.89630  0.40220  0.80600  Biso   1.000  C
  H21      1.0000 0.12570  0.65270  0.14000  Biso   1.000  H
  H22      1.0000 0.87430  0.34730  0.86000  Biso   1.000  H
  C21      1.0000 0.27660  0.58340  0.27980  Biso   1.000  C
  C22      1.0000 0.72340  0.41660  0.72020  Biso   1.000  C
  H23      1.0000 0.41400  0.63050  0.28380  Biso   1.000  H
  H24      1.0000 0.58600  0.36950  0.71620  Biso   1.000  H
  N3       1.0000 0.66700  0.38387  0.27390  Biso   1.000  N
  N4       1.0000 0.33300  0.61613  0.72610  Biso   1.000  N
  H25      1.0000 0.65330  0.33590  0.32700  Biso   1.000  H
  H26      1.0000 0.34670  0.66410  0.67300  Biso   1.000  H
  H27      1.0000 0.55540  0.39280  0.22410  Biso   1.000  H
  H28      1.0000 0.44460  0.60720  0.77590  Biso   1.000  H
  H29      1.0000 0.48400  0.04300  0.76000  Biso   1.000  H
  H30      1.0000 0.51600  0.95700  0.24000  Biso   1.000  H
