data_image0
_cell_length_a       8.9763
_cell_length_b       9.088
_cell_length_c       10.009
_cell_angle_alpha    92.3699
_cell_angle_beta     91.873
_cell_angle_gamma    93.3445

_symmetry_space_group_name_H-M    "P 1"
_symmetry_int_tables_number       1

loop_
  _symmetry_equiv_pos_as_xyz
  'x, y, z'

loop_
  _atom_site_label
  _atom_site_occupancy
  _atom_site_fract_x
  _atom_site_fract_y
  _atom_site_fract_z
  _atom_site_thermal_displace_type
  _atom_site_B_iso_or_equiv
  _atom_site_type_symbol
  Cu1      1.0000 0.00000  0.00000  0.50000  Biso   1.000  Cu
  O1       1.0000 0.21158  0.04399  0.55445  Biso   1.000  O
  O2       1.0000 0.78842  0.95601  0.44555  Biso   1.000  O
  O3       1.0000 0.28861  0.18514  0.38930  Biso   1.000  O
  O4       1.0000 0.71139  0.81486  0.61070  Biso   1.000  O
  C1       1.0000 0.30590  0.13080  0.50250  Biso   1.000  C
  C2       1.0000 0.69410  0.86920  0.49750  Biso   1.000  C
  C3       1.0000 0.44990  0.17470  0.58010  Biso   1.000  C
  C4       1.0000 0.55010  0.82530  0.41990  Biso   1.000  C
  H1       1.0000 0.45770  0.28140  0.59160  Biso   1.000  H
  H2       1.0000 0.54230  0.71860  0.40840  Biso   1.000  H
  H3       1.0000 0.53200  0.14630  0.52590  Biso   1.000  H
  H4       1.0000 0.46800  0.85370  0.47410  Biso   1.000  H
  C5       1.0000 0.47080  0.11080  0.71720  Biso   1.000  C
  C6       1.0000 0.52920  0.88920  0.28280  Biso   1.000  C
  H5       1.0000 0.46340  0.00390  0.70830  Biso   1.000  H
  H6       1.0000 0.53660  0.99610  0.29170  Biso   1.000  H
  H7       1.0000 0.39240  0.14170  0.77470  Biso   1.000  H
  H8       1.0000 0.60760  0.85830  0.22530  Biso   1.000  H
  C7       1.0000 0.62270  0.16280  0.78060  Biso   1.000  C
  C8       1.0000 0.37730  0.83720  0.21940  Biso   1.000  C
  H9       1.0000 0.69950  0.13730  0.71920  Biso   1.000  H
  H10      1.0000 0.30050  0.86270  0.28080  Biso   1.000  H
  H11      1.0000 0.62700  0.26940  0.79210  Biso   1.000  H
  H12      1.0000 0.37300  0.73060  0.20790  Biso   1.000  H
  C9       1.0000 0.65800  0.09860  0.91460  Biso   1.000  C
  C10      1.0000 0.34200  0.90140  0.08540  Biso   1.000  C
  H13      1.0000 0.66050  0.99230  0.90320  Biso   1.000  H
  H14      1.0000 0.33950  0.00770  0.09680  Biso   1.000  H
  H15      1.0000 0.57980  0.12000  0.97590  Biso   1.000  H
  H16      1.0000 0.42020  0.88000  0.02410  Biso   1.000  H
  C11      1.0000 0.80800  0.16260  0.97390  Biso   1.000  C
  C12      1.0000 0.19200  0.83740  0.02610  Biso   1.000  C
  H17      1.0000 0.88440  0.14660  0.90940  Biso   1.000  H
  H18      1.0000 0.11560  0.85340  0.09060  Biso   1.000  H
  H19      1.0000 0.80280  0.26830  0.98900  Biso   1.000  H
  H20      1.0000 0.19720  0.73170  0.01100  Biso   1.000  H
  C13      1.0000 0.85380  0.09630  0.10430  Biso   1.000  C
  C14      1.0000 0.14620  0.90370  0.89570  Biso   1.000  C
  H21      1.0000 0.78150  0.11880  0.17100  Biso   1.000  H
  H22      1.0000 0.21850  0.88120  0.82900  Biso   1.000  H
  H23      1.0000 0.85200  0.98980  0.09110  Biso   1.000  H
  H24      1.0000 0.14800  0.01020  0.90890  Biso   1.000  H
  C15      1.0000 0.00700  0.15200  0.15670  Biso   1.000  C
  C16      1.0000 0.99300  0.84800  0.84330  Biso   1.000  C
  O5       1.0000 0.04664  0.09195  0.26989  Biso   1.000  O
  O6       1.0000 0.95336  0.90805  0.73011  Biso   1.000  O
  O7       1.0000 0.08698  0.24152  0.10239  Biso   1.000  O
  O8       1.0000 0.91302  0.75848  0.89761  Biso   1.000  O
  N1       1.0000 0.95423  0.20394  0.56261  Biso   1.000  N
  N2       1.0000 0.04577  0.79606  0.43739  Biso   1.000  N
  C17      1.0000 0.01890  0.26440  0.67640  Biso   1.000  C
  C18      1.0000 0.98110  0.73560  0.32360  Biso   1.000  C
  H25      1.0000 0.08960  0.21250  0.72180  Biso   1.000  H
  H26      1.0000 0.91040  0.78750  0.27820  Biso   1.000  H
  C19      1.0000 0.98410  0.40160  0.72890  Biso   1.000  C
  C20      1.0000 0.01590  0.59840  0.27110  Biso   1.000  C
  C21      1.0000 0.87980  0.47880  0.65990  Biso   1.000  C
  C22      1.0000 0.12020  0.52120  0.34010  Biso   1.000  C
  H27      1.0000 0.85470  0.57120  0.69220  Biso   1.000  H
  H28      1.0000 0.14530  0.42880  0.30780  Biso   1.000  H
  C23      1.0000 0.81360  0.41700  0.54230  Biso   1.000  C
  C24      1.0000 0.18640  0.58300  0.45770  Biso   1.000  C
  H29      1.0000 0.74330  0.46730  0.49470  Biso   1.000  H
  H30      1.0000 0.25670  0.53270  0.50530  Biso   1.000  H
  C25      1.0000 0.85300  0.27960  0.49630  Biso   1.000  C
  C26      1.0000 0.14700  0.72040  0.50370  Biso   1.000  C
  H31      1.0000 0.80820  0.23830  0.41730  Biso   1.000  H
  H32      1.0000 0.19180  0.76170  0.58270  Biso   1.000  H
  N3       1.0000 0.04770  0.45880  0.84430  Biso   1.000  N
  N4       1.0000 0.95230  0.54120  0.15570  Biso   1.000  N
  H33      1.0000 0.02380  0.54350  0.87540  Biso   1.000  H
  H34      1.0000 0.97620  0.45650  0.12460  Biso   1.000  H
  H35      1.0000 0.11240  0.41080  0.88700  Biso   1.000  H
  H36      1.0000 0.88760  0.58920  0.11300  Biso   1.000  H
  O9       1.0000 0.54080  0.31620  0.27010  Biso   1.000  O
  O10      1.0000 0.45920  0.68380  0.72990  Biso   1.000  O
  H37      1.0000 0.46570  0.27440  0.29860  Biso   1.000  H
  H38      1.0000 0.53430  0.72560  0.70140  Biso   1.000  H
  C27      1.0000 0.50200  0.39850  0.16450  Biso   1.000  C
  C28      1.0000 0.49800  0.60150  0.83550  Biso   1.000  C
  H39      1.0000 0.44310  0.47720  0.19530  Biso   1.000  H
  H40      1.0000 0.55690  0.52280  0.80470  Biso   1.000  H
  H41      1.0000 0.44490  0.33700  0.09880  Biso   1.000  H
  H42      1.0000 0.55510  0.66300  0.90120  Biso   1.000  H
  H43      1.0000 0.59060  0.43910  0.12530  Biso   1.000  H
  H44      1.0000 0.40940  0.56090  0.87470  Biso   1.000  H
  H45      1.0000 0.13200  0.12500  0.29900  Biso   1.000  H
  H46      1.0000 0.86800  0.87500  0.70100  Biso   1.000  H
  H47      1.0000 0.65260  0.44440  0.42240  Biso   1.000  H
  H48      1.0000 0.34740  0.55560  0.57760  Biso   1.000  H
  H49      1.0000 0.68370  0.57030  0.52130  Biso   1.000  H
  H50      1.0000 0.31630  0.42970  0.47870  Biso   1.000  H
  H51      1.0000 0.02970  0.44060  0.80840  Biso   1.000  H
  H52      1.0000 0.97030  0.55940  0.19160  Biso   1.000  H
  N5       1.0000 0.70430  0.48490  0.48940  Biso   1.000  N
  N6       1.0000 0.29570  0.51510  0.51060  Biso   1.000  N
