data_image0
_cell_length_a       8.8026
_cell_length_b       9.3813
_cell_length_c       12.4325
_cell_angle_alpha    83.151
_cell_angle_beta     85.476
_cell_angle_gamma    87.767

_symmetry_space_group_name_H-M    "P 1"
_symmetry_int_tables_number       1

loop_
  _symmetry_equiv_pos_as_xyz
  'x, y, z'

loop_
  _atom_site_label
  _atom_site_occupancy
  _atom_site_fract_x
  _atom_site_fract_y
  _atom_site_fract_z
  _atom_site_thermal_displace_type
  _atom_site_B_iso_or_equiv
  _atom_site_type_symbol
  Cu1      1.0000 0.00000  0.50000  0.50000  Biso   1.000  Cu
  N1       1.0000 0.94599  0.30000  0.56012  Biso   1.000  N
  N2       1.0000 0.05401  0.70000  0.43988  Biso   1.000  N
  C1       1.0000 0.85370  0.22520  0.50792  Biso   1.000  C
  C2       1.0000 0.14630  0.77480  0.49208  Biso   1.000  C
  H1       1.0000 0.81760  0.26760  0.44300  Biso   1.000  H
  H2       1.0000 0.18240  0.73240  0.55700  Biso   1.000  H
  C3       1.0000 0.81040  0.08680  0.54760  Biso   1.000  C
  C4       1.0000 0.18960  0.91320  0.45240  Biso   1.000  C
  C5       1.0000 0.86570  0.02470  0.64460  Biso   1.000  C
  C6       1.0000 0.13430  0.97530  0.35540  Biso   1.000  C
  H3       1.0000 0.83980  0.93180  0.67300  Biso   1.000  H
  H4       1.0000 0.16020  0.06820  0.32700  Biso   1.000  H
  C7       1.0000 0.95930  0.10230  0.69850  Biso   1.000  C
  C8       1.0000 0.04070  0.89770  0.30150  Biso   1.000  C
  H5       1.0000 0.99600  0.06270  0.76390  Biso   1.000  H
  H6       1.0000 0.00400  0.93730  0.23610  Biso   1.000  H
  C9       1.0000 0.99800  0.23970  0.65413  Biso   1.000  C
  C10      1.0000 0.00200  0.76030  0.34587  Biso   1.000  C
  H7       1.0000 0.06160  0.29150  0.69030  Biso   1.000  H
  H8       1.0000 0.93840  0.70850  0.30970  Biso   1.000  H
  N3       1.0000 0.71340  0.01600  0.49580  Biso   1.000  N
  N4       1.0000 0.28660  0.98400  0.50420  Biso   1.000  N
  H9       1.0000 0.67710  0.05660  0.43710  Biso   1.000  H
  H10      1.0000 0.32290  0.94340  0.56290  Biso   1.000  H
  H11      1.0000 0.68770  0.93040  0.52140  Biso   1.000  H
  H12      1.0000 0.31230  0.06960  0.47860  Biso   1.000  H
  O1       1.0000 0.06993  0.41021  0.31387  Biso   1.000  O
  O2       1.0000 0.93007  0.58979  0.68613  Biso   1.000  O
  O3       1.0000 0.14306  0.27254  0.18438  Biso   1.000  O
  O4       1.0000 0.85694  0.72746  0.81562  Biso   1.000  O
  O5       1.0000 0.20907  0.46002  0.54245  Biso   1.000  O
  O6       1.0000 0.79093  0.53998  0.45755  Biso   1.000  O
  O7       1.0000 0.29649  0.31543  0.41970  Biso   1.000  O
  O8       1.0000 0.70351  0.68457  0.58030  Biso   1.000  O
  C11      1.0000 0.05040  0.35540  0.22300  Biso   1.000  C
  C12      1.0000 0.94960  0.64460  0.77700  Biso   1.000  C
  C13      1.0000 0.90430  0.40490  0.17357  Biso   1.000  C
  C14      1.0000 0.09570  0.59510  0.82643  Biso   1.000  C
  H13      1.0000 0.90210  0.50890  0.15950  Biso   1.000  H
  H14      1.0000 0.09790  0.49110  0.84050  Biso   1.000  H
  H15      1.0000 0.81920  0.37760  0.22530  Biso   1.000  H
  H16      1.0000 0.18080  0.62240  0.77470  Biso   1.000  H
  C15      1.0000 0.88450  0.34270  0.06826  Biso   1.000  C
  C16      1.0000 0.11550  0.65730  0.93174  Biso   1.000  C
  H17      1.0000 0.87700  0.23930  0.08380  Biso   1.000  H
  H18      1.0000 0.12300  0.76070  0.91620  Biso   1.000  H
  H19      1.0000 0.97450  0.36190  0.01920  Biso   1.000  H
  H20      1.0000 0.02550  0.63810  0.98080  Biso   1.000  H
  C17      1.0000 0.74450  0.40270  0.01154  Biso   1.000  C
  C18      1.0000 0.25550  0.59730  0.98846  Biso   1.000  C
  H21      1.0000 0.75090  0.50620  0.99640  Biso   1.000  H
  H22      1.0000 0.24910  0.49380  0.00360  Biso   1.000  H
  H23      1.0000 0.65390  0.38190  0.05960  Biso   1.000  H
  H24      1.0000 0.34610  0.61810  0.94040  Biso   1.000  H
  C19      1.0000 0.73030  0.33920  0.90567  Biso   1.000  C
  C20      1.0000 0.26970  0.66080  0.09433  Biso   1.000  C
  H25      1.0000 0.82240  0.35820  0.85870  Biso   1.000  H
  H26      1.0000 0.17760  0.64180  0.14130  Biso   1.000  H
  H27      1.0000 0.72270  0.23590  0.92150  Biso   1.000  H
  H28      1.0000 0.27730  0.76410  0.07850  Biso   1.000  H
  C21      1.0000 0.59340  0.39830  0.84497  Biso   1.000  C
  C22      1.0000 0.40660  0.60170  0.15503  Biso   1.000  C
  H29      1.0000 0.50090  0.37780  0.89110  Biso   1.000  H
  H30      1.0000 0.49910  0.62220  0.10890  Biso   1.000  H
  H31      1.0000 0.60000  0.50180  0.82970  Biso   1.000  H
  H32      1.0000 0.40000  0.49820  0.17030  Biso   1.000  H
  C23      1.0000 0.58380  0.33470  0.73872  Biso   1.000  C
  C24      1.0000 0.41620  0.66530  0.26128  Biso   1.000  C
  H33      1.0000 0.58410  0.23080  0.75360  Biso   1.000  H
  H34      1.0000 0.41590  0.76920  0.24640  Biso   1.000  H
  H35      1.0000 0.67360  0.36040  0.69100  Biso   1.000  H
  H36      1.0000 0.32640  0.63960  0.30900  Biso   1.000  H
  C25      1.0000 0.44170  0.38580  0.68039  Biso   1.000  C
  C26      1.0000 0.55830  0.61420  0.31961  Biso   1.000  C
  H37      1.0000 0.35150  0.35570  0.72600  Biso   1.000  H
  H38      1.0000 0.64850  0.64430  0.27400  Biso   1.000  H
  H39      1.0000 0.43840  0.49000  0.66810  Biso   1.000  H
  H40      1.0000 0.56160  0.51000  0.33190  Biso   1.000  H
  C27      1.0000 0.44070  0.32560  0.57176  Biso   1.000  C
  C28      1.0000 0.55930  0.67440  0.42824  Biso   1.000  C
  H41      1.0000 0.53270  0.35460  0.52780  Biso   1.000  H
  H42      1.0000 0.46730  0.64540  0.47220  Biso   1.000  H
  H43      1.0000 0.44470  0.22150  0.58530  Biso   1.000  H
  H44      1.0000 0.55530  0.77850  0.41470  Biso   1.000  H
  C29      1.0000 0.30520  0.37060  0.50651  Biso   1.000  C
  C30      1.0000 0.69480  0.62940  0.49349  Biso   1.000  C
  O9       1.0000 0.56940  0.20530  0.32130  Biso   1.000  O
  O10      1.0000 0.43060  0.79470  0.67870  Biso   1.000  O
  H45      1.0000 0.48940  0.23020  0.35310  Biso   1.000  H
  H46      1.0000 0.51060  0.76980  0.64690  Biso   1.000  H
  C31      1.0000 0.53850  0.12940  0.24140  Biso   1.000  C
  C32      1.0000 0.46150  0.87060  0.75860  Biso   1.000  C
  H47      1.0000 0.48230  0.18910  0.18920  Biso   1.000  H
  H48      1.0000 0.51770  0.81090  0.81080  Biso   1.000  H
  H49      1.0000 0.47880  0.04850  0.27120  Biso   1.000  H
  H50      1.0000 0.52120  0.95150  0.72880  Biso   1.000  H
  H51      1.0000 0.63210  0.09610  0.20640  Biso   1.000  H
  H52      1.0000 0.36790  0.90390  0.79360  Biso   1.000  H
  C33      1.0000 0.30250  0.10230  0.97860  Biso   1.000  C
  C34      1.0000 0.69750  0.89770  0.02140  Biso   1.000  C
  H53      1.0000 0.34140  0.08120  0.90780  Biso   1.000  H
  H54      1.0000 0.65860  0.91880  0.09220  Biso   1.000  H
  H55      1.0000 0.30970  0.01740  0.02950  Biso   1.000  H
  H56      1.0000 0.69030  0.98260  0.97050  Biso   1.000  H
  H57      1.0000 0.36130  0.17630  0.00080  Biso   1.000  H
  H58      1.0000 0.63870  0.82370  0.99920  Biso   1.000  H
  O11      1.0000 0.18340  0.13890  0.97610  Biso   1.000  O
  O12      1.0000 0.81660  0.86110  0.02390  Biso   1.000  O
  H59      1.0000 0.17070  0.21340  0.00460  Biso   1.000  H
  H60      1.0000 0.82930  0.78660  0.99540  Biso   1.000  H
  H61      1.0000 0.14800  0.37600  0.33400  Biso   1.000  H
  H62      1.0000 0.85200  0.62400  0.66600  Biso   1.000  H
  H63      1.0000 0.97890  0.95420  0.82020  Biso   1.000  H
  H64      1.0000 0.02110  0.04580  0.17980  Biso   1.000  H
  H65      1.0000 0.06550  0.08450  0.83070  Biso   1.000  H
  H66      1.0000 0.93450  0.91550  0.16930  Biso   1.000  H
  H67      1.0000 0.74630  0.03700  0.51030  Biso   1.000  H
  H68      1.0000 0.25370  0.96300  0.48970  Biso   1.000  H
  N5       1.0000 0.00710  0.03920  0.79500  Biso   1.000  N
  N6       1.0000 0.99290  0.96080  0.20500  Biso   1.000  N
