data_image0
_cell_length_a       9.2417
_cell_length_b       12.5185
_cell_length_c       17.05
_cell_angle_alpha    90
_cell_angle_beta     103.144
_cell_angle_gamma    90

_symmetry_space_group_name_H-M    "P 1"
_symmetry_int_tables_number       1

loop_
  _symmetry_equiv_pos_as_xyz
  'x, y, z'

loop_
  _atom_site_label
  _atom_site_occupancy
  _atom_site_fract_x
  _atom_site_fract_y
  _atom_site_fract_z
  _atom_site_thermal_displace_type
  _atom_site_B_iso_or_equiv
  _atom_site_type_symbol
  Cu1      1.0000 0.26268  0.31458  0.04220  Biso   1.000  Cu
  Cu2      1.0000 0.73732  0.81458  0.45780  Biso   1.000  Cu
  Cu3      1.0000 0.73732  0.68542  0.95780  Biso   1.000  Cu
  Cu4      1.0000 0.26268  0.18542  0.54220  Biso   1.000  Cu
  S1       1.0000 0.59763  0.28909  0.87641  Biso   1.000  S
  S2       1.0000 0.40237  0.78909  0.62359  Biso   1.000  S
  S3       1.0000 0.40237  0.71091  0.12359  Biso   1.000  S
  S4       1.0000 0.59763  0.21091  0.37641  Biso   1.000  S
  S5       1.0000 0.07625  0.23215  0.77915  Biso   1.000  S
  S6       1.0000 0.92375  0.73215  0.72085  Biso   1.000  S
  S7       1.0000 0.92375  0.76785  0.22085  Biso   1.000  S
  S8       1.0000 0.07625  0.26785  0.27915  Biso   1.000  S
  N1       1.0000 0.08370  0.38576  0.07549  Biso   1.000  N
  N2       1.0000 0.91630  0.88576  0.42451  Biso   1.000  N
  N3       1.0000 0.91630  0.61424  0.92451  Biso   1.000  N
  N4       1.0000 0.08370  0.11424  0.57549  Biso   1.000  N
  N5       1.0000 0.36640  0.40135  0.13657  Biso   1.000  N
  N6       1.0000 0.63360  0.90135  0.36343  Biso   1.000  N
  N7       1.0000 0.63360  0.59865  0.86343  Biso   1.000  N
  N8       1.0000 0.36640  0.09865  0.63657  Biso   1.000  N
  N9       1.0000 0.51220  0.41952  0.17502  Biso   1.000  N
  N10      1.0000 0.48780  0.91952  0.32498  Biso   1.000  N
  N11      1.0000 0.48780  0.58048  0.82498  Biso   1.000  N
  N12      1.0000 0.51220  0.08048  0.67502  Biso   1.000  N
  N13      1.0000 0.36190  0.49506  0.24348  Biso   1.000  N
  N14      1.0000 0.63810  0.99506  0.25652  Biso   1.000  N
  N15      1.0000 0.63810  0.50494  0.75652  Biso   1.000  N
  N16      1.0000 0.36190  0.00494  0.74348  Biso   1.000  N
  N17      1.0000 0.74900  0.66069  0.38568  Biso   1.000  N
  N18      1.0000 0.25100  0.16069  0.11432  Biso   1.000  N
  N19      1.0000 0.25100  0.33931  0.61432  Biso   1.000  N
  N20      1.0000 0.74900  0.83931  0.88568  Biso   1.000  N
  N21      1.0000 0.23230  0.67450  0.38580  Biso   1.000  N
  N22      1.0000 0.76770  0.17450  0.11420  Biso   1.000  N
  N23      1.0000 0.76770  0.32550  0.61420  Biso   1.000  N
  N24      1.0000 0.23230  0.82550  0.88580  Biso   1.000  N
  N25      1.0000 0.43430  0.30430  0.99435  Biso   1.000  N
  N26      1.0000 0.56570  0.80430  0.50565  Biso   1.000  N
  N27      1.0000 0.56570  0.69570  0.00565  Biso   1.000  N
  N28      1.0000 0.43430  0.19570  0.49435  Biso   1.000  N
  N29      1.0000 0.13410  0.25533  0.94485  Biso   1.000  N
  N30      1.0000 0.86590  0.75533  0.55515  Biso   1.000  N
  N31      1.0000 0.86590  0.74467  0.05515  Biso   1.000  N
  N32      1.0000 0.13410  0.24467  0.44485  Biso   1.000  N
  C1       1.0000 0.94120  0.37940  0.03594  Biso   1.000  C
  C2       1.0000 0.05880  0.87940  0.46406  Biso   1.000  C
  C3       1.0000 0.05880  0.62060  0.96406  Biso   1.000  C
  C4       1.0000 0.94120  0.12060  0.53594  Biso   1.000  C
  H1       1.0000 0.91680  0.33810  0.98950  Biso   1.000  H
  H2       1.0000 0.08320  0.83810  0.51050  Biso   1.000  H
  H3       1.0000 0.08320  0.66190  0.01050  Biso   1.000  H
  H4       1.0000 0.91680  0.16190  0.48950  Biso   1.000  H
  C5       1.0000 0.82910  0.43210  0.06170  Biso   1.000  C
  C6       1.0000 0.17090  0.93210  0.43830  Biso   1.000  C
  C7       1.0000 0.17090  0.56790  0.93830  Biso   1.000  C
  C8       1.0000 0.82910  0.06790  0.56170  Biso   1.000  C
  H5       1.0000 0.73110  0.42640  0.03280  Biso   1.000  H
  H6       1.0000 0.26890  0.92640  0.46720  Biso   1.000  H
  H7       1.0000 0.26890  0.57360  0.96720  Biso   1.000  H
  H8       1.0000 0.73110  0.07360  0.53280  Biso   1.000  H
  C9       1.0000 0.86390  0.49290  0.13030  Biso   1.000  C
  C10      1.0000 0.13610  0.99290  0.36970  Biso   1.000  C
  C11      1.0000 0.13610  0.50710  0.86970  Biso   1.000  C
  C12      1.0000 0.86390  0.00710  0.63030  Biso   1.000  C
  H9       1.0000 0.78980  0.52910  0.14840  Biso   1.000  H
  H10      1.0000 0.21020  0.02910  0.35160  Biso   1.000  H
  H11      1.0000 0.21020  0.47090  0.85160  Biso   1.000  H
  H12      1.0000 0.78980  0.97090  0.64840  Biso   1.000  H
  C13      1.0000 0.01040  0.49990  0.17226  Biso   1.000  C
  C14      1.0000 0.98960  0.99990  0.32774  Biso   1.000  C
  C15      1.0000 0.98960  0.50010  0.82774  Biso   1.000  C
  C16      1.0000 0.01040  0.00010  0.67226  Biso   1.000  C
  H13      1.0000 0.03630  0.54050  0.21910  Biso   1.000  H
  H14      1.0000 0.96370  0.04050  0.28090  Biso   1.000  H
  H15      1.0000 0.96370  0.45950  0.78090  Biso   1.000  H
  H16      1.0000 0.03630  0.95950  0.71910  Biso   1.000  H
  C17      1.0000 0.11700  0.44583  0.14357  Biso   1.000  C
  C18      1.0000 0.88300  0.94583  0.35643  Biso   1.000  C
  C19      1.0000 0.88300  0.55417  0.85643  Biso   1.000  C
  C20      1.0000 0.11700  0.05417  0.64357  Biso   1.000  C
  C21      1.0000 0.27800  0.44744  0.17684  Biso   1.000  C
  C22      1.0000 0.72200  0.94744  0.32316  Biso   1.000  C
  C23      1.0000 0.72200  0.55256  0.82316  Biso   1.000  C
  C24      1.0000 0.27800  0.05256  0.67684  Biso   1.000  C
  C25      1.0000 0.50700  0.47640  0.23905  Biso   1.000  C
  C26      1.0000 0.49300  0.97640  0.26095  Biso   1.000  C
  C27      1.0000 0.49300  0.52360  0.76095  Biso   1.000  C
  C28      1.0000 0.50700  0.02360  0.73905  Biso   1.000  C
  C29      1.0000 0.63760  0.51940  0.29696  Biso   1.000  C
  C30      1.0000 0.36240  0.01940  0.20304  Biso   1.000  C
  C31      1.0000 0.36240  0.48060  0.70304  Biso   1.000  C
  C32      1.0000 0.63760  0.98060  0.79696  Biso   1.000  C
  C33      1.0000 0.63550  0.62080  0.33087  Biso   1.000  C
  C34      1.0000 0.36450  0.12080  0.16913  Biso   1.000  C
  C35      1.0000 0.36450  0.37920  0.66913  Biso   1.000  C
  C36      1.0000 0.63550  0.87920  0.83087  Biso   1.000  C
  H17      1.0000 0.55070  0.66250  0.31440  Biso   1.000  H
  H18      1.0000 0.44930  0.16250  0.18560  Biso   1.000  H
  H19      1.0000 0.44930  0.33750  0.68560  Biso   1.000  H
  H20      1.0000 0.55070  0.83750  0.81440  Biso   1.000  H
  C37      1.0000 0.87200  0.60120  0.40547  Biso   1.000  C
  C38      1.0000 0.12800  0.10120  0.09453  Biso   1.000  C
  C39      1.0000 0.12800  0.39880  0.59453  Biso   1.000  C
  C40      1.0000 0.87200  0.89880  0.90547  Biso   1.000  C
  H21      1.0000 0.95220  0.62800  0.44360  Biso   1.000  H
  H22      1.0000 0.04780  0.12800  0.05640  Biso   1.000  H
  H23      1.0000 0.04780  0.37200  0.55640  Biso   1.000  H
  H24      1.0000 0.95220  0.87200  0.94360  Biso   1.000  H
  C41      1.0000 0.88640  0.50240  0.37245  Biso   1.000  C
  C42      1.0000 0.11360  0.00240  0.12755  Biso   1.000  C
  C43      1.0000 0.11360  0.49760  0.62755  Biso   1.000  C
  C44      1.0000 0.88640  0.99760  0.87245  Biso   1.000  C
  H25      1.0000 0.97540  0.46490  0.38670  Biso   1.000  H
  H26      1.0000 0.02460  0.96490  0.11330  Biso   1.000  H
  H27      1.0000 0.02460  0.53510  0.61330  Biso   1.000  H
  H28      1.0000 0.97540  0.03510  0.88670  Biso   1.000  H
  C45      1.0000 0.76690  0.46000  0.31795  Biso   1.000  C
  C46      1.0000 0.23310  0.96000  0.18205  Biso   1.000  C
  C47      1.0000 0.23310  0.54000  0.68205  Biso   1.000  C
  C48      1.0000 0.76690  0.04000  0.81795  Biso   1.000  C
  H29      1.0000 0.77310  0.39280  0.29570  Biso   1.000  H
  H30      1.0000 0.22690  0.89280  0.20430  Biso   1.000  H
  H31      1.0000 0.22690  0.60720  0.70430  Biso   1.000  H
  H32      1.0000 0.77310  0.10720  0.79570  Biso   1.000  H
  C49      1.0000 0.31860  0.53470  0.31420  Biso   1.000  C
  C50      1.0000 0.68140  0.03470  0.18580  Biso   1.000  C
  C51      1.0000 0.68140  0.46530  0.68580  Biso   1.000  C
  C52      1.0000 0.31860  0.96530  0.81420  Biso   1.000  C
  C53      1.0000 0.34220  0.47110  0.38173  Biso   1.000  C
  C54      1.0000 0.65780  0.97110  0.11827  Biso   1.000  C
  C55      1.0000 0.65780  0.52890  0.61827  Biso   1.000  C
  C56      1.0000 0.34220  0.02890  0.88173  Biso   1.000  C
  H33      1.0000 0.37860  0.40200  0.38020  Biso   1.000  H
  H34      1.0000 0.62140  0.90200  0.11980  Biso   1.000  H
  H35      1.0000 0.62140  0.59800  0.61980  Biso   1.000  H
  H36      1.0000 0.37860  0.09800  0.88020  Biso   1.000  H
  C57      1.0000 0.31210  0.50970  0.45044  Biso   1.000  C
  C58      1.0000 0.68790  0.00970  0.04956  Biso   1.000  C
  C59      1.0000 0.68790  0.49030  0.54956  Biso   1.000  C
  C60      1.0000 0.31210  0.99030  0.95044  Biso   1.000  C
  H37      1.0000 0.32690  0.46770  0.49650  Biso   1.000  H
  H38      1.0000 0.67310  0.96770  0.00350  Biso   1.000  H
  H39      1.0000 0.67310  0.53230  0.50350  Biso   1.000  H
  H40      1.0000 0.32690  0.03230  0.99650  Biso   1.000  H
  C61      1.0000 0.26100  0.60880  0.45077  Biso   1.000  C
  C62      1.0000 0.73900  0.10880  0.04923  Biso   1.000  C
  C63      1.0000 0.73900  0.39120  0.54923  Biso   1.000  C
  C64      1.0000 0.26100  0.89120  0.95077  Biso   1.000  C
  H41      1.0000 0.24360  0.63500  0.49890  Biso   1.000  H
  H42      1.0000 0.75640  0.13500  0.00110  Biso   1.000  H
  H43      1.0000 0.75640  0.36500  0.50110  Biso   1.000  H
  H44      1.0000 0.24360  0.86500  0.99890  Biso   1.000  H
  C65      1.0000 0.26380  0.63640  0.31675  Biso   1.000  C
  C66      1.0000 0.73620  0.13640  0.18325  Biso   1.000  C
  C67      1.0000 0.73620  0.36360  0.68325  Biso   1.000  C
  C68      1.0000 0.26380  0.86360  0.81675  Biso   1.000  C
  H45      1.0000 0.24820  0.67940  0.27110  Biso   1.000  H
  H46      1.0000 0.75180  0.17940  0.22890  Biso   1.000  H
  H47      1.0000 0.75180  0.32060  0.72890  Biso   1.000  H
  H48      1.0000 0.24820  0.82060  0.77110  Biso   1.000  H
  C69      1.0000 0.50030  0.29890  0.94457  Biso   1.000  C
  C70      1.0000 0.49970  0.79890  0.55543  Biso   1.000  C
  C71      1.0000 0.49970  0.70110  0.05543  Biso   1.000  C
  C72      1.0000 0.50030  0.20110  0.44457  Biso   1.000  C
  C73      1.0000 0.11100  0.24600  0.87573  Biso   1.000  C
  C74      1.0000 0.88900  0.74600  0.62427  Biso   1.000  C
  C75      1.0000 0.88900  0.75400  0.12427  Biso   1.000  C
  C76      1.0000 0.11100  0.25400  0.37573  Biso   1.000  C
