data_image0
_cell_length_a       6.4536
_cell_length_b       15.1013
_cell_length_c       11.9578
_cell_angle_alpha    90
_cell_angle_beta     90
_cell_angle_gamma    90

_symmetry_space_group_name_H-M    "P 1"
_symmetry_int_tables_number       1

loop_
  _symmetry_equiv_pos_as_xyz
  'x, y, z'

loop_
  _atom_site_label
  _atom_site_occupancy
  _atom_site_fract_x
  _atom_site_fract_y
  _atom_site_fract_z
  _atom_site_thermal_displace_type
  _atom_site_B_iso_or_equiv
  _atom_site_type_symbol
  Cu1      1.0000 0.00000  0.04748  0.75000  Biso   1.000  Cu
  Cu2      1.0000 0.50000  0.45252  0.25000  Biso   1.000  Cu
  Cu3      1.0000 0.00000  0.95252  0.25000  Biso   1.000  Cu
  Cu4      1.0000 0.50000  0.54748  0.75000  Biso   1.000  Cu
  N1       1.0000 0.15830  0.14797  0.81290  Biso   1.000  N
  N2       1.0000 0.34170  0.35203  0.31290  Biso   1.000  N
  N3       1.0000 0.84170  0.14797  0.68710  Biso   1.000  N
  N4       1.0000 0.65830  0.35203  0.18710  Biso   1.000  N
  N5       1.0000 0.84170  0.85203  0.18710  Biso   1.000  N
  N6       1.0000 0.65830  0.64797  0.68710  Biso   1.000  N
  N7       1.0000 0.15830  0.85203  0.31290  Biso   1.000  N
  N8       1.0000 0.34170  0.64797  0.81290  Biso   1.000  N
  O1       1.0000 0.31500  0.45449  0.80942  Biso   1.000  O
  O2       1.0000 0.18500  0.04551  0.30942  Biso   1.000  O
  O3       1.0000 0.68500  0.45449  0.69058  Biso   1.000  O
  O4       1.0000 0.81500  0.04551  0.19058  Biso   1.000  O
  O5       1.0000 0.68500  0.54551  0.19058  Biso   1.000  O
  O6       1.0000 0.81500  0.95449  0.69058  Biso   1.000  O
  O7       1.0000 0.31500  0.54551  0.30942  Biso   1.000  O
  O8       1.0000 0.18500  0.95449  0.80942  Biso   1.000  O
  O9       1.0000 0.15950  0.39869  0.65722  Biso   1.000  O
  O10      1.0000 0.34050  0.10131  0.15722  Biso   1.000  O
  O11      1.0000 0.84050  0.39869  0.84278  Biso   1.000  O
  O12      1.0000 0.65950  0.10131  0.34278  Biso   1.000  O
  O13      1.0000 0.84050  0.60131  0.34278  Biso   1.000  O
  O14      1.0000 0.65950  0.89869  0.84278  Biso   1.000  O
  O15      1.0000 0.15950  0.60131  0.15722  Biso   1.000  O
  O16      1.0000 0.34050  0.89869  0.65722  Biso   1.000  O
  O17      1.0000 0.19460  0.04860  0.56440  Biso   1.000  O
  O18      1.0000 0.30540  0.45140  0.06440  Biso   1.000  O
  O19      1.0000 0.80540  0.04860  0.93560  Biso   1.000  O
  O20      1.0000 0.69460  0.45140  0.43560  Biso   1.000  O
  O21      1.0000 0.80540  0.95140  0.43560  Biso   1.000  O
  O22      1.0000 0.69460  0.54860  0.93560  Biso   1.000  O
  O23      1.0000 0.19460  0.95140  0.06440  Biso   1.000  O
  O24      1.0000 0.30540  0.54860  0.56440  Biso   1.000  O
  C1       1.0000 0.10040  0.23096  0.78210  Biso   1.000  C
  C2       1.0000 0.39960  0.26904  0.28210  Biso   1.000  C
  C3       1.0000 0.89960  0.23096  0.71790  Biso   1.000  C
  C4       1.0000 0.60040  0.26904  0.21790  Biso   1.000  C
  C5       1.0000 0.89960  0.76904  0.21790  Biso   1.000  C
  C6       1.0000 0.60040  0.73096  0.71790  Biso   1.000  C
  C7       1.0000 0.10040  0.76904  0.28210  Biso   1.000  C
  C8       1.0000 0.39960  0.73096  0.78210  Biso   1.000  C
  C9       1.0000 0.22900  0.30290  0.80960  Biso   1.000  C
  C10      1.0000 0.27100  0.19710  0.30960  Biso   1.000  C
  C11      1.0000 0.77100  0.30290  0.69040  Biso   1.000  C
  C12      1.0000 0.72900  0.19710  0.19040  Biso   1.000  C
  C13      1.0000 0.77100  0.69710  0.19040  Biso   1.000  C
  C14      1.0000 0.72900  0.80290  0.69040  Biso   1.000  C
  C15      1.0000 0.22900  0.69710  0.30960  Biso   1.000  C
  C16      1.0000 0.27100  0.80290  0.80960  Biso   1.000  C
  C17      1.0000 0.39490  0.28734  0.88100  Biso   1.000  C
  C18      1.0000 0.10510  0.21266  0.38100  Biso   1.000  C
  C19      1.0000 0.60510  0.28734  0.61900  Biso   1.000  C
  C20      1.0000 0.89490  0.21266  0.11900  Biso   1.000  C
  C21      1.0000 0.60510  0.71266  0.11900  Biso   1.000  C
  C22      1.0000 0.89490  0.78734  0.61900  Biso   1.000  C
  C23      1.0000 0.39490  0.71266  0.38100  Biso   1.000  C
  C24      1.0000 0.10510  0.78734  0.88100  Biso   1.000  C
  H1       1.0000 0.47430  0.33480  0.90570  Biso   1.000  H
  H2       1.0000 0.02570  0.16520  0.40570  Biso   1.000  H
  H3       1.0000 0.52570  0.33480  0.59430  Biso   1.000  H
  H4       1.0000 0.97430  0.16520  0.09430  Biso   1.000  H
  H5       1.0000 0.52570  0.66520  0.09430  Biso   1.000  H
  H6       1.0000 0.97430  0.83480  0.59430  Biso   1.000  H
  H7       1.0000 0.47430  0.66520  0.40570  Biso   1.000  H
  H8       1.0000 0.02570  0.83480  0.90570  Biso   1.000  H
  C25      1.0000 0.44410  0.20314  0.91580  Biso   1.000  C
  C26      1.0000 0.05590  0.29686  0.41580  Biso   1.000  C
  C27      1.0000 0.55590  0.20314  0.58420  Biso   1.000  C
  C28      1.0000 0.94410  0.29686  0.08420  Biso   1.000  C
  C29      1.0000 0.55590  0.79686  0.08420  Biso   1.000  C
  C30      1.0000 0.94410  0.70314  0.58420  Biso   1.000  C
  C31      1.0000 0.44410  0.79686  0.41580  Biso   1.000  C
  C32      1.0000 0.05590  0.70314  0.91580  Biso   1.000  C
  H9       1.0000 0.55350  0.19300  0.96480  Biso   1.000  H
  H10      1.0000 0.94650  0.30700  0.46480  Biso   1.000  H
  H11      1.0000 0.44650  0.19300  0.53520  Biso   1.000  H
  H12      1.0000 0.05350  0.30700  0.03520  Biso   1.000  H
  H13      1.0000 0.44650  0.80700  0.03520  Biso   1.000  H
  H14      1.0000 0.05350  0.69300  0.53520  Biso   1.000  H
  H15      1.0000 0.55350  0.80700  0.46480  Biso   1.000  H
  H16      1.0000 0.94650  0.69300  0.96480  Biso   1.000  H
  C33      1.0000 0.32630  0.13460  0.87570  Biso   1.000  C
  C34      1.0000 0.17370  0.36540  0.37570  Biso   1.000  C
  C35      1.0000 0.67370  0.13460  0.62430  Biso   1.000  C
  C36      1.0000 0.82630  0.36540  0.12430  Biso   1.000  C
  C37      1.0000 0.67370  0.86540  0.12430  Biso   1.000  C
  C38      1.0000 0.82630  0.63460  0.62430  Biso   1.000  C
  C39      1.0000 0.32630  0.86540  0.37570  Biso   1.000  C
  C40      1.0000 0.17370  0.63460  0.87570  Biso   1.000  C
  H17      1.0000 0.36470  0.07680  0.89290  Biso   1.000  H
  H18      1.0000 0.13530  0.42320  0.39290  Biso   1.000  H
  H19      1.0000 0.63530  0.07680  0.60710  Biso   1.000  H
  H20      1.0000 0.86470  0.42320  0.10710  Biso   1.000  H
  H21      1.0000 0.63530  0.92320  0.10710  Biso   1.000  H
  H22      1.0000 0.86470  0.57680  0.60710  Biso   1.000  H
  H23      1.0000 0.36470  0.92320  0.39290  Biso   1.000  H
  H24      1.0000 0.13530  0.57680  0.89290  Biso   1.000  H
  C41      1.0000 0.22620  0.39289  0.75320  Biso   1.000  C
  C42      1.0000 0.27380  0.10711  0.25320  Biso   1.000  C
  C43      1.0000 0.77380  0.39289  0.74680  Biso   1.000  C
  C44      1.0000 0.72620  0.10711  0.24680  Biso   1.000  C
  C45      1.0000 0.77380  0.60711  0.24680  Biso   1.000  C
  C46      1.0000 0.72620  0.89289  0.74680  Biso   1.000  C
  C47      1.0000 0.22620  0.60711  0.25320  Biso   1.000  C
  C48      1.0000 0.27380  0.89289  0.75320  Biso   1.000  C
  H25      1.0000 0.25200  0.00090  0.58600  Biso   1.000  H
  H26      1.0000 0.24800  0.49910  0.08600  Biso   1.000  H
  H27      1.0000 0.74800  0.00090  0.91400  Biso   1.000  H
  H28      1.0000 0.75200  0.49910  0.41400  Biso   1.000  H
  H29      1.0000 0.74800  0.99910  0.41400  Biso   1.000  H
  H30      1.0000 0.75200  0.50090  0.91400  Biso   1.000  H
  H31      1.0000 0.25200  0.99910  0.08600  Biso   1.000  H
  H32      1.0000 0.24800  0.50090  0.58600  Biso   1.000  H
  H33      1.0000 0.17000  0.04100  0.49620  Biso   1.000  H
  H34      1.0000 0.33000  0.45900  0.99620  Biso   1.000  H
  H35      1.0000 0.83000  0.04100  0.00380  Biso   1.000  H
  H36      1.0000 0.67000  0.45900  0.50380  Biso   1.000  H
  H37      1.0000 0.83000  0.95900  0.50380  Biso   1.000  H
  H38      1.0000 0.67000  0.54100  0.00380  Biso   1.000  H
  H39      1.0000 0.17000  0.95900  0.99620  Biso   1.000  H
  H40      1.0000 0.33000  0.54100  0.49620  Biso   1.000  H
