data_image0
_cell_length_a       10.493
_cell_length_b       12.575
_cell_length_c       13.327
_cell_angle_alpha    90
_cell_angle_beta     106.15
_cell_angle_gamma    90

_symmetry_space_group_name_H-M    "P 1"
_symmetry_int_tables_number       1

loop_
  _symmetry_equiv_pos_as_xyz
  'x, y, z'

loop_
  _atom_site_label
  _atom_site_occupancy
  _atom_site_fract_x
  _atom_site_fract_y
  _atom_site_fract_z
  _atom_site_thermal_displace_type
  _atom_site_B_iso_or_equiv
  _atom_site_type_symbol
  C1       1.0000 0.16520  0.99200  0.37920  Biso   1.000  C
  C2       1.0000 0.33480  0.49200  0.62080  Biso   1.000  C
  C3       1.0000 0.83480  0.00800  0.62080  Biso   1.000  C
  C4       1.0000 0.66520  0.50800  0.37920  Biso   1.000  C
  C5       1.0000 0.01900  0.00050  0.17310  Biso   1.000  C
  C6       1.0000 0.48100  0.50050  0.82690  Biso   1.000  C
  C7       1.0000 0.98100  0.99950  0.82690  Biso   1.000  C
  C8       1.0000 0.51900  0.49950  0.17310  Biso   1.000  C
  H1       1.0000 0.92820  0.00070  0.12950  Biso   1.000  H
  H2       1.0000 0.57180  0.50070  0.87050  Biso   1.000  H
  H3       1.0000 0.07180  0.99930  0.87050  Biso   1.000  H
  H4       1.0000 0.42820  0.49930  0.12950  Biso   1.000  H
  H5       1.0000 0.04760  0.07400  0.18480  Biso   1.000  H
  H6       1.0000 0.45240  0.57400  0.81520  Biso   1.000  H
  H7       1.0000 0.95240  0.92600  0.81520  Biso   1.000  H
  H8       1.0000 0.54760  0.42600  0.18480  Biso   1.000  H
  C9       1.0000 0.40470  0.18390  0.41520  Biso   1.000  C
  C10      1.0000 0.09530  0.68390  0.58480  Biso   1.000  C
  C11      1.0000 0.59530  0.81610  0.58480  Biso   1.000  C
  C12      1.0000 0.90470  0.31610  0.41520  Biso   1.000  C
  C13      1.0000 0.38390  0.23940  0.31460  Biso   1.000  C
  C14      1.0000 0.11610  0.73940  0.68540  Biso   1.000  C
  C15      1.0000 0.61610  0.76060  0.68540  Biso   1.000  C
  C16      1.0000 0.88390  0.26060  0.31460  Biso   1.000  C
  H9       1.0000 0.30680  0.21110  0.26510  Biso   1.000  H
  H10      1.0000 0.19320  0.71110  0.73490  Biso   1.000  H
  H11      1.0000 0.69320  0.78890  0.73490  Biso   1.000  H
  H12      1.0000 0.80680  0.28890  0.26510  Biso   1.000  H
  H13      1.0000 0.46010  0.22930  0.28910  Biso   1.000  H
  H14      1.0000 0.03990  0.72930  0.71090  Biso   1.000  H
  H15      1.0000 0.53990  0.77070  0.71090  Biso   1.000  H
  H16      1.0000 0.96010  0.27070  0.28910  Biso   1.000  H
  H17      1.0000 0.37150  0.31400  0.32420  Biso   1.000  H
  H18      1.0000 0.12850  0.81400  0.67580  Biso   1.000  H
  H19      1.0000 0.62850  0.68600  0.67580  Biso   1.000  H
  H20      1.0000 0.87150  0.18600  0.32420  Biso   1.000  H
  C17      1.0000 0.51110  0.21280  0.51050  Biso   1.000  C
  C18      1.0000 0.98890  0.71280  0.48950  Biso   1.000  C
  C19      1.0000 0.48890  0.78720  0.48950  Biso   1.000  C
  C20      1.0000 0.01110  0.28720  0.51050  Biso   1.000  C
  C21      1.0000 0.61090  0.28850  0.50970  Biso   1.000  C
  C22      1.0000 0.88910  0.78850  0.49030  Biso   1.000  C
  C23      1.0000 0.38910  0.71150  0.49030  Biso   1.000  C
  C24      1.0000 0.11090  0.21150  0.50970  Biso   1.000  C
  H21      1.0000 0.60910  0.32380  0.44800  Biso   1.000  H
  H22      1.0000 0.89090  0.82380  0.55200  Biso   1.000  H
  H23      1.0000 0.39090  0.67620  0.55200  Biso   1.000  H
  H24      1.0000 0.10910  0.17620  0.44800  Biso   1.000  H
  C25      1.0000 0.70960  0.25490  0.67940  Biso   1.000  C
  C26      1.0000 0.79040  0.75490  0.32060  Biso   1.000  C
  C27      1.0000 0.29040  0.74510  0.32060  Biso   1.000  C
  C28      1.0000 0.20960  0.24510  0.67940  Biso   1.000  C
  H25      1.0000 0.77830  0.26680  0.73970  Biso   1.000  H
  H26      1.0000 0.72170  0.76680  0.26030  Biso   1.000  H
  H27      1.0000 0.22170  0.73320  0.26030  Biso   1.000  H
  H28      1.0000 0.27830  0.23320  0.73970  Biso   1.000  H
  C29      1.0000 0.61190  0.17740  0.68270  Biso   1.000  C
  C30      1.0000 0.88810  0.67740  0.31730  Biso   1.000  C
  C31      1.0000 0.38810  0.82260  0.31730  Biso   1.000  C
  C32      1.0000 0.11190  0.32260  0.68270  Biso   1.000  C
  H29      1.0000 0.61650  0.14040  0.74410  Biso   1.000  H
  H30      1.0000 0.88350  0.64040  0.25590  Biso   1.000  H
  H31      1.0000 0.38350  0.85960  0.25590  Biso   1.000  H
  H32      1.0000 0.11650  0.35960  0.74410  Biso   1.000  H
  C33      1.0000 0.10470  0.94550  0.11470  Biso   1.000  C
  C34      1.0000 0.39530  0.44550  0.88530  Biso   1.000  C
  C35      1.0000 0.89530  0.05450  0.88530  Biso   1.000  C
  C36      1.0000 0.60470  0.55450  0.11470  Biso   1.000  C
  C37      1.0000 0.06700  0.83910  0.07370  Biso   1.000  C
  C38      1.0000 0.43300  0.33910  0.92630  Biso   1.000  C
  C39      1.0000 0.93300  0.16090  0.92630  Biso   1.000  C
  C40      1.0000 0.56700  0.66090  0.07370  Biso   1.000  C
  H33      1.0000 0.99330  0.80680  0.08650  Biso   1.000  H
  H34      1.0000 0.50670  0.30680  0.91350  Biso   1.000  H
  H35      1.0000 0.00670  0.19320  0.91350  Biso   1.000  H
  H36      1.0000 0.49330  0.69320  0.08650  Biso   1.000  H
  C41      1.0000 0.13600  0.78580  0.01730  Biso   1.000  C
  C42      1.0000 0.36400  0.28580  0.98270  Biso   1.000  C
  C43      1.0000 0.86400  0.21420  0.98270  Biso   1.000  C
  C44      1.0000 0.63600  0.71420  0.01730  Biso   1.000  C
  H37      1.0000 0.10790  0.71920  0.98970  Biso   1.000  H
  H38      1.0000 0.39210  0.21920  0.01030  Biso   1.000  H
  H39      1.0000 0.89210  0.28080  0.01030  Biso   1.000  H
  H40      1.0000 0.60790  0.78080  0.98970  Biso   1.000  H
  C45      1.0000 0.24700  0.83000  0.00140  Biso   1.000  C
  C46      1.0000 0.25300  0.33000  0.99860  Biso   1.000  C
  C47      1.0000 0.75300  0.17000  0.99860  Biso   1.000  C
  C48      1.0000 0.74700  0.67000  0.00140  Biso   1.000  C
  H41      1.0000 0.29670  0.79210  0.96580  Biso   1.000  H
  H42      1.0000 0.20330  0.29210  0.03420  Biso   1.000  H
  H43      1.0000 0.70330  0.20790  0.03420  Biso   1.000  H
  H44      1.0000 0.79670  0.70790  0.96580  Biso   1.000  H
  C49      1.0000 0.28600  0.93100  0.03800  Biso   1.000  C
  C50      1.0000 0.21400  0.43100  0.96200  Biso   1.000  C
  C51      1.0000 0.71400  0.06900  0.96200  Biso   1.000  C
  C52      1.0000 0.78600  0.56900  0.03800  Biso   1.000  C
  H45      1.0000 0.35840  0.96280  0.02270  Biso   1.000  H
  H46      1.0000 0.14160  0.46280  0.97730  Biso   1.000  H
  H47      1.0000 0.64160  0.03720  0.97730  Biso   1.000  H
  H48      1.0000 0.85840  0.53720  0.02270  Biso   1.000  H
  C53      1.0000 0.21880  0.98500  0.09620  Biso   1.000  C
  C54      1.0000 0.28120  0.48500  0.90380  Biso   1.000  C
  C55      1.0000 0.78120  0.01500  0.90380  Biso   1.000  C
  C56      1.0000 0.71880  0.51500  0.09620  Biso   1.000  C
  H49      1.0000 0.25110  0.05060  0.12440  Biso   1.000  H
  H50      1.0000 0.24890  0.55060  0.87560  Biso   1.000  H
  H51      1.0000 0.74890  0.94940  0.87560  Biso   1.000  H
  H52      1.0000 0.75110  0.44940  0.12440  Biso   1.000  H
  N1       1.0000 0.22970  0.06750  0.34700  Biso   1.000  N
  N2       1.0000 0.27030  0.56750  0.65300  Biso   1.000  N
  N3       1.0000 0.77030  0.93250  0.65300  Biso   1.000  N
  N4       1.0000 0.72970  0.43250  0.34700  Biso   1.000  N
  N5       1.0000 0.33300  0.10310  0.43170  Biso   1.000  N
  N6       1.0000 0.16700  0.60310  0.56830  Biso   1.000  N
  N7       1.0000 0.66700  0.89690  0.56830  Biso   1.000  N
  N8       1.0000 0.83300  0.39690  0.43170  Biso   1.000  N
  N9       1.0000 0.51390  0.15850  0.59670  Biso   1.000  N
  N10      1.0000 0.98610  0.65850  0.40330  Biso   1.000  N
  N11      1.0000 0.48610  0.84150  0.40330  Biso   1.000  N
  N12      1.0000 0.01390  0.34150  0.59670  Biso   1.000  N
  N13      1.0000 0.70760  0.30990  0.59640  Biso   1.000  N
  N14      1.0000 0.79240  0.80990  0.40360  Biso   1.000  N
  N15      1.0000 0.29240  0.69010  0.40360  Biso   1.000  N
  N16      1.0000 0.20760  0.19010  0.59640  Biso   1.000  N
  N17      1.0000 0.40530  0.96810  0.77790  Biso   1.000  N
  N18      1.0000 0.09470  0.46810  0.22210  Biso   1.000  N
  N19      1.0000 0.59470  0.03190  0.22210  Biso   1.000  N
  N20      1.0000 0.90530  0.53190  0.77790  Biso   1.000  N
  O1       1.0000 0.43590  0.97270  0.69820  Biso   1.000  O
  O2       1.0000 0.06410  0.47270  0.30180  Biso   1.000  O
  O3       1.0000 0.56410  0.02730  0.30180  Biso   1.000  O
  O4       1.0000 0.93590  0.52730  0.69820  Biso   1.000  O
  O5       1.0000 0.33200  0.03800  0.78900  Biso   1.000  O
  O6       1.0000 0.16800  0.53800  0.21100  Biso   1.000  O
  O7       1.0000 0.66800  0.96200  0.21100  Biso   1.000  O
  O8       1.0000 0.83200  0.46200  0.78900  Biso   1.000  O
  O9       1.0000 0.44520  0.90320  0.84480  Biso   1.000  O
  O10      1.0000 0.05480  0.40320  0.15520  Biso   1.000  O
  O11      1.0000 0.55480  0.09680  0.15520  Biso   1.000  O
  O12      1.0000 0.94520  0.59680  0.84480  Biso   1.000  O
  S1       1.0000 0.19720  0.93810  0.50330  Biso   1.000  S
  S2       1.0000 0.30280  0.43810  0.49670  Biso   1.000  S
  S3       1.0000 0.80280  0.06190  0.49670  Biso   1.000  S
  S4       1.0000 0.69720  0.56190  0.50330  Biso   1.000  S
  S5       1.0000 0.02350  0.94270  0.29390  Biso   1.000  S
  S6       1.0000 0.47650  0.44270  0.70610  Biso   1.000  S
  S7       1.0000 0.97650  0.05730  0.70610  Biso   1.000  S
  S8       1.0000 0.52350  0.55730  0.29390  Biso   1.000  S
  Cu1      1.0000 0.35920  0.05595  0.57585  Biso   1.000  Cu
  Cu2      1.0000 0.14080  0.55595  0.42415  Biso   1.000  Cu
  Cu3      1.0000 0.64080  0.94405  0.42415  Biso   1.000  Cu
  Cu4      1.0000 0.85920  0.44405  0.57585  Biso   1.000  Cu
