data_image0
_cell_length_a       22.877
_cell_length_b       23.111
_cell_length_c       18.364
_cell_angle_alpha    90
_cell_angle_beta     105.399
_cell_angle_gamma    90

_symmetry_space_group_name_H-M    "P 1"
_symmetry_int_tables_number       1

loop_
  _symmetry_equiv_pos_as_xyz
  'x, y, z'

loop_
  _atom_site_label
  _atom_site_occupancy
  _atom_site_fract_x
  _atom_site_fract_y
  _atom_site_fract_z
  _atom_site_thermal_displace_type
  _atom_site_B_iso_or_equiv
  _atom_site_type_symbol
  Cu1      1.0000 0.64907  0.22169  0.55791  Biso   1.000  Cu
  Cu2      1.0000 0.35093  0.22169  0.94209  Biso   1.000  Cu
  Cu3      1.0000 0.14907  0.72169  0.55791  Biso   1.000  Cu
  Cu4      1.0000 0.85093  0.72169  0.94209  Biso   1.000  Cu
  Cu5      1.0000 0.35093  0.77832  0.44209  Biso   1.000  Cu
  Cu6      1.0000 0.64907  0.77832  0.05791  Biso   1.000  Cu
  Cu7      1.0000 0.85093  0.27831  0.44209  Biso   1.000  Cu
  Cu8      1.0000 0.14907  0.27831  0.05791  Biso   1.000  Cu
  Cu9      1.0000 0.72061  0.30401  0.46079  Biso   1.000  Cu
  Cu10     1.0000 0.27939  0.30401  0.03921  Biso   1.000  Cu
  Cu11     1.0000 0.22061  0.80401  0.46079  Biso   1.000  Cu
  Cu12     1.0000 0.77939  0.80401  0.03921  Biso   1.000  Cu
  Cu13     1.0000 0.27939  0.69599  0.53921  Biso   1.000  Cu
  Cu14     1.0000 0.72061  0.69599  0.96079  Biso   1.000  Cu
  Cu15     1.0000 0.77939  0.19599  0.53921  Biso   1.000  Cu
  Cu16     1.0000 0.22061  0.19599  0.96079  Biso   1.000  Cu
  N1       1.0000 0.80909  0.37014  0.81423  Biso   1.000  N
  N2       1.0000 0.19091  0.37014  0.68577  Biso   1.000  N
  N3       1.0000 0.30909  0.87014  0.81423  Biso   1.000  N
  N4       1.0000 0.69091  0.87014  0.68577  Biso   1.000  N
  N5       1.0000 0.19091  0.62986  0.18577  Biso   1.000  N
  N6       1.0000 0.80909  0.62986  0.31423  Biso   1.000  N
  N7       1.0000 0.69091  0.12986  0.18577  Biso   1.000  N
  N8       1.0000 0.30909  0.12986  0.31423  Biso   1.000  N
  N9       1.0000 0.90687  0.37745  0.89286  Biso   1.000  N
  N10      1.0000 0.09313  0.37745  0.60714  Biso   1.000  N
  N11      1.0000 0.40687  0.87745  0.89286  Biso   1.000  N
  N12      1.0000 0.59313  0.87745  0.60714  Biso   1.000  N
  N13      1.0000 0.09313  0.62255  0.10714  Biso   1.000  N
  N14      1.0000 0.90687  0.62255  0.39286  Biso   1.000  N
  N15      1.0000 0.59313  0.12255  0.10714  Biso   1.000  N
  N16      1.0000 0.40687  0.12255  0.39286  Biso   1.000  N
  N17      1.0000 0.84510  0.45933  0.86592  Biso   1.000  N
  N18      1.0000 0.15490  0.45933  0.63408  Biso   1.000  N
  N19      1.0000 0.34510  0.95933  0.86592  Biso   1.000  N
  N20      1.0000 0.65490  0.95933  0.63408  Biso   1.000  N
  N21      1.0000 0.15490  0.54067  0.13408  Biso   1.000  N
  N22      1.0000 0.84510  0.54067  0.36592  Biso   1.000  N
  N23      1.0000 0.65490  0.04067  0.13408  Biso   1.000  N
  N24      1.0000 0.34510  0.04067  0.36592  Biso   1.000  N
  N25      1.0000 0.59607  0.22744  0.62796  Biso   1.000  N
  N26      1.0000 0.40393  0.22744  0.87204  Biso   1.000  N
  N27      1.0000 0.09607  0.72744  0.62796  Biso   1.000  N
  N28      1.0000 0.90393  0.72744  0.87204  Biso   1.000  N
  N29      1.0000 0.40393  0.77256  0.37204  Biso   1.000  N
  N30      1.0000 0.59607  0.77256  0.12796  Biso   1.000  N
  N31      1.0000 0.90393  0.27256  0.37204  Biso   1.000  N
  N32      1.0000 0.09607  0.27256  0.12796  Biso   1.000  N
  N33      1.0000 0.64209  0.31474  0.38500  Biso   1.000  N
  N34      1.0000 0.35791  0.31474  0.11500  Biso   1.000  N
  N35      1.0000 0.14209  0.81474  0.38500  Biso   1.000  N
  N36      1.0000 0.85791  0.81474  0.11500  Biso   1.000  N
  N37      1.0000 0.35791  0.68526  0.61500  Biso   1.000  N
  N38      1.0000 0.64209  0.68526  0.88500  Biso   1.000  N
  N39      1.0000 0.85791  0.18526  0.61500  Biso   1.000  N
  N40      1.0000 0.14209  0.18526  0.88500  Biso   1.000  N
  O1       1.0000 0.75089  0.44995  0.78887  Biso   1.000  O
  O2       1.0000 0.24911  0.44995  0.71113  Biso   1.000  O
  O3       1.0000 0.25089  0.94995  0.78887  Biso   1.000  O
  O4       1.0000 0.74911  0.94995  0.71113  Biso   1.000  O
  O5       1.0000 0.24911  0.55005  0.21113  Biso   1.000  O
  O6       1.0000 0.75089  0.55005  0.28887  Biso   1.000  O
  O7       1.0000 0.74911  0.05005  0.21113  Biso   1.000  O
  O8       1.0000 0.25089  0.05005  0.28887  Biso   1.000  O
  O9       1.0000 0.94174  0.46511  0.94194  Biso   1.000  O
  O10      1.0000 0.05826  0.46511  0.55806  Biso   1.000  O
  O11      1.0000 0.44174  0.96511  0.94194  Biso   1.000  O
  O12      1.0000 0.55826  0.96511  0.55806  Biso   1.000  O
  O13      1.0000 0.05826  0.53489  0.05806  Biso   1.000  O
  O14      1.0000 0.94174  0.53489  0.44194  Biso   1.000  O
  O15      1.0000 0.55826  0.03489  0.05806  Biso   1.000  O
  O16      1.0000 0.44174  0.03489  0.44194  Biso   1.000  O
  O17      1.0000 0.87213  0.29255  0.83689  Biso   1.000  O
  O18      1.0000 0.12787  0.29255  0.66311  Biso   1.000  O
  O19      1.0000 0.37213  0.79255  0.83689  Biso   1.000  O
  O20      1.0000 0.62787  0.79255  0.66311  Biso   1.000  O
  O21      1.0000 0.12787  0.70745  0.16311  Biso   1.000  O
  O22      1.0000 0.87213  0.70745  0.33689  Biso   1.000  O
  O23      1.0000 0.62787  0.20745  0.16311  Biso   1.000  O
  O24      1.0000 0.37213  0.20745  0.33689  Biso   1.000  O
  O25      1.0000 0.71807  0.25569  0.63610  Biso   1.000  O
  O26      1.0000 0.28193  0.25569  0.86390  Biso   1.000  O
  O27      1.0000 0.21807  0.75569  0.63610  Biso   1.000  O
  O28      1.0000 0.78193  0.75569  0.86390  Biso   1.000  O
  O29      1.0000 0.28193  0.74431  0.36390  Biso   1.000  O
  O30      1.0000 0.71807  0.74431  0.13610  Biso   1.000  O
  O31      1.0000 0.78193  0.24431  0.36390  Biso   1.000  O
  O32      1.0000 0.21807  0.24431  0.13610  Biso   1.000  O
  O33      1.0000 0.68619  0.33369  0.56805  Biso   1.000  O
  O34      1.0000 0.31381  0.33369  0.93195  Biso   1.000  O
  O35      1.0000 0.18619  0.83369  0.56805  Biso   1.000  O
  O36      1.0000 0.81381  0.83369  0.93195  Biso   1.000  O
  O37      1.0000 0.31381  0.66631  0.43195  Biso   1.000  O
  O38      1.0000 0.68619  0.66631  0.06805  Biso   1.000  O
  O39      1.0000 0.81381  0.16631  0.43195  Biso   1.000  O
  O40      1.0000 0.18619  0.16631  0.06805  Biso   1.000  O
  O41      1.0000 0.07562  0.30110  0.98047  Biso   1.000  O
  O42      1.0000 0.92438  0.30110  0.51953  Biso   1.000  O
  O43      1.0000 0.57562  0.80110  0.98047  Biso   1.000  O
  O44      1.0000 0.42438  0.80110  0.51953  Biso   1.000  O
  O45      1.0000 0.92438  0.69890  0.01953  Biso   1.000  O
  O46      1.0000 0.07562  0.69890  0.48047  Biso   1.000  O
  O47      1.0000 0.42438  0.19890  0.01953  Biso   1.000  O
  O48      1.0000 0.57562  0.19890  0.48047  Biso   1.000  O
  O49      1.0000 0.11434  0.33985  0.89259  Biso   1.000  O
  O50      1.0000 0.88566  0.33985  0.60741  Biso   1.000  O
  O51      1.0000 0.61434  0.83985  0.89259  Biso   1.000  O
  O52      1.0000 0.38566  0.83985  0.60741  Biso   1.000  O
  O53      1.0000 0.88566  0.66015  0.10741  Biso   1.000  O
  O54      1.0000 0.11434  0.66015  0.39259  Biso   1.000  O
  O55      1.0000 0.38566  0.16015  0.10741  Biso   1.000  O
  O56      1.0000 0.61434  0.16015  0.39259  Biso   1.000  O
  O57      1.0000 0.81934  0.63457  0.90306  Biso   1.000  O
  O58      1.0000 0.18066  0.63457  0.59694  Biso   1.000  O
  O59      1.0000 0.31934  0.13457  0.90306  Biso   1.000  O
  O60      1.0000 0.68066  0.13457  0.59694  Biso   1.000  O
  O61      1.0000 0.18066  0.36543  0.09694  Biso   1.000  O
  O62      1.0000 0.81934  0.36543  0.40306  Biso   1.000  O
  O63      1.0000 0.68066  0.86543  0.09694  Biso   1.000  O
  O64      1.0000 0.31934  0.86543  0.40306  Biso   1.000  O
  O65      1.0000 0.74469  0.61597  0.95446  Biso   1.000  O
  O66      1.0000 0.25531  0.61597  0.54554  Biso   1.000  O
  O67      1.0000 0.24469  0.11597  0.95446  Biso   1.000  O
  O68      1.0000 0.75531  0.11597  0.54554  Biso   1.000  O
  O69      1.0000 0.25531  0.38403  0.04554  Biso   1.000  O
  O70      1.0000 0.74469  0.38403  0.45446  Biso   1.000  O
  O71      1.0000 0.75531  0.88403  0.04554  Biso   1.000  O
  O72      1.0000 0.24469  0.88403  0.45446  Biso   1.000  O
  O73      1.0000 0.80094  0.27594  0.51526  Biso   1.000  O
  O74      1.0000 0.19906  0.27594  0.98474  Biso   1.000  O
  O75      1.0000 0.30094  0.77594  0.51526  Biso   1.000  O
  O76      1.0000 0.69906  0.77594  0.98474  Biso   1.000  O
  O77      1.0000 0.19906  0.72406  0.48474  Biso   1.000  O
  O78      1.0000 0.80094  0.72406  0.01526  Biso   1.000  O
  O79      1.0000 0.69906  0.22406  0.48474  Biso   1.000  O
  O80      1.0000 0.30094  0.22406  0.01526  Biso   1.000  O
  H1       1.0000 0.81870  0.29870  0.56080  Biso   1.000  H
  H2       1.0000 0.18130  0.29870  0.93920  Biso   1.000  H
  H3       1.0000 0.31870  0.79870  0.56080  Biso   1.000  H
  H4       1.0000 0.68130  0.79870  0.93920  Biso   1.000  H
  H5       1.0000 0.18130  0.70130  0.43920  Biso   1.000  H
  H6       1.0000 0.81870  0.70130  0.06080  Biso   1.000  H
  H7       1.0000 0.68130  0.20130  0.43920  Biso   1.000  H
  H8       1.0000 0.31870  0.20130  0.06080  Biso   1.000  H
  C1       1.0000 0.79890  0.42750  0.82120  Biso   1.000  C
  C2       1.0000 0.20110  0.42750  0.67880  Biso   1.000  C
  C3       1.0000 0.29890  0.92750  0.82120  Biso   1.000  C
  C4       1.0000 0.70110  0.92750  0.67880  Biso   1.000  C
  C5       1.0000 0.20110  0.57250  0.17880  Biso   1.000  C
  C6       1.0000 0.79890  0.57250  0.32120  Biso   1.000  C
  C7       1.0000 0.70110  0.07250  0.17880  Biso   1.000  C
  C8       1.0000 0.29890  0.07250  0.32120  Biso   1.000  C
  C9       1.0000 0.90116  0.43571  0.90310  Biso   1.000  C
  C10      1.0000 0.09884  0.43571  0.59690  Biso   1.000  C
  C11      1.0000 0.40116  0.93571  0.90310  Biso   1.000  C
  C12      1.0000 0.59884  0.93571  0.59690  Biso   1.000  C
  C13      1.0000 0.09884  0.56429  0.09690  Biso   1.000  C
  C14      1.0000 0.90116  0.56429  0.40310  Biso   1.000  C
  C15      1.0000 0.59884  0.06429  0.09690  Biso   1.000  C
  C16      1.0000 0.40116  0.06429  0.40310  Biso   1.000  C
  C17      1.0000 0.86319  0.34348  0.84710  Biso   1.000  C
  C18      1.0000 0.13681  0.34348  0.65290  Biso   1.000  C
  C19      1.0000 0.36319  0.84348  0.84710  Biso   1.000  C
  C20      1.0000 0.63681  0.84348  0.65290  Biso   1.000  C
  C21      1.0000 0.13681  0.65652  0.15290  Biso   1.000  C
  C22      1.0000 0.86319  0.65652  0.34710  Biso   1.000  C
  C23      1.0000 0.63681  0.15652  0.15290  Biso   1.000  C
  C24      1.0000 0.36319  0.15652  0.34710  Biso   1.000  C
  C25      1.0000 0.76147  0.33643  0.76100  Biso   1.000  C
  C26      1.0000 0.23853  0.33643  0.73900  Biso   1.000  C
  C27      1.0000 0.26147  0.83643  0.76100  Biso   1.000  C
  C28      1.0000 0.73853  0.83643  0.73900  Biso   1.000  C
  C29      1.0000 0.23853  0.66357  0.23900  Biso   1.000  C
  C30      1.0000 0.76147  0.66357  0.26100  Biso   1.000  C
  C31      1.0000 0.73853  0.16357  0.23900  Biso   1.000  C
  C32      1.0000 0.26147  0.16357  0.26100  Biso   1.000  C
  H9       1.0000 0.72190  0.34890  0.76460  Biso   1.000  H
  H10      1.0000 0.27810  0.34890  0.73540  Biso   1.000  H
  H11      1.0000 0.22190  0.84890  0.76460  Biso   1.000  H
  H12      1.0000 0.77810  0.84890  0.73540  Biso   1.000  H
  H13      1.0000 0.27810  0.65110  0.23540  Biso   1.000  H
  H14      1.0000 0.72190  0.65110  0.26460  Biso   1.000  H
  H15      1.0000 0.77810  0.15110  0.23540  Biso   1.000  H
  H16      1.0000 0.22190  0.15110  0.26460  Biso   1.000  H
  H17      1.0000 0.76600  0.29570  0.77400  Biso   1.000  H
  H18      1.0000 0.23400  0.29570  0.72600  Biso   1.000  H
  H19      1.0000 0.26600  0.79570  0.77400  Biso   1.000  H
  H20      1.0000 0.73400  0.79570  0.72600  Biso   1.000  H
  H21      1.0000 0.23400  0.70430  0.22600  Biso   1.000  H
  H22      1.0000 0.76600  0.70430  0.27400  Biso   1.000  H
  H23      1.0000 0.73400  0.20430  0.22600  Biso   1.000  H
  H24      1.0000 0.26600  0.20430  0.27400  Biso   1.000  H
  C33      1.0000 0.76614  0.34507  0.68080  Biso   1.000  C
  C34      1.0000 0.23386  0.34507  0.81920  Biso   1.000  C
  C35      1.0000 0.26614  0.84507  0.68080  Biso   1.000  C
  C36      1.0000 0.73386  0.84507  0.81920  Biso   1.000  C
  C37      1.0000 0.23386  0.65493  0.31920  Biso   1.000  C
  C38      1.0000 0.76614  0.65493  0.18080  Biso   1.000  C
  C39      1.0000 0.73386  0.15493  0.31920  Biso   1.000  C
  C40      1.0000 0.26614  0.15493  0.18080  Biso   1.000  C
  H25      1.0000 0.76020  0.38570  0.66760  Biso   1.000  H
  H26      1.0000 0.23980  0.38570  0.83240  Biso   1.000  H
  H27      1.0000 0.26020  0.88570  0.66760  Biso   1.000  H
  H28      1.0000 0.73980  0.88570  0.83240  Biso   1.000  H
  H29      1.0000 0.23980  0.61430  0.33240  Biso   1.000  H
  H30      1.0000 0.76020  0.61430  0.16760  Biso   1.000  H
  H31      1.0000 0.73980  0.11430  0.33240  Biso   1.000  H
  H32      1.0000 0.26020  0.11430  0.16760  Biso   1.000  H
  H33      1.0000 0.80650  0.33430  0.67820  Biso   1.000  H
  H34      1.0000 0.19350  0.33430  0.82180  Biso   1.000  H
  H35      1.0000 0.30650  0.83430  0.67820  Biso   1.000  H
  H36      1.0000 0.69350  0.83430  0.82180  Biso   1.000  H
  H37      1.0000 0.19350  0.66570  0.32180  Biso   1.000  H
  H38      1.0000 0.80650  0.66570  0.17820  Biso   1.000  H
  H39      1.0000 0.69350  0.16570  0.32180  Biso   1.000  H
  H40      1.0000 0.30650  0.16570  0.17820  Biso   1.000  H
  C41      1.0000 0.72017  0.30976  0.62490  Biso   1.000  C
  C42      1.0000 0.27983  0.30976  0.87510  Biso   1.000  C
  C43      1.0000 0.22017  0.80976  0.62490  Biso   1.000  C
  C44      1.0000 0.77983  0.80976  0.87510  Biso   1.000  C
  C45      1.0000 0.27983  0.69024  0.37510  Biso   1.000  C
  C46      1.0000 0.72017  0.69024  0.12490  Biso   1.000  C
  C47      1.0000 0.77983  0.19024  0.37510  Biso   1.000  C
  C48      1.0000 0.22017  0.19024  0.12490  Biso   1.000  C
  C49      1.0000 0.96574  0.35017  0.93100  Biso   1.000  C
  C50      1.0000 0.03426  0.35017  0.56900  Biso   1.000  C
  C51      1.0000 0.46574  0.85017  0.93100  Biso   1.000  C
  C52      1.0000 0.53426  0.85017  0.56900  Biso   1.000  C
  C53      1.0000 0.03426  0.64983  0.06900  Biso   1.000  C
  C54      1.0000 0.96574  0.64983  0.43100  Biso   1.000  C
  C55      1.0000 0.53426  0.14983  0.06900  Biso   1.000  C
  C56      1.0000 0.46574  0.14983  0.43100  Biso   1.000  C
  H41      1.0000 0.95910  0.31000  0.94190  Biso   1.000  H
  H42      1.0000 0.04090  0.31000  0.55810  Biso   1.000  H
  H43      1.0000 0.45910  0.81000  0.94190  Biso   1.000  H
  H44      1.0000 0.54090  0.81000  0.55810  Biso   1.000  H
  H45      1.0000 0.04090  0.69000  0.05810  Biso   1.000  H
  H46      1.0000 0.95910  0.69000  0.44190  Biso   1.000  H
  H47      1.0000 0.54090  0.19000  0.05810  Biso   1.000  H
  H48      1.0000 0.45910  0.19000  0.44190  Biso   1.000  H
  H49      1.0000 0.98320  0.36970  0.97850  Biso   1.000  H
  H50      1.0000 0.01680  0.36970  0.52150  Biso   1.000  H
  H51      1.0000 0.48320  0.86970  0.97850  Biso   1.000  H
  H52      1.0000 0.51680  0.86970  0.52150  Biso   1.000  H
  H53      1.0000 0.01680  0.63030  0.02150  Biso   1.000  H
  H54      1.0000 0.98320  0.63030  0.47850  Biso   1.000  H
  H55      1.0000 0.51680  0.13030  0.02150  Biso   1.000  H
  H56      1.0000 0.48320  0.13030  0.47850  Biso   1.000  H
  C57      1.0000 0.00939  0.35330  0.88210  Biso   1.000  C
  C58      1.0000 0.99061  0.35330  0.61790  Biso   1.000  C
  C59      1.0000 0.50939  0.85330  0.88210  Biso   1.000  C
  C60      1.0000 0.49061  0.85330  0.61790  Biso   1.000  C
  C61      1.0000 0.99061  0.64670  0.11790  Biso   1.000  C
  C62      1.0000 0.00939  0.64670  0.38210  Biso   1.000  C
  C63      1.0000 0.49061  0.14670  0.11790  Biso   1.000  C
  C64      1.0000 0.50939  0.14670  0.38210  Biso   1.000  C
  H57      1.0000 0.01320  0.39330  0.86800  Biso   1.000  H
  H58      1.0000 0.98680  0.39330  0.63200  Biso   1.000  H
  H59      1.0000 0.51320  0.89330  0.86800  Biso   1.000  H
  H60      1.0000 0.48680  0.89330  0.63200  Biso   1.000  H
  H61      1.0000 0.98680  0.60670  0.13200  Biso   1.000  H
  H62      1.0000 0.01320  0.60670  0.36800  Biso   1.000  H
  H63      1.0000 0.48680  0.10670  0.13200  Biso   1.000  H
  H64      1.0000 0.51320  0.10670  0.36800  Biso   1.000  H
  H65      1.0000 0.99280  0.33150  0.83610  Biso   1.000  H
  H66      1.0000 0.00720  0.33150  0.66390  Biso   1.000  H
  H67      1.0000 0.49280  0.83150  0.83610  Biso   1.000  H
  H68      1.0000 0.50720  0.83150  0.66390  Biso   1.000  H
  H69      1.0000 0.00720  0.66850  0.16390  Biso   1.000  H
  H70      1.0000 0.99280  0.66850  0.33610  Biso   1.000  H
  H71      1.0000 0.50720  0.16850  0.16390  Biso   1.000  H
  H72      1.0000 0.49280  0.16850  0.33610  Biso   1.000  H
  C65      1.0000 0.07176  0.32993  0.92080  Biso   1.000  C
  C66      1.0000 0.92824  0.32993  0.57920  Biso   1.000  C
  C67      1.0000 0.57176  0.82993  0.92080  Biso   1.000  C
  C68      1.0000 0.42824  0.82993  0.57920  Biso   1.000  C
  C69      1.0000 0.92824  0.67007  0.07920  Biso   1.000  C
  C70      1.0000 0.07176  0.67007  0.42080  Biso   1.000  C
  C71      1.0000 0.42824  0.17007  0.07920  Biso   1.000  C
  C72      1.0000 0.57176  0.17007  0.42080  Biso   1.000  C
  C73      1.0000 0.83681  0.52215  0.87170  Biso   1.000  C
  C74      1.0000 0.16319  0.52215  0.62830  Biso   1.000  C
  C75      1.0000 0.33681  0.02215  0.87170  Biso   1.000  C
  C76      1.0000 0.66319  0.02215  0.62830  Biso   1.000  C
  C77      1.0000 0.16319  0.47785  0.12830  Biso   1.000  C
  C78      1.0000 0.83681  0.47785  0.37170  Biso   1.000  C
  C79      1.0000 0.66319  0.97785  0.12830  Biso   1.000  C
  C80      1.0000 0.33681  0.97785  0.37170  Biso   1.000  C
  H73      1.0000 0.81570  0.53730  0.82250  Biso   1.000  H
  H74      1.0000 0.18430  0.53730  0.67750  Biso   1.000  H
  H75      1.0000 0.31570  0.03730  0.82250  Biso   1.000  H
  H76      1.0000 0.68430  0.03730  0.67750  Biso   1.000  H
  H77      1.0000 0.18430  0.46270  0.17750  Biso   1.000  H
  H78      1.0000 0.81570  0.46270  0.32250  Biso   1.000  H
  H79      1.0000 0.68430  0.96270  0.17750  Biso   1.000  H
  H80      1.0000 0.31570  0.96270  0.32250  Biso   1.000  H
  H81      1.0000 0.87620  0.54070  0.88730  Biso   1.000  H
  H82      1.0000 0.12380  0.54070  0.61270  Biso   1.000  H
  H83      1.0000 0.37620  0.04070  0.88730  Biso   1.000  H
  H84      1.0000 0.62380  0.04070  0.61270  Biso   1.000  H
  H85      1.0000 0.12380  0.45930  0.11270  Biso   1.000  H
  H86      1.0000 0.87620  0.45930  0.38730  Biso   1.000  H
  H87      1.0000 0.62380  0.95930  0.11270  Biso   1.000  H
  H88      1.0000 0.37620  0.95930  0.38730  Biso   1.000  H
  C81      1.0000 0.80093  0.53662  0.92800  Biso   1.000  C
  C82      1.0000 0.19907  0.53662  0.57200  Biso   1.000  C
  C83      1.0000 0.30093  0.03662  0.92800  Biso   1.000  C
  C84      1.0000 0.69907  0.03662  0.57200  Biso   1.000  C
  C85      1.0000 0.19907  0.46338  0.07200  Biso   1.000  C
  C86      1.0000 0.80093  0.46338  0.42800  Biso   1.000  C
  C87      1.0000 0.69907  0.96338  0.07200  Biso   1.000  C
  C88      1.0000 0.30093  0.96338  0.42800  Biso   1.000  C
  H89      1.0000 0.82370  0.52470  0.97810  Biso   1.000  H
  H90      1.0000 0.17630  0.52470  0.52190  Biso   1.000  H
  H91      1.0000 0.32370  0.02470  0.97810  Biso   1.000  H
  H92      1.0000 0.67630  0.02470  0.52190  Biso   1.000  H
  H93      1.0000 0.17630  0.47530  0.02190  Biso   1.000  H
  H94      1.0000 0.82370  0.47530  0.47810  Biso   1.000  H
  H95      1.0000 0.67630  0.97530  0.02190  Biso   1.000  H
  H96      1.0000 0.32370  0.97530  0.47810  Biso   1.000  H
  H97      1.0000 0.76300  0.51540  0.91500  Biso   1.000  H
  H98      1.0000 0.23700  0.51540  0.58500  Biso   1.000  H
  H99      1.0000 0.26300  0.01540  0.91500  Biso   1.000  H
  H100     1.0000 0.73700  0.01540  0.58500  Biso   1.000  H
  H101     1.0000 0.23700  0.48460  0.08500  Biso   1.000  H
  H102     1.0000 0.76300  0.48460  0.41500  Biso   1.000  H
  H103     1.0000 0.73700  0.98460  0.08500  Biso   1.000  H
  H104     1.0000 0.26300  0.98460  0.41500  Biso   1.000  H
  C89      1.0000 0.78793  0.60102  0.92800  Biso   1.000  C
  C90      1.0000 0.21207  0.60102  0.57200  Biso   1.000  C
  C91      1.0000 0.28793  0.10102  0.92800  Biso   1.000  C
  C92      1.0000 0.71207  0.10102  0.57200  Biso   1.000  C
  C93      1.0000 0.21207  0.39898  0.07200  Biso   1.000  C
  C94      1.0000 0.78793  0.39898  0.42800  Biso   1.000  C
  C95      1.0000 0.71207  0.89898  0.07200  Biso   1.000  C
  C96      1.0000 0.28793  0.89898  0.42800  Biso   1.000  C
  C97      1.0000 0.58690  0.27480  0.66330  Biso   1.000  C
  C98      1.0000 0.41310  0.27480  0.83670  Biso   1.000  C
  C99      1.0000 0.08690  0.77480  0.66330  Biso   1.000  C
  C100     1.0000 0.91310  0.77480  0.83670  Biso   1.000  C
  C101     1.0000 0.41310  0.72520  0.33670  Biso   1.000  C
  C102     1.0000 0.58690  0.72520  0.16330  Biso   1.000  C
  C103     1.0000 0.91310  0.22520  0.33670  Biso   1.000  C
  C104     1.0000 0.08690  0.22520  0.16330  Biso   1.000  C
  H105     1.0000 0.60690  0.30850  0.65630  Biso   1.000  H
  H106     1.0000 0.39310  0.30850  0.84370  Biso   1.000  H
  H107     1.0000 0.10690  0.80850  0.65630  Biso   1.000  H
  H108     1.0000 0.89310  0.80850  0.84370  Biso   1.000  H
  H109     1.0000 0.39310  0.69150  0.34370  Biso   1.000  H
  H110     1.0000 0.60690  0.69150  0.15630  Biso   1.000  H
  H111     1.0000 0.89310  0.19150  0.34370  Biso   1.000  H
  H112     1.0000 0.10690  0.19150  0.15630  Biso   1.000  H
  C105     1.0000 0.54890  0.27650  0.71030  Biso   1.000  C
  C106     1.0000 0.45110  0.27650  0.78970  Biso   1.000  C
  C107     1.0000 0.04890  0.77650  0.71030  Biso   1.000  C
  C108     1.0000 0.95110  0.77650  0.78970  Biso   1.000  C
  C109     1.0000 0.45110  0.72350  0.28970  Biso   1.000  C
  C110     1.0000 0.54890  0.72350  0.21030  Biso   1.000  C
  C111     1.0000 0.95110  0.22350  0.28970  Biso   1.000  C
  C112     1.0000 0.04890  0.22350  0.21030  Biso   1.000  C
  H113     1.0000 0.54300  0.31140  0.73260  Biso   1.000  H
  H114     1.0000 0.45700  0.31140  0.76740  Biso   1.000  H
  H115     1.0000 0.04300  0.81140  0.73260  Biso   1.000  H
  H116     1.0000 0.95700  0.81140  0.76740  Biso   1.000  H
  H117     1.0000 0.45700  0.68860  0.26740  Biso   1.000  H
  H118     1.0000 0.54300  0.68860  0.23260  Biso   1.000  H
  H119     1.0000 0.95700  0.18860  0.26740  Biso   1.000  H
  H120     1.0000 0.04300  0.18860  0.23260  Biso   1.000  H
  C113     1.0000 0.52010  0.22890  0.72470  Biso   1.000  C
  C114     1.0000 0.47990  0.22890  0.77530  Biso   1.000  C
  C115     1.0000 0.02010  0.72890  0.72470  Biso   1.000  C
  C116     1.0000 0.97990  0.72890  0.77530  Biso   1.000  C
  C117     1.0000 0.47990  0.77110  0.27530  Biso   1.000  C
  C118     1.0000 0.52010  0.77110  0.22470  Biso   1.000  C
  C119     1.0000 0.97990  0.27110  0.27530  Biso   1.000  C
  C120     1.0000 0.02010  0.27110  0.22470  Biso   1.000  C
  C121     1.0000 0.52780  0.17970  0.68700  Biso   1.000  C
  C122     1.0000 0.47220  0.17970  0.81300  Biso   1.000  C
  C123     1.0000 0.02780  0.67970  0.68700  Biso   1.000  C
  C124     1.0000 0.97220  0.67970  0.81300  Biso   1.000  C
  C125     1.0000 0.47220  0.82030  0.31300  Biso   1.000  C
  C126     1.0000 0.52780  0.82030  0.18700  Biso   1.000  C
  C127     1.0000 0.97220  0.32030  0.31300  Biso   1.000  C
  C128     1.0000 0.02780  0.32030  0.18700  Biso   1.000  C
  H121     1.0000 0.50740  0.14600  0.69300  Biso   1.000  H
  H122     1.0000 0.49260  0.14600  0.80700  Biso   1.000  H
  H123     1.0000 0.00740  0.64600  0.69300  Biso   1.000  H
  H124     1.0000 0.99260  0.64600  0.80700  Biso   1.000  H
  H125     1.0000 0.49260  0.85400  0.30700  Biso   1.000  H
  H126     1.0000 0.50740  0.85400  0.19300  Biso   1.000  H
  H127     1.0000 0.99260  0.35400  0.30700  Biso   1.000  H
  H128     1.0000 0.00740  0.35400  0.19300  Biso   1.000  H
  C129     1.0000 0.56600  0.17980  0.64000  Biso   1.000  C
  C130     1.0000 0.43400  0.17980  0.86000  Biso   1.000  C
  C131     1.0000 0.06600  0.67980  0.64000  Biso   1.000  C
  C132     1.0000 0.93400  0.67980  0.86000  Biso   1.000  C
  C133     1.0000 0.43400  0.82020  0.36000  Biso   1.000  C
  C134     1.0000 0.56600  0.82020  0.14000  Biso   1.000  C
  C135     1.0000 0.93400  0.32020  0.36000  Biso   1.000  C
  C136     1.0000 0.06600  0.32020  0.14000  Biso   1.000  C
  H129     1.0000 0.57110  0.14570  0.61560  Biso   1.000  H
  H130     1.0000 0.42890  0.14570  0.88440  Biso   1.000  H
  H131     1.0000 0.07110  0.64570  0.61560  Biso   1.000  H
  H132     1.0000 0.92890  0.64570  0.88440  Biso   1.000  H
  H133     1.0000 0.42890  0.85430  0.38440  Biso   1.000  H
  H134     1.0000 0.57110  0.85430  0.11560  Biso   1.000  H
  H135     1.0000 0.92890  0.35430  0.38440  Biso   1.000  H
  H136     1.0000 0.07110  0.35430  0.11560  Biso   1.000  H
  C137     1.0000 0.59196  0.32950  0.40390  Biso   1.000  C
  C138     1.0000 0.40804  0.32950  0.09610  Biso   1.000  C
  C139     1.0000 0.09196  0.82950  0.40390  Biso   1.000  C
  C140     1.0000 0.90804  0.82950  0.09610  Biso   1.000  C
  C141     1.0000 0.40804  0.67050  0.59610  Biso   1.000  C
  C142     1.0000 0.59196  0.67050  0.90390  Biso   1.000  C
  C143     1.0000 0.90804  0.17050  0.59610  Biso   1.000  C
  C144     1.0000 0.09196  0.17050  0.90390  Biso   1.000  C
  H137     1.0000 0.59490  0.33940  0.45390  Biso   1.000  H
  H138     1.0000 0.40510  0.33940  0.04610  Biso   1.000  H
  H139     1.0000 0.09490  0.83940  0.45390  Biso   1.000  H
  H140     1.0000 0.90510  0.83940  0.04610  Biso   1.000  H
  H141     1.0000 0.40510  0.66060  0.54610  Biso   1.000  H
  H142     1.0000 0.59490  0.66060  0.95390  Biso   1.000  H
  H143     1.0000 0.90510  0.16060  0.54610  Biso   1.000  H
  H144     1.0000 0.09490  0.16060  0.95390  Biso   1.000  H
  C145     1.0000 0.53567  0.33090  0.35260  Biso   1.000  C
  C146     1.0000 0.46433  0.33090  0.14740  Biso   1.000  C
  C147     1.0000 0.03567  0.83090  0.35260  Biso   1.000  C
  C148     1.0000 0.96433  0.83090  0.14740  Biso   1.000  C
  C149     1.0000 0.46433  0.66910  0.64740  Biso   1.000  C
  C150     1.0000 0.53567  0.66910  0.85260  Biso   1.000  C
  C151     1.0000 0.96433  0.16910  0.64740  Biso   1.000  C
  C152     1.0000 0.03567  0.16910  0.85260  Biso   1.000  C
  H145     1.0000 0.50160  0.34040  0.36860  Biso   1.000  H
  H146     1.0000 0.49840  0.34040  0.13140  Biso   1.000  H
  H147     1.0000 0.00160  0.84040  0.36860  Biso   1.000  H
  H148     1.0000 0.99840  0.84040  0.13140  Biso   1.000  H
  H149     1.0000 0.49840  0.65960  0.63140  Biso   1.000  H
  H150     1.0000 0.50160  0.65960  0.86860  Biso   1.000  H
  H151     1.0000 0.99840  0.15960  0.63140  Biso   1.000  H
  H152     1.0000 0.00160  0.15960  0.86860  Biso   1.000  H
  C153     1.0000 0.52984  0.31834  0.27750  Biso   1.000  C
  C154     1.0000 0.47016  0.31834  0.22250  Biso   1.000  C
  C155     1.0000 0.02984  0.81834  0.27750  Biso   1.000  C
  C156     1.0000 0.97016  0.81834  0.22250  Biso   1.000  C
  C157     1.0000 0.47016  0.68166  0.72250  Biso   1.000  C
  C158     1.0000 0.52984  0.68166  0.77750  Biso   1.000  C
  C159     1.0000 0.97016  0.18166  0.72250  Biso   1.000  C
  C160     1.0000 0.02984  0.18166  0.77750  Biso   1.000  C
  C161     1.0000 0.58189  0.30360  0.25910  Biso   1.000  C
  C162     1.0000 0.41811  0.30360  0.24090  Biso   1.000  C
  C163     1.0000 0.08189  0.80360  0.25910  Biso   1.000  C
  C164     1.0000 0.91811  0.80360  0.24090  Biso   1.000  C
  C165     1.0000 0.41811  0.69640  0.74090  Biso   1.000  C
  C166     1.0000 0.58189  0.69640  0.75910  Biso   1.000  C
  C167     1.0000 0.91811  0.19640  0.74090  Biso   1.000  C
  C168     1.0000 0.08189  0.19640  0.75910  Biso   1.000  C
  H153     1.0000 0.58040  0.29480  0.20920  Biso   1.000  H
  H154     1.0000 0.41960  0.29480  0.29080  Biso   1.000  H
  H155     1.0000 0.08040  0.79480  0.20920  Biso   1.000  H
  H156     1.0000 0.91960  0.79480  0.29080  Biso   1.000  H
  H157     1.0000 0.41960  0.70520  0.79080  Biso   1.000  H
  H158     1.0000 0.58040  0.70520  0.70920  Biso   1.000  H
  H159     1.0000 0.91960  0.20520  0.79080  Biso   1.000  H
  H160     1.0000 0.08040  0.20520  0.70920  Biso   1.000  H
  C169     1.0000 0.63613  0.30160  0.31280  Biso   1.000  C
  C170     1.0000 0.36387  0.30160  0.18720  Biso   1.000  C
  C171     1.0000 0.13613  0.80160  0.31280  Biso   1.000  C
  C172     1.0000 0.86387  0.80160  0.18720  Biso   1.000  C
  C173     1.0000 0.36387  0.69840  0.68720  Biso   1.000  C
  C174     1.0000 0.63613  0.69840  0.81280  Biso   1.000  C
  C175     1.0000 0.86387  0.19840  0.68720  Biso   1.000  C
  C176     1.0000 0.13613  0.19840  0.81280  Biso   1.000  C
  H161     1.0000 0.67050  0.29050  0.29830  Biso   1.000  H
  H162     1.0000 0.32950  0.29050  0.20170  Biso   1.000  H
  H163     1.0000 0.17050  0.79050  0.29830  Biso   1.000  H
  H164     1.0000 0.82950  0.79050  0.20170  Biso   1.000  H
  H165     1.0000 0.32950  0.70950  0.70170  Biso   1.000  H
  H166     1.0000 0.67050  0.70950  0.79830  Biso   1.000  H
  H167     1.0000 0.82950  0.20950  0.70170  Biso   1.000  H
  H168     1.0000 0.17050  0.20950  0.79830  Biso   1.000  H
  O81      1.0000 0.00000  0.49060  0.75000  Biso   1.000  O
  O82      1.0000 0.50000  0.99060  0.75000  Biso   1.000  O
  O83      1.0000 0.00000  0.50940  0.25000  Biso   1.000  O
  O84      1.0000 0.50000  0.00940  0.25000  Biso   1.000  O
  O85      1.0000 0.11028  0.43179  0.78660  Biso   1.000  O
  O86      1.0000 0.88972  0.43179  0.71340  Biso   1.000  O
  O87      1.0000 0.61028  0.93179  0.78660  Biso   1.000  O
  O88      1.0000 0.38972  0.93179  0.71340  Biso   1.000  O
  O89      1.0000 0.88972  0.56821  0.21340  Biso   1.000  O
  O90      1.0000 0.11028  0.56821  0.28660  Biso   1.000  O
  O91      1.0000 0.38972  0.06821  0.21340  Biso   1.000  O
  O92      1.0000 0.61028  0.06821  0.28660  Biso   1.000  O
  H169     1.0000 0.07400  0.43570  0.75980  Biso   1.000  H
  H170     1.0000 0.92600  0.43570  0.74020  Biso   1.000  H
  H171     1.0000 0.57400  0.93570  0.75980  Biso   1.000  H
  H172     1.0000 0.42600  0.93570  0.74020  Biso   1.000  H
  H173     1.0000 0.92600  0.56430  0.24020  Biso   1.000  H
  H174     1.0000 0.07400  0.56430  0.25980  Biso   1.000  H
  H175     1.0000 0.42600  0.06430  0.24020  Biso   1.000  H
  H176     1.0000 0.57400  0.06430  0.25980  Biso   1.000  H
  H177     1.0000 0.11790  0.39620  0.79580  Biso   1.000  H
  H178     1.0000 0.88210  0.39620  0.70420  Biso   1.000  H
  H179     1.0000 0.61790  0.89620  0.79580  Biso   1.000  H
  H180     1.0000 0.38210  0.89620  0.70420  Biso   1.000  H
  H181     1.0000 0.88210  0.60380  0.20420  Biso   1.000  H
  H182     1.0000 0.11790  0.60380  0.29580  Biso   1.000  H
  H183     1.0000 0.38210  0.10380  0.20420  Biso   1.000  H
  H184     1.0000 0.61790  0.10380  0.29580  Biso   1.000  H
  O93      1.0000 0.01710  0.55171  0.88590  Biso   1.000  O
  O94      1.0000 0.98290  0.55171  0.61410  Biso   1.000  O
  O95      1.0000 0.51710  0.05171  0.88590  Biso   1.000  O
  O96      1.0000 0.48290  0.05171  0.61410  Biso   1.000  O
  O97      1.0000 0.98290  0.44829  0.11410  Biso   1.000  O
  O98      1.0000 0.01710  0.44829  0.38590  Biso   1.000  O
  O99      1.0000 0.48290  0.94829  0.11410  Biso   1.000  O
  O100     1.0000 0.51710  0.94829  0.38590  Biso   1.000  O
  H185     1.0000 0.05060  0.56180  0.88620  Biso   1.000  H
  H186     1.0000 0.94940  0.56180  0.61380  Biso   1.000  H
  H187     1.0000 0.55060  0.06180  0.88620  Biso   1.000  H
  H188     1.0000 0.44940  0.06180  0.61380  Biso   1.000  H
  H189     1.0000 0.94940  0.43820  0.11380  Biso   1.000  H
  H190     1.0000 0.05060  0.43820  0.38620  Biso   1.000  H
  H191     1.0000 0.44940  0.93820  0.11380  Biso   1.000  H
  H192     1.0000 0.55060  0.93820  0.38620  Biso   1.000  H
  H193     1.0000 0.01870  0.52390  0.90780  Biso   1.000  H
  H194     1.0000 0.98130  0.52390  0.59220  Biso   1.000  H
  H195     1.0000 0.51870  0.02390  0.90780  Biso   1.000  H
  H196     1.0000 0.48130  0.02390  0.59220  Biso   1.000  H
  H197     1.0000 0.98130  0.47610  0.09220  Biso   1.000  H
  H198     1.0000 0.01870  0.47610  0.40780  Biso   1.000  H
  H199     1.0000 0.48130  0.97610  0.09220  Biso   1.000  H
  H200     1.0000 0.51870  0.97610  0.40780  Biso   1.000  H
  O101     1.0000 0.19360  0.51890  0.85370  Biso   1.000  O
  O102     1.0000 0.80640  0.51890  0.64630  Biso   1.000  O
  O103     1.0000 0.69360  0.01890  0.85370  Biso   1.000  O
  O104     1.0000 0.30640  0.01890  0.64630  Biso   1.000  O
  O105     1.0000 0.80640  0.48110  0.14630  Biso   1.000  O
  O106     1.0000 0.19360  0.48110  0.35370  Biso   1.000  O
  O107     1.0000 0.30640  0.98110  0.14630  Biso   1.000  O
  O108     1.0000 0.69360  0.98110  0.35370  Biso   1.000  O
  H201     1.0000 0.15640  0.52040  0.83060  Biso   1.000  H
  H202     1.0000 0.84360  0.52040  0.66940  Biso   1.000  H
  H203     1.0000 0.65640  0.02040  0.83060  Biso   1.000  H
  H204     1.0000 0.34360  0.02040  0.66940  Biso   1.000  H
  H205     1.0000 0.84360  0.47960  0.16940  Biso   1.000  H
  H206     1.0000 0.15640  0.47960  0.33060  Biso   1.000  H
  H207     1.0000 0.34360  0.97960  0.16940  Biso   1.000  H
  H208     1.0000 0.65640  0.97960  0.33060  Biso   1.000  H
  H209     1.0000 0.20390  0.48150  0.85600  Biso   1.000  H
  H210     1.0000 0.79610  0.48150  0.64400  Biso   1.000  H
  H211     1.0000 0.70390  0.98150  0.85600  Biso   1.000  H
  H212     1.0000 0.29610  0.98150  0.64400  Biso   1.000  H
  H213     1.0000 0.79610  0.51850  0.14400  Biso   1.000  H
  H214     1.0000 0.20390  0.51850  0.35600  Biso   1.000  H
  H215     1.0000 0.29610  0.01850  0.14400  Biso   1.000  H
  H216     1.0000 0.70390  0.01850  0.35600  Biso   1.000  H
  O109     1.0000 0.13160  0.60040  0.93010  Biso   1.000  O
  O110     1.0000 0.86840  0.60040  0.56990  Biso   1.000  O
  O111     1.0000 0.63160  0.10040  0.93010  Biso   1.000  O
  O112     1.0000 0.36840  0.10040  0.56990  Biso   1.000  O
  O113     1.0000 0.86840  0.39960  0.06990  Biso   1.000  O
  O114     1.0000 0.13160  0.39960  0.43010  Biso   1.000  O
  O115     1.0000 0.36840  0.89960  0.06990  Biso   1.000  O
  O116     1.0000 0.63160  0.89960  0.43010  Biso   1.000  O
  H217     1.0000 0.13130  0.61390  0.89040  Biso   1.000  H
  H218     1.0000 0.86870  0.61390  0.60960  Biso   1.000  H
  H219     1.0000 0.63130  0.11390  0.89040  Biso   1.000  H
  H220     1.0000 0.36870  0.11390  0.60960  Biso   1.000  H
  H221     1.0000 0.86870  0.38610  0.10960  Biso   1.000  H
  H222     1.0000 0.13130  0.38610  0.39040  Biso   1.000  H
  H223     1.0000 0.36870  0.88610  0.10960  Biso   1.000  H
  H224     1.0000 0.63130  0.88610  0.39040  Biso   1.000  H
  H225     1.0000 0.14150  0.56330  0.93060  Biso   1.000  H
  H226     1.0000 0.85850  0.56330  0.56940  Biso   1.000  H
  H227     1.0000 0.64150  0.06330  0.93060  Biso   1.000  H
  H228     1.0000 0.35850  0.06330  0.56940  Biso   1.000  H
  H229     1.0000 0.85850  0.43670  0.06940  Biso   1.000  H
  H230     1.0000 0.14150  0.43670  0.43060  Biso   1.000  H
  H231     1.0000 0.35850  0.93670  0.06940  Biso   1.000  H
  H232     1.0000 0.64150  0.93670  0.43060  Biso   1.000  H
  O117     1.0000 0.68930  0.53560  0.04150  Biso   1.000  O
  O118     1.0000 0.31070  0.53560  0.45850  Biso   1.000  O
  O119     1.0000 0.18930  0.03560  0.04150  Biso   1.000  O
  O120     1.0000 0.81070  0.03560  0.45850  Biso   1.000  O
  O121     1.0000 0.31070  0.46440  0.95850  Biso   1.000  O
  O122     1.0000 0.68930  0.46440  0.54150  Biso   1.000  O
  O123     1.0000 0.81070  0.96440  0.95850  Biso   1.000  O
  O124     1.0000 0.18930  0.96440  0.54150  Biso   1.000  O
  H233     1.0000 0.72550  0.52350  0.05800  Biso   1.000  H
  H234     1.0000 0.27450  0.52350  0.44200  Biso   1.000  H
  H235     1.0000 0.22550  0.02350  0.05800  Biso   1.000  H
  H236     1.0000 0.77450  0.02350  0.44200  Biso   1.000  H
  H237     1.0000 0.27450  0.47650  0.94200  Biso   1.000  H
  H238     1.0000 0.72550  0.47650  0.55800  Biso   1.000  H
  H239     1.0000 0.77450  0.97650  0.94200  Biso   1.000  H
  H240     1.0000 0.22550  0.97650  0.55800  Biso   1.000  H
  H241     1.0000 0.68960  0.57160  0.03250  Biso   1.000  H
  H242     1.0000 0.31040  0.57160  0.46750  Biso   1.000  H
  H243     1.0000 0.18960  0.07160  0.03250  Biso   1.000  H
  H244     1.0000 0.81040  0.07160  0.46750  Biso   1.000  H
  H245     1.0000 0.31040  0.42840  0.96750  Biso   1.000  H
  H246     1.0000 0.68960  0.42840  0.53250  Biso   1.000  H
  H247     1.0000 0.81040  0.92840  0.96750  Biso   1.000  H
  H248     1.0000 0.18960  0.92840  0.53250  Biso   1.000  H
  H249     1.0000 0.99260  0.50670  0.72700  Biso   1.000  H
  H250     1.0000 0.00740  0.50670  0.77300  Biso   1.000  H
  H251     1.0000 0.49260  0.00670  0.72700  Biso   1.000  H
  H252     1.0000 0.50740  0.00670  0.77300  Biso   1.000  H
  H253     1.0000 0.00740  0.49330  0.27300  Biso   1.000  H
  H254     1.0000 0.99260  0.49330  0.22700  Biso   1.000  H
  H255     1.0000 0.50740  0.99330  0.27300  Biso   1.000  H
  H256     1.0000 0.49260  0.99330  0.22700  Biso   1.000  H
  H257     1.0000 0.01490  0.51520  0.78420  Biso   1.000  H
  H258     1.0000 0.98510  0.51520  0.71580  Biso   1.000  H
  H259     1.0000 0.51490  0.01520  0.78420  Biso   1.000  H
  H260     1.0000 0.48510  0.01520  0.71580  Biso   1.000  H
  H261     1.0000 0.98510  0.48480  0.21580  Biso   1.000  H
  H262     1.0000 0.01490  0.48480  0.28420  Biso   1.000  H
  H263     1.0000 0.48510  0.98480  0.21580  Biso   1.000  H
  H264     1.0000 0.51490  0.98480  0.28420  Biso   1.000  H
