data_image0
_cell_length_a       27.752
_cell_length_b       5.5793
_cell_length_c       17.302
_cell_angle_alpha    90
_cell_angle_beta     115.855
_cell_angle_gamma    90

_symmetry_space_group_name_H-M    "P 1"
_symmetry_int_tables_number       1

loop_
  _symmetry_equiv_pos_as_xyz
  'x, y, z'

loop_
  _atom_site_label
  _atom_site_occupancy
  _atom_site_fract_x
  _atom_site_fract_y
  _atom_site_fract_z
  _atom_site_thermal_displace_type
  _atom_site_B_iso_or_equiv
  _atom_site_type_symbol
  C1       1.0000 0.44842  0.18620  0.57510  Biso   1.000  C
  C2       1.0000 0.55158  0.18620  0.92490  Biso   1.000  C
  C3       1.0000 0.94842  0.68620  0.57510  Biso   1.000  C
  C4       1.0000 0.05158  0.68620  0.92490  Biso   1.000  C
  C5       1.0000 0.55158  0.81380  0.42490  Biso   1.000  C
  C6       1.0000 0.44842  0.81380  0.07510  Biso   1.000  C
  C7       1.0000 0.05158  0.31380  0.42490  Biso   1.000  C
  C8       1.0000 0.94842  0.31380  0.07510  Biso   1.000  C
  C9       1.0000 0.42650  0.23250  0.48020  Biso   1.000  C
  C10      1.0000 0.57350  0.23250  0.01980  Biso   1.000  C
  C11      1.0000 0.92650  0.73250  0.48020  Biso   1.000  C
  C12      1.0000 0.07350  0.73250  0.01980  Biso   1.000  C
  C13      1.0000 0.57350  0.76750  0.51980  Biso   1.000  C
  C14      1.0000 0.42650  0.76750  0.98020  Biso   1.000  C
  C15      1.0000 0.07350  0.26750  0.51980  Biso   1.000  C
  C16      1.0000 0.92650  0.26750  0.98020  Biso   1.000  C
  H1       1.0000 0.39360  0.14210  0.45120  Biso   1.000  H
  H2       1.0000 0.60640  0.14210  0.04880  Biso   1.000  H
  H3       1.0000 0.89360  0.64210  0.45120  Biso   1.000  H
  H4       1.0000 0.10640  0.64210  0.04880  Biso   1.000  H
  H5       1.0000 0.60640  0.85790  0.54880  Biso   1.000  H
  H6       1.0000 0.39360  0.85790  0.95120  Biso   1.000  H
  H7       1.0000 0.10640  0.35790  0.54880  Biso   1.000  H
  H8       1.0000 0.89360  0.35790  0.95120  Biso   1.000  H
  H9       1.0000 0.45190  0.17220  0.46030  Biso   1.000  H
  H10      1.0000 0.54810  0.17220  0.03970  Biso   1.000  H
  H11      1.0000 0.95190  0.67220  0.46030  Biso   1.000  H
  H12      1.0000 0.04810  0.67220  0.03970  Biso   1.000  H
  H13      1.0000 0.54810  0.82780  0.53970  Biso   1.000  H
  H14      1.0000 0.45190  0.82780  0.96030  Biso   1.000  H
  H15      1.0000 0.04810  0.32780  0.53970  Biso   1.000  H
  H16      1.0000 0.95190  0.32780  0.96030  Biso   1.000  H
  C17      1.0000 0.41500  0.49600  0.45410  Biso   1.000  C
  C18      1.0000 0.58500  0.49600  0.04590  Biso   1.000  C
  C19      1.0000 0.91500  0.99600  0.45410  Biso   1.000  C
  C20      1.0000 0.08500  0.99600  0.04590  Biso   1.000  C
  C21      1.0000 0.58500  0.50400  0.54590  Biso   1.000  C
  C22      1.0000 0.41500  0.50400  0.95410  Biso   1.000  C
  C23      1.0000 0.08500  0.00400  0.54590  Biso   1.000  C
  C24      1.0000 0.91500  0.00400  0.95410  Biso   1.000  C
  H17      1.0000 0.44830  0.58540  0.48030  Biso   1.000  H
  H18      1.0000 0.55170  0.58540  0.01970  Biso   1.000  H
  H19      1.0000 0.94830  0.08540  0.48030  Biso   1.000  H
  H20      1.0000 0.05170  0.08540  0.01970  Biso   1.000  H
  H21      1.0000 0.55170  0.41460  0.51970  Biso   1.000  H
  H22      1.0000 0.44830  0.41460  0.98030  Biso   1.000  H
  H23      1.0000 0.05170  0.91460  0.51970  Biso   1.000  H
  H24      1.0000 0.94830  0.91460  0.98030  Biso   1.000  H
  H25      1.0000 0.40180  0.50810  0.39230  Biso   1.000  H
  H26      1.0000 0.59820  0.50810  0.10770  Biso   1.000  H
  H27      1.0000 0.90180  0.00810  0.39230  Biso   1.000  H
  H28      1.0000 0.09820  0.00810  0.10770  Biso   1.000  H
  H29      1.0000 0.59820  0.49190  0.60770  Biso   1.000  H
  H30      1.0000 0.40180  0.49190  0.89230  Biso   1.000  H
  H31      1.0000 0.09820  0.99190  0.60770  Biso   1.000  H
  H32      1.0000 0.90180  0.99190  0.89230  Biso   1.000  H
  C25      1.0000 0.32380  0.55880  0.43790  Biso   1.000  C
  C26      1.0000 0.67620  0.55880  0.06210  Biso   1.000  C
  C27      1.0000 0.82380  0.05880  0.43790  Biso   1.000  C
  C28      1.0000 0.17620  0.05880  0.06210  Biso   1.000  C
  C29      1.0000 0.67620  0.44120  0.56210  Biso   1.000  C
  C30      1.0000 0.32380  0.44120  0.93790  Biso   1.000  C
  C31      1.0000 0.17620  0.94120  0.56210  Biso   1.000  C
  C32      1.0000 0.82380  0.94120  0.93790  Biso   1.000  C
  C33      1.0000 0.28700  0.66440  0.47100  Biso   1.000  C
  C34      1.0000 0.71300  0.66440  0.02900  Biso   1.000  C
  C35      1.0000 0.78700  0.16440  0.47100  Biso   1.000  C
  C36      1.0000 0.21300  0.16440  0.02900  Biso   1.000  C
  C37      1.0000 0.71300  0.33560  0.52900  Biso   1.000  C
  C38      1.0000 0.28700  0.33560  0.97100  Biso   1.000  C
  C39      1.0000 0.21300  0.83560  0.52900  Biso   1.000  C
  C40      1.0000 0.78700  0.83560  0.97100  Biso   1.000  C
  C41      1.0000 0.29707  0.87360  0.51870  Biso   1.000  C
  C42      1.0000 0.70293  0.87360  0.98130  Biso   1.000  C
  C43      1.0000 0.79707  0.37360  0.51870  Biso   1.000  C
  C44      1.0000 0.20293  0.37360  0.98130  Biso   1.000  C
  C45      1.0000 0.70293  0.12640  0.48130  Biso   1.000  C
  C46      1.0000 0.29707  0.12640  0.01870  Biso   1.000  C
  C47      1.0000 0.20293  0.62640  0.48130  Biso   1.000  C
  C48      1.0000 0.79707  0.62640  0.01870  Biso   1.000  C
  H33      1.0000 0.32850  0.95850  0.53170  Biso   1.000  H
  H34      1.0000 0.67150  0.95850  0.96830  Biso   1.000  H
  H35      1.0000 0.82850  0.45850  0.53170  Biso   1.000  H
  H36      1.0000 0.17150  0.45850  0.96830  Biso   1.000  H
  H37      1.0000 0.67150  0.04150  0.46830  Biso   1.000  H
  H38      1.0000 0.32850  0.04150  0.03170  Biso   1.000  H
  H39      1.0000 0.17150  0.54150  0.46830  Biso   1.000  H
  H40      1.0000 0.82850  0.54150  0.03170  Biso   1.000  H
  C49      1.0000 0.26074  0.95640  0.54680  Biso   1.000  C
  C50      1.0000 0.73926  0.95640  0.95320  Biso   1.000  C
  C51      1.0000 0.76074  0.45640  0.54680  Biso   1.000  C
  C52      1.0000 0.23926  0.45640  0.95320  Biso   1.000  C
  C53      1.0000 0.73926  0.04360  0.45320  Biso   1.000  C
  C54      1.0000 0.26074  0.04360  0.04680  Biso   1.000  C
  C55      1.0000 0.23926  0.54360  0.45320  Biso   1.000  C
  C56      1.0000 0.76074  0.54360  0.04680  Biso   1.000  C
  H41      1.0000 0.26820  0.09720  0.57870  Biso   1.000  H
  H42      1.0000 0.73180  0.09720  0.92130  Biso   1.000  H
  H43      1.0000 0.76820  0.59720  0.57870  Biso   1.000  H
  H44      1.0000 0.23180  0.59720  0.92130  Biso   1.000  H
  H45      1.0000 0.73180  0.90280  0.42130  Biso   1.000  H
  H46      1.0000 0.26820  0.90280  0.07870  Biso   1.000  H
  H47      1.0000 0.23180  0.40280  0.42130  Biso   1.000  H
  H48      1.0000 0.76820  0.40280  0.07870  Biso   1.000  H
  C57      1.0000 0.38648  0.51070  0.69760  Biso   1.000  C
  C58      1.0000 0.61352  0.51070  0.80240  Biso   1.000  C
  C59      1.0000 0.88648  0.01070  0.69760  Biso   1.000  C
  C60      1.0000 0.11352  0.01070  0.80240  Biso   1.000  C
  C61      1.0000 0.61352  0.48930  0.30240  Biso   1.000  C
  C62      1.0000 0.38648  0.48930  0.19760  Biso   1.000  C
  C63      1.0000 0.11352  0.98930  0.30240  Biso   1.000  C
  C64      1.0000 0.88648  0.98930  0.19760  Biso   1.000  C
  H49      1.0000 0.39000  0.64930  0.67070  Biso   1.000  H
  H50      1.0000 0.61000  0.64930  0.82930  Biso   1.000  H
  H51      1.0000 0.89000  0.14930  0.67070  Biso   1.000  H
  H52      1.0000 0.11000  0.14930  0.82930  Biso   1.000  H
  H53      1.0000 0.61000  0.35070  0.32930  Biso   1.000  H
  H54      1.0000 0.39000  0.35070  0.17070  Biso   1.000  H
  H55      1.0000 0.11000  0.85070  0.32930  Biso   1.000  H
  H56      1.0000 0.89000  0.85070  0.17070  Biso   1.000  H
  C65      1.0000 0.34147  0.44220  0.70330  Biso   1.000  C
  C66      1.0000 0.65853  0.44220  0.79670  Biso   1.000  C
  C67      1.0000 0.84147  0.94220  0.70330  Biso   1.000  C
  C68      1.0000 0.15853  0.94220  0.79670  Biso   1.000  C
  C69      1.0000 0.65853  0.55780  0.29670  Biso   1.000  C
  C70      1.0000 0.34147  0.55780  0.20330  Biso   1.000  C
  C71      1.0000 0.15853  0.05780  0.29670  Biso   1.000  C
  C72      1.0000 0.84147  0.05780  0.20330  Biso   1.000  C
  H57      1.0000 0.30900  0.52350  0.68250  Biso   1.000  H
  H58      1.0000 0.69100  0.52350  0.81750  Biso   1.000  H
  H59      1.0000 0.80900  0.02350  0.68250  Biso   1.000  H
  H60      1.0000 0.19100  0.02350  0.81750  Biso   1.000  H
  H61      1.0000 0.69100  0.47650  0.31750  Biso   1.000  H
  H62      1.0000 0.30900  0.47650  0.18250  Biso   1.000  H
  H63      1.0000 0.19100  0.97650  0.31750  Biso   1.000  H
  H64      1.0000 0.80900  0.97650  0.18250  Biso   1.000  H
  C73      1.0000 0.40408  0.17930  0.76530  Biso   1.000  C
  C74      1.0000 0.59592  0.17930  0.73470  Biso   1.000  C
  C75      1.0000 0.90408  0.67930  0.76530  Biso   1.000  C
  C76      1.0000 0.09592  0.67930  0.73470  Biso   1.000  C
  C77      1.0000 0.59592  0.82070  0.23470  Biso   1.000  C
  C78      1.0000 0.40408  0.82070  0.26530  Biso   1.000  C
  C79      1.0000 0.09592  0.32070  0.23470  Biso   1.000  C
  C80      1.0000 0.90408  0.32070  0.26530  Biso   1.000  C
  H65      1.0000 0.42160  0.04260  0.79510  Biso   1.000  H
  H66      1.0000 0.57840  0.04260  0.70490  Biso   1.000  H
  H67      1.0000 0.92160  0.54260  0.79510  Biso   1.000  H
  H68      1.0000 0.07840  0.54260  0.70490  Biso   1.000  H
  H69      1.0000 0.57840  0.95740  0.20490  Biso   1.000  H
  H70      1.0000 0.42160  0.95740  0.29510  Biso   1.000  H
  H71      1.0000 0.07840  0.45740  0.20490  Biso   1.000  H
  H72      1.0000 0.92160  0.45740  0.29510  Biso   1.000  H
  Cu1      1.0000 0.50000  0.36573  0.75000  Biso   1.000  Cu
  Cu2      1.0000 0.00000  0.86573  0.75000  Biso   1.000  Cu
  Cu3      1.0000 0.50000  0.63427  0.25000  Biso   1.000  Cu
  Cu4      1.0000 0.00000  0.13427  0.25000  Biso   1.000  Cu
  N1       1.0000 0.37603  0.60620  0.47880  Biso   1.000  N
  N2       1.0000 0.62397  0.60620  0.02120  Biso   1.000  N
  N3       1.0000 0.87603  0.10620  0.47880  Biso   1.000  N
  N4       1.0000 0.12397  0.10620  0.02120  Biso   1.000  N
  N5       1.0000 0.62397  0.39380  0.52120  Biso   1.000  N
  N6       1.0000 0.37603  0.39380  0.97880  Biso   1.000  N
  N7       1.0000 0.12397  0.89380  0.52120  Biso   1.000  N
  N8       1.0000 0.87603  0.89380  0.97880  Biso   1.000  N
  H73      1.0000 0.38720  0.70510  0.52110  Biso   1.000  H
  H74      1.0000 0.61280  0.70510  0.97890  Biso   1.000  H
  H75      1.0000 0.88720  0.20510  0.52110  Biso   1.000  H
  H76      1.0000 0.11280  0.20510  0.97890  Biso   1.000  H
  H77      1.0000 0.61280  0.29490  0.47890  Biso   1.000  H
  H78      1.0000 0.38720  0.29490  0.02110  Biso   1.000  H
  H79      1.0000 0.11280  0.79490  0.47890  Biso   1.000  H
  H80      1.0000 0.88720  0.79490  0.02110  Biso   1.000  H
  N9       1.0000 0.42632  0.34510  0.73776  Biso   1.000  N
  N10      1.0000 0.57368  0.34510  0.76224  Biso   1.000  N
  N11      1.0000 0.92632  0.84510  0.73776  Biso   1.000  N
  N12      1.0000 0.07368  0.84510  0.76224  Biso   1.000  N
  N13      1.0000 0.57368  0.65490  0.26224  Biso   1.000  N
  N14      1.0000 0.42632  0.65490  0.23776  Biso   1.000  N
  N15      1.0000 0.07368  0.15490  0.26224  Biso   1.000  N
  N16      1.0000 0.92632  0.15490  0.23776  Biso   1.000  N
  N17      1.0000 0.35351  0.23100  0.74540  Biso   1.000  N
  N18      1.0000 0.64649  0.23100  0.75460  Biso   1.000  N
  N19      1.0000 0.85351  0.73100  0.74540  Biso   1.000  N
  N20      1.0000 0.14649  0.73100  0.75460  Biso   1.000  N
  N21      1.0000 0.64649  0.76900  0.25460  Biso   1.000  N
  N22      1.0000 0.35351  0.76900  0.24540  Biso   1.000  N
  N23      1.0000 0.14649  0.26900  0.25460  Biso   1.000  N
  N24      1.0000 0.85351  0.26900  0.24540  Biso   1.000  N
  H81      1.0000 0.33200  0.14460  0.75730  Biso   1.000  H
  H82      1.0000 0.66800  0.14460  0.74270  Biso   1.000  H
  H83      1.0000 0.83200  0.64460  0.75730  Biso   1.000  H
  H84      1.0000 0.16800  0.64460  0.74270  Biso   1.000  H
  H85      1.0000 0.66800  0.85540  0.24270  Biso   1.000  H
  H86      1.0000 0.33200  0.85540  0.25730  Biso   1.000  H
  H87      1.0000 0.16800  0.35540  0.24270  Biso   1.000  H
  H88      1.0000 0.83200  0.35540  0.25730  Biso   1.000  H
  O1       1.0000 0.47315  0.35670  0.62383  Biso   1.000  O
  O2       1.0000 0.52685  0.35670  0.87617  Biso   1.000  O
  O3       1.0000 0.97315  0.85670  0.62383  Biso   1.000  O
  O4       1.0000 0.02685  0.85670  0.87617  Biso   1.000  O
  O5       1.0000 0.52685  0.64330  0.37617  Biso   1.000  O
  O6       1.0000 0.47315  0.64330  0.12383  Biso   1.000  O
  O7       1.0000 0.02685  0.14330  0.37617  Biso   1.000  O
  O8       1.0000 0.97315  0.14330  0.12383  Biso   1.000  O
  O9       1.0000 0.43997  0.98620  0.59984  Biso   1.000  O
  O10      1.0000 0.56003  0.98620  0.90016  Biso   1.000  O
  O11      1.0000 0.93997  0.48620  0.59984  Biso   1.000  O
  O12      1.0000 0.06003  0.48620  0.90016  Biso   1.000  O
  O13      1.0000 0.56003  0.01380  0.40016  Biso   1.000  O
  O14      1.0000 0.43997  0.01380  0.09984  Biso   1.000  O
  O15      1.0000 0.06003  0.51380  0.40016  Biso   1.000  O
  O16      1.0000 0.93997  0.51380  0.09984  Biso   1.000  O
  O17      1.0000 0.30600  0.42610  0.37450  Biso   1.000  O
  O18      1.0000 0.69400  0.42610  0.12550  Biso   1.000  O
  O19      1.0000 0.80600  0.92610  0.37450  Biso   1.000  O
  O20      1.0000 0.19400  0.92610  0.12550  Biso   1.000  O
  O21      1.0000 0.69400  0.57390  0.62550  Biso   1.000  O
  O22      1.0000 0.30600  0.57390  0.87450  Biso   1.000  O
  O23      1.0000 0.19400  0.07390  0.62550  Biso   1.000  O
  O24      1.0000 0.80600  0.07390  0.87450  Biso   1.000  O
  O25      1.0000 0.50000  0.76580  0.75000  Biso   1.000  O
  O26      1.0000 0.00000  0.26580  0.75000  Biso   1.000  O
  O27      1.0000 0.50000  0.23420  0.25000  Biso   1.000  O
  O28      1.0000 0.00000  0.73420  0.25000  Biso   1.000  O
  H89      1.0000 0.51720  0.81470  0.79920  Biso   1.000  H
  H90      1.0000 0.48280  0.81470  0.70080  Biso   1.000  H
  H91      1.0000 0.01720  0.31470  0.79920  Biso   1.000  H
  H92      1.0000 0.98280  0.31470  0.70080  Biso   1.000  H
  H93      1.0000 0.48280  0.18530  0.20080  Biso   1.000  H
  H94      1.0000 0.51720  0.18530  0.29920  Biso   1.000  H
  H95      1.0000 0.98280  0.68530  0.20080  Biso   1.000  H
  H96      1.0000 0.01720  0.68530  0.29920  Biso   1.000  H
  O29      1.0000 0.28059  0.99770  0.78680  Biso   1.000  O
  O30      1.0000 0.71941  0.99770  0.71320  Biso   1.000  O
  O31      1.0000 0.78059  0.49770  0.78680  Biso   1.000  O
  O32      1.0000 0.21941  0.49770  0.71320  Biso   1.000  O
  O33      1.0000 0.71941  0.00230  0.21320  Biso   1.000  O
  O34      1.0000 0.28059  0.00230  0.28680  Biso   1.000  O
  O35      1.0000 0.21941  0.50230  0.21320  Biso   1.000  O
  O36      1.0000 0.78059  0.50230  0.28680  Biso   1.000  O
  H97      1.0000 0.29440  0.86840  0.81310  Biso   1.000  H
  H98      1.0000 0.70560  0.86840  0.68690  Biso   1.000  H
  H99      1.0000 0.79440  0.36840  0.81310  Biso   1.000  H
  H100     1.0000 0.20560  0.36840  0.68690  Biso   1.000  H
  H101     1.0000 0.70560  0.13160  0.18690  Biso   1.000  H
  H102     1.0000 0.29440  0.13160  0.31310  Biso   1.000  H
  H103     1.0000 0.20560  0.63160  0.18690  Biso   1.000  H
  H104     1.0000 0.79440  0.63160  0.31310  Biso   1.000  H
  H105     1.0000 0.25280  0.96530  0.74100  Biso   1.000  H
  H106     1.0000 0.74720  0.96530  0.75900  Biso   1.000  H
  H107     1.0000 0.75280  0.46530  0.74100  Biso   1.000  H
  H108     1.0000 0.24720  0.46530  0.75900  Biso   1.000  H
  H109     1.0000 0.74720  0.03470  0.25900  Biso   1.000  H
  H110     1.0000 0.25280  0.03470  0.24100  Biso   1.000  H
  H111     1.0000 0.24720  0.53470  0.25900  Biso   1.000  H
  H112     1.0000 0.75280  0.53470  0.24100  Biso   1.000  H
