data_image0
_cell_length_a       7.506
_cell_length_b       10.863
_cell_length_c       11.827
_cell_angle_alpha    63.842
_cell_angle_beta     75.736
_cell_angle_gamma    89.299

_symmetry_space_group_name_H-M    "P 1"
_symmetry_int_tables_number       1

loop_
  _symmetry_equiv_pos_as_xyz
  'x, y, z'

loop_
  _atom_site_label
  _atom_site_occupancy
  _atom_site_fract_x
  _atom_site_fract_y
  _atom_site_fract_z
  _atom_site_thermal_displace_type
  _atom_site_B_iso_or_equiv
  _atom_site_type_symbol
  Cu1      1.0000 0.04368  0.89440  0.80094  Biso   1.000  Cu
  Cu2      1.0000 0.95632  0.10560  0.19906  Biso   1.000  Cu
  N1       1.0000 0.21470  0.87920  0.65020  Biso   1.000  N
  N2       1.0000 0.78530  0.12080  0.34980  Biso   1.000  N
  N3       1.0000 0.17690  0.10020  0.49940  Biso   1.000  N
  N4       1.0000 0.82310  0.89980  0.50060  Biso   1.000  N
  H1       1.0000 0.15420  0.14330  0.42450  Biso   1.000  H
  H2       1.0000 0.84580  0.85670  0.57550  Biso   1.000  H
  N5       1.0000 0.10240  0.09660  0.70600  Biso   1.000  N
  N6       1.0000 0.89760  0.90340  0.29400  Biso   1.000  N
  N7       1.0000 0.81150  0.91600  0.91960  Biso   1.000  N
  N8       1.0000 0.18850  0.08400  0.08040  Biso   1.000  N
  N9       1.0000 0.23410  0.86690  0.92530  Biso   1.000  N
  N10      1.0000 0.76590  0.13310  0.07470  Biso   1.000  N
  N11      1.0000 0.41520  0.62240  0.28160  Biso   1.000  N
  N12      1.0000 0.58480  0.37760  0.71840  Biso   1.000  N
  O1       1.0000 0.96490  0.69970  0.88830  Biso   1.000  O
  O2       1.0000 0.03510  0.30030  0.11170  Biso   1.000  O
  O3       1.0000 0.77450  0.74180  0.76390  Biso   1.000  O
  O4       1.0000 0.22550  0.25820  0.23610  Biso   1.000  O
  C1       1.0000 0.28530  0.75890  0.67150  Biso   1.000  C
  C2       1.0000 0.71470  0.24110  0.32850  Biso   1.000  C
  H3       1.0000 0.27420  0.69420  0.75750  Biso   1.000  H
  H4       1.0000 0.72580  0.30580  0.24250  Biso   1.000  H
  C3       1.0000 0.37110  0.72670  0.57530  Biso   1.000  C
  C4       1.0000 0.62890  0.27330  0.42470  Biso   1.000  C
  H5       1.0000 0.41850  0.64240  0.59430  Biso   1.000  H
  H6       1.0000 0.58150  0.35760  0.40570  Biso   1.000  H
  C5       1.0000 0.38670  0.82290  0.44750  Biso   1.000  C
  C6       1.0000 0.61330  0.17710  0.55250  Biso   1.000  C
  H7       1.0000 0.44140  0.80240  0.37910  Biso   1.000  H
  H8       1.0000 0.55860  0.19760  0.62090  Biso   1.000  H
  C7       1.0000 0.32230  0.94690  0.42160  Biso   1.000  C
  C8       1.0000 0.67770  0.05310  0.57840  Biso   1.000  C
  H9       1.0000 0.33420  0.01310  0.33600  Biso   1.000  H
  H10      1.0000 0.66580  0.98690  0.66400  Biso   1.000  H
  C9       1.0000 0.23780  0.97270  0.52700  Biso   1.000  C
  C10      1.0000 0.76220  0.02730  0.47300  Biso   1.000  C
  C11      1.0000 0.14780  0.16750  0.57560  Biso   1.000  C
  C12      1.0000 0.85220  0.83250  0.42440  Biso   1.000  C
  C13      1.0000 0.16740  0.31090  0.51350  Biso   1.000  C
  C14      1.0000 0.83260  0.68910  0.48650  Biso   1.000  C
  H11      1.0000 0.19370  0.35900  0.42280  Biso   1.000  H
  H12      1.0000 0.80630  0.64100  0.57720  Biso   1.000  H
  C15      1.0000 0.14770  0.37980  0.58640  Biso   1.000  C
  C16      1.0000 0.85230  0.62020  0.41360  Biso   1.000  C
  H13      1.0000 0.16160  0.47570  0.54620  Biso   1.000  H
  H14      1.0000 0.83840  0.52430  0.45380  Biso   1.000  H
  C17      1.0000 0.10670  0.30630  0.72200  Biso   1.000  C
  C18      1.0000 0.89330  0.69370  0.27800  Biso   1.000  C
  H15      1.0000 0.09500  0.35190  0.77360  Biso   1.000  H
  H16      1.0000 0.90500  0.64810  0.22640  Biso   1.000  H
  C19      1.0000 0.08440  0.16770  0.77650  Biso   1.000  C
  C20      1.0000 0.91560  0.83230  0.22350  Biso   1.000  C
  H17      1.0000 0.05510  0.11840  0.86710  Biso   1.000  H
  H18      1.0000 0.94490  0.88160  0.13290  Biso   1.000  H
  C21      1.0000 0.66280  0.86600  0.97700  Biso   1.000  C
  C22      1.0000 0.33720  0.13400  0.02300  Biso   1.000  C
  C23      1.0000 0.48350  0.80590  0.04600  Biso   1.000  C
  C24      1.0000 0.51650  0.19410  0.95400  Biso   1.000  C
  C25      1.0000 0.34640  0.83880  0.98030  Biso   1.000  C
  C26      1.0000 0.65360  0.16120  0.01970  Biso   1.000  C
  C27      1.0000 0.44470  0.70500  0.17650  Biso   1.000  C
  C28      1.0000 0.55530  0.29500  0.82350  Biso   1.000  C
  C29      1.0000 0.84020  0.66210  0.85140  Biso   1.000  C
  C30      1.0000 0.15980  0.33790  0.14860  Biso   1.000  C
  C31      1.0000 0.77010  0.51340  0.92300  Biso   1.000  C
  C32      1.0000 0.22990  0.48660  0.07700  Biso   1.000  C
  H19      1.0000 0.68480  0.49470  0.00540  Biso   1.000  H
  H20      1.0000 0.31520  0.50530  0.99460  Biso   1.000  H
  H21      1.0000 0.87180  0.45950  0.93800  Biso   1.000  H
  H22      1.0000 0.12820  0.54050  0.06200  Biso   1.000  H
  H23      1.0000 0.70830  0.48970  0.87210  Biso   1.000  H
  H24      1.0000 0.29170  0.51030  0.12790  Biso   1.000  H
