data_image0
_cell_length_a       7.407
_cell_length_b       11.702
_cell_length_c       11.809
_cell_angle_alpha    69.919
_cell_angle_beta     76.011
_cell_angle_gamma    75.059

_symmetry_space_group_name_H-M    "P 1"
_symmetry_int_tables_number       1

loop_
  _symmetry_equiv_pos_as_xyz
  'x, y, z'

loop_
  _atom_site_label
  _atom_site_occupancy
  _atom_site_fract_x
  _atom_site_fract_y
  _atom_site_fract_z
  _atom_site_thermal_displace_type
  _atom_site_B_iso_or_equiv
  _atom_site_type_symbol
  Cu1      1.0000 0.10468  0.88563  0.79063  Biso   1.000  Cu
  Cu2      1.0000 0.89532  0.11437  0.20937  Biso   1.000  Cu
  N1       1.0000 0.31790  0.79039  0.70030  Biso   1.000  N
  N2       1.0000 0.68210  0.20961  0.29970  Biso   1.000  N
  N3       1.0000 0.28300  0.59722  0.84530  Biso   1.000  N
  N4       1.0000 0.71700  0.40278  0.15470  Biso   1.000  N
  H1       1.0000 0.28550  0.52160  0.85100  Biso   1.000  H
  H2       1.0000 0.71450  0.47840  0.14900  Biso   1.000  H
  N5       1.0000 0.13430  0.74905  0.94468  Biso   1.000  N
  N6       1.0000 0.86570  0.25095  0.05532  Biso   1.000  N
  N7       1.0000 0.85510  0.97220  0.86700  Biso   1.000  N
  N8       1.0000 0.14490  0.02780  0.13300  Biso   1.000  N
  N9       1.0000 0.28150  0.00270  0.82250  Biso   1.000  N
  N10      1.0000 0.71850  0.99730  0.17750  Biso   1.000  N
  N11      1.0000 0.42440  0.32160  0.87800  Biso   1.000  N
  N12      1.0000 0.57560  0.67840  0.12200  Biso   1.000  N
  N13      1.0000 0.04460  0.01520  0.63580  Biso   1.000  N
  N14      1.0000 0.95540  0.98480  0.36420  Biso   1.000  N
  N15      1.0000 0.15000  0.24390  0.24880  Biso   1.000  N
  N16      1.0000 0.85000  0.75610  0.75120  Biso   1.000  N
  N17      1.0000 0.81740  0.40670  0.54430  Biso   1.000  N
  N18      1.0000 0.18260  0.59330  0.45570  Biso   1.000  N
  C1       1.0000 0.40640  0.85230  0.59010  Biso   1.000  C
  C2       1.0000 0.59360  0.14770  0.40990  Biso   1.000  C
  H3       1.0000 0.38220  0.93840  0.56820  Biso   1.000  H
  H4       1.0000 0.61780  0.06160  0.43180  Biso   1.000  H
  C3       1.0000 0.52730  0.79750  0.50960  Biso   1.000  C
  C4       1.0000 0.47270  0.20250  0.49040  Biso   1.000  C
  H5       1.0000 0.58370  0.84450  0.43470  Biso   1.000  H
  H6       1.0000 0.41630  0.15550  0.56530  Biso   1.000  H
  C5       1.0000 0.56490  0.66880  0.54230  Biso   1.000  C
  C6       1.0000 0.43510  0.33120  0.45770  Biso   1.000  C
  H7       1.0000 0.64410  0.62780  0.48830  Biso   1.000  H
  H8       1.0000 0.35590  0.37220  0.51170  Biso   1.000  H
  C7       1.0000 0.48450  0.60360  0.65410  Biso   1.000  C
  C8       1.0000 0.51550  0.39640  0.34590  Biso   1.000  C
  H9       1.0000 0.51180  0.51740  0.67800  Biso   1.000  H
  H10      1.0000 0.48820  0.48260  0.32200  Biso   1.000  H
  C9       1.0000 0.36050  0.66580  0.73330  Biso   1.000  C
  C10      1.0000 0.63950  0.33420  0.26670  Biso   1.000  C
  C11      1.0000 0.20130  0.62960  0.95110  Biso   1.000  C
  C12      1.0000 0.79870  0.37040  0.04890  Biso   1.000  C
  C13      1.0000 0.19200  0.53580  0.06190  Biso   1.000  C
  C14      1.0000 0.80800  0.46420  0.93810  Biso   1.000  C
  H11      1.0000 0.23480  0.45320  0.06390  Biso   1.000  H
  H12      1.0000 0.76520  0.54680  0.93610  Biso   1.000  H
  C15      1.0000 0.11890  0.56640  0.16850  Biso   1.000  C
  C16      1.0000 0.88110  0.43360  0.83150  Biso   1.000  C
  H13      1.0000 0.11060  0.50490  0.24360  Biso   1.000  H
  H14      1.0000 0.88940  0.49510  0.75640  Biso   1.000  H
  C17      1.0000 0.05780  0.69030  0.16240  Biso   1.000  C
  C18      1.0000 0.94220  0.30970  0.83760  Biso   1.000  C
  H15      1.0000 0.01190  0.71360  0.23350  Biso   1.000  H
  H16      1.0000 0.98810  0.28640  0.76650  Biso   1.000  H
  C19      1.0000 0.06580  0.77670  0.05200  Biso   1.000  C
  C20      1.0000 0.93420  0.22330  0.94800  Biso   1.000  C
  H17      1.0000 0.02220  0.85960  0.04880  Biso   1.000  H
  H18      1.0000 0.97780  0.14040  0.95120  Biso   1.000  H
  C21      1.0000 0.70780  0.03460  0.86010  Biso   1.000  C
  C22      1.0000 0.29220  0.96540  0.13990  Biso   1.000  C
  C23      1.0000 0.52450  0.10450  0.85280  Biso   1.000  C
  C24      1.0000 0.47550  0.89550  0.14720  Biso   1.000  C
  C25      1.0000 0.38950  0.04960  0.83630  Biso   1.000  C
  C26      1.0000 0.61050  0.95040  0.16370  Biso   1.000  C
  C27      1.0000 0.47250  0.22470  0.86610  Biso   1.000  C
  C28      1.0000 0.52750  0.77530  0.13390  Biso   1.000  C
  C29      1.0000 0.02620  0.10890  0.56000  Biso   1.000  C
  C30      1.0000 0.97380  0.89110  0.44000  Biso   1.000  C
  C31      1.0000 0.00300  0.22210  0.47160  Biso   1.000  C
  C32      1.0000 0.99700  0.77790  0.52840  Biso   1.000  C
  C33      1.0000 0.08830  0.23360  0.34930  Biso   1.000  C
  C34      1.0000 0.91170  0.76640  0.65070  Biso   1.000  C
  C35      1.0000 0.90020  0.32610  0.50870  Biso   1.000  C
  C36      1.0000 0.09980  0.67390  0.49130  Biso   1.000  C
