data_image0
_cell_length_a       13.597
_cell_length_b       15.9
_cell_length_c       17.489
_cell_angle_alpha    95.297
_cell_angle_beta     100.923
_cell_angle_gamma    103.237

_symmetry_space_group_name_H-M    "P 1"
_symmetry_int_tables_number       1

loop_
  _symmetry_equiv_pos_as_xyz
  'x, y, z'

loop_
  _atom_site_label
  _atom_site_occupancy
  _atom_site_fract_x
  _atom_site_fract_y
  _atom_site_fract_z
  _atom_site_thermal_displace_type
  _atom_site_B_iso_or_equiv
  _atom_site_type_symbol
  Cu1      1.0000 0.36140  0.44531  0.63532  Biso   1.000  Cu
  Cu2      1.0000 0.63860  0.55469  0.36468  Biso   1.000  Cu
  Cu3      1.0000 0.18440  0.60041  0.39655  Biso   1.000  Cu
  Cu4      1.0000 0.81560  0.39959  0.60345  Biso   1.000  Cu
  Cu5      1.0000 0.24070  0.97067  0.97708  Biso   1.000  Cu
  Cu6      1.0000 0.75930  0.02933  0.02292  Biso   1.000  Cu
  Sm1      1.0000 0.32193  0.16737  0.51626  Biso   1.000  Sm
  Sm2      1.0000 0.67807  0.83263  0.48374  Biso   1.000  Sm
  Sm3      1.0000 0.24694  0.80146  0.61333  Biso   1.000  Sm
  Sm4      1.0000 0.75306  0.19854  0.38667  Biso   1.000  Sm
  Sm5      1.0000 0.34251  0.21006  0.15991  Biso   1.000  Sm
  Sm6      1.0000 0.65749  0.78994  0.84009  Biso   1.000  Sm
  Sm7      1.0000 0.95726  0.37153  0.14139  Biso   1.000  Sm
  Sm8      1.0000 0.04274  0.62847  0.85861  Biso   1.000  Sm
  C1       1.0000 0.33800  0.26580  0.35040  Biso   1.000  C
  C2       1.0000 0.66200  0.73420  0.64960  Biso   1.000  C
  C3       1.0000 0.34520  0.33930  0.41290  Biso   1.000  C
  C4       1.0000 0.65480  0.66070  0.58710  Biso   1.000  C
  C5       1.0000 0.36350  0.42820  0.40970  Biso   1.000  C
  C6       1.0000 0.63650  0.57180  0.59030  Biso   1.000  C
  C7       1.0000 0.37140  0.46770  0.48300  Biso   1.000  C
  C8       1.0000 0.62860  0.53230  0.51700  Biso   1.000  C
  C9       1.0000 0.38780  0.55470  0.52670  Biso   1.000  C
  C10      1.0000 0.61220  0.44530  0.47330  Biso   1.000  C
  C11      1.0000 0.32000  0.43440  0.78440  Biso   1.000  C
  C12      1.0000 0.68000  0.56560  0.21560  Biso   1.000  C
  C13      1.0000 0.29790  0.34220  0.74200  Biso   1.000  C
  C14      1.0000 0.70210  0.65780  0.25800  Biso   1.000  C
  C15      1.0000 0.24040  0.25850  0.75300  Biso   1.000  C
  C16      1.0000 0.75960  0.74150  0.24700  Biso   1.000  C
  C17      1.0000 0.23990  0.20250  0.68730  Biso   1.000  C
  C18      1.0000 0.76010  0.79750  0.31270  Biso   1.000  C
  C19      1.0000 0.19500  0.10880  0.65290  Biso   1.000  C
  C20      1.0000 0.80500  0.89120  0.34710  Biso   1.000  C
  C21      1.0000 0.30500  0.94560  0.49620  Biso   1.000  C
  C22      1.0000 0.69500  0.05440  0.50380  Biso   1.000  C
  C23      1.0000 0.28460  0.86470  0.43920  Biso   1.000  C
  C24      1.0000 0.71540  0.13530  0.56080  Biso   1.000  C
  C25      1.0000 0.28610  0.84760  0.36130  Biso   1.000  C
  C26      1.0000 0.71390  0.15240  0.63870  Biso   1.000  C
  C27      1.0000 0.24990  0.75710  0.34660  Biso   1.000  C
  C28      1.0000 0.75010  0.24290  0.65340  Biso   1.000  C
  C29      1.0000 0.22780  0.69490  0.27480  Biso   1.000  C
  C30      1.0000 0.77220  0.30510  0.72520  Biso   1.000  C
  C31      1.0000 0.11380  0.43630  0.43830  Biso   1.000  C
  C32      1.0000 0.88620  0.56370  0.56170  Biso   1.000  C
  C33      1.0000 0.13230  0.50280  0.50900  Biso   1.000  C
  C34      1.0000 0.86770  0.49720  0.49100  Biso   1.000  C
  C35      1.0000 0.11380  0.49810  0.58720  Biso   1.000  C
  C36      1.0000 0.88620  0.50190  0.41280  Biso   1.000  C
  C37      1.0000 0.14800  0.58830  0.62170  Biso   1.000  C
  C38      1.0000 0.85200  0.41170  0.37830  Biso   1.000  C
  C39      1.0000 0.14850  0.63290  0.69550  Biso   1.000  C
  C40      1.0000 0.85150  0.36710  0.30450  Biso   1.000  C
  C41      1.0000 0.54290  0.12750  0.22960  Biso   1.000  C
  C42      1.0000 0.45710  0.87250  0.77040  Biso   1.000  C
  C43      1.0000 0.48790  0.06190  0.15870  Biso   1.000  C
  C44      1.0000 0.51210  0.93810  0.84130  Biso   1.000  C
  C45      1.0000 0.50740  0.98740  0.12310  Biso   1.000  C
  C46      1.0000 0.49260  0.01260  0.87690  Biso   1.000  C
  C47      1.0000 0.42560  0.95480  0.06400  Biso   1.000  C
  C48      1.0000 0.57440  0.04520  0.93600  Biso   1.000  C
  C49      1.0000 0.38890  0.87680  0.00120  Biso   1.000  C
  C50      1.0000 0.61110  0.12320  0.99880  Biso   1.000  C
  C51      1.0000 0.04980  0.97360  0.88410  Biso   1.000  C
  C52      1.0000 0.95020  0.02640  0.11590  Biso   1.000  C
  C53      1.0000 0.08020  0.04890  0.94440  Biso   1.000  C
  C54      1.0000 0.91980  0.95110  0.05560  Biso   1.000  C
  C55      1.0000 0.03810  0.11930  0.96550  Biso   1.000  C
  C56      1.0000 0.96190  0.88070  0.03450  Biso   1.000  C
  C57      1.0000 0.11140  0.16960  0.03130  Biso   1.000  C
  C58      1.0000 0.88860  0.83040  0.96870  Biso   1.000  C
  C59      1.0000 0.11420  0.24860  0.08300  Biso   1.000  C
  C60      1.0000 0.88580  0.75140  0.91700  Biso   1.000  C
  I1       1.0000 0.38280  0.49707  0.31341  Biso   1.000  I
  I2       1.0000 0.61720  0.50293  0.68659  Biso   1.000  I
  I3       1.0000 0.18398  0.22240  0.84683  Biso   1.000  I
  I4       1.0000 0.81602  0.77760  0.15317  Biso   1.000  I
  I5       1.0000 0.32952  0.93397  0.28535  Biso   1.000  I
  I6       1.0000 0.67048  0.06603  0.71465  Biso   1.000  I
  I7       1.0000 0.06260  0.39108  0.63819  Biso   1.000  I
  I8       1.0000 0.93740  0.60892  0.36181  Biso   1.000  I
  I9       1.0000 0.63525  0.93912  0.16046  Biso   1.000  I
  I10      1.0000 0.36475  0.06088  0.83954  Biso   1.000  I
  I11      1.0000 0.90097  0.14182  0.90879  Biso   1.000  I
  I12      1.0000 0.09903  0.85818  0.09121  Biso   1.000  I
  N1       1.0000 0.34080  0.32460  0.48480  Biso   1.000  N
  N2       1.0000 0.65920  0.67540  0.51520  Biso   1.000  N
  N3       1.0000 0.35960  0.40380  0.53000  Biso   1.000  N
  N4       1.0000 0.64040  0.59620  0.47000  Biso   1.000  N
  N5       1.0000 0.32310  0.33440  0.67040  Biso   1.000  N
  N6       1.0000 0.67690  0.66560  0.32960  Biso   1.000  N
  N7       1.0000 0.28550  0.25280  0.63550  Biso   1.000  N
  N8       1.0000 0.71450  0.74720  0.36450  Biso   1.000  N
  N9       1.0000 0.25580  0.78950  0.46890  Biso   1.000  N
  N10      1.0000 0.74420  0.21050  0.53110  Biso   1.000  N
  N11      1.0000 0.23480  0.72300  0.41130  Biso   1.000  N
  N12      1.0000 0.76520  0.27700  0.58870  Biso   1.000  N
  N13      1.0000 0.16940  0.58570  0.50020  Biso   1.000  N
  N14      1.0000 0.83060  0.41430  0.49980  Biso   1.000  N
  N15      1.0000 0.17900  0.63670  0.56600  Biso   1.000  N
  N16      1.0000 0.82100  0.36330  0.43400  Biso   1.000  N
  N17      1.0000 0.39530  0.07570  0.11810  Biso   1.000  N
  N18      1.0000 0.60470  0.92430  0.88190  Biso   1.000  N
  N19      1.0000 0.36330  0.01070  0.06080  Biso   1.000  N
  N20      1.0000 0.63670  0.98930  0.93920  Biso   1.000  N
  N21      1.0000 0.17130  0.06200  0.99470  Biso   1.000  N
  N22      1.0000 0.82870  0.93800  0.00530  Biso   1.000  N
  N23      1.0000 0.19300  0.12990  0.04840  Biso   1.000  N
  N24      1.0000 0.80700  0.87010  0.95160  Biso   1.000  N
  O1       1.0000 0.34110  0.27770  0.28480  Biso   1.000  O
  O2       1.0000 0.65890  0.72230  0.71520  Biso   1.000  O
  O3       1.0000 0.31140  0.18990  0.37370  Biso   1.000  O
  O4       1.0000 0.68860  0.81010  0.62630  Biso   1.000  O
  O5       1.0000 0.40230  0.62180  0.49150  Biso   1.000  O
  O6       1.0000 0.59770  0.37820  0.50850  Biso   1.000  O
  O7       1.0000 0.38970  0.55910  0.59750  Biso   1.000  O
  O8       1.0000 0.61030  0.44090  0.40250  Biso   1.000  O
  O9       1.0000 0.35410  0.49000  0.74060  Biso   1.000  O
  O10      1.0000 0.64590  0.51000  0.25940  Biso   1.000  O
  O11      1.0000 0.30120  0.44390  0.84560  Biso   1.000  O
  O12      1.0000 0.69880  0.55610  0.15440  Biso   1.000  O
  O13      1.0000 0.15950  0.06100  0.69950  Biso   1.000  O
  O14      1.0000 0.84050  0.93900  0.30050  Biso   1.000  O
  O15      1.0000 0.19890  0.08690  0.58600  Biso   1.000  O
  O16      1.0000 0.80110  0.91310  0.41400  Biso   1.000  O
  O17      1.0000 0.49190  0.26820  0.59150  Biso   1.000  O
  O18      1.0000 0.50810  0.73180  0.40850  Biso   1.000  O
  H1       1.0000 0.47190  0.29650  0.62660  Biso   1.000  H
  H2       1.0000 0.52810  0.70350  0.37340  Biso   1.000  H
  H3       1.0000 0.54440  0.30200  0.58110  Biso   1.000  H
  H4       1.0000 0.45560  0.69800  0.41890  Biso   1.000  H
  O19      1.0000 0.14850  0.15010  0.44830  Biso   1.000  O
  O20      1.0000 0.85150  0.84990  0.55170  Biso   1.000  O
  H5       1.0000 0.14950  0.20380  0.44940  Biso   1.000  H
  H6       1.0000 0.85050  0.79620  0.55060  Biso   1.000  H
  H7       1.0000 0.11500  0.13030  0.48200  Biso   1.000  H
  H8       1.0000 0.88500  0.86970  0.51800  Biso   1.000  H
  O21      1.0000 0.47350  0.13290  0.46910  Biso   1.000  O
  O22      1.0000 0.52650  0.86710  0.53090  Biso   1.000  O
  H9       1.0000 0.53260  0.14470  0.45750  Biso   1.000  H
  H10      1.0000 0.46740  0.85530  0.54250  Biso   1.000  H
  H11      1.0000 0.43190  0.09690  0.43150  Biso   1.000  H
  H12      1.0000 0.56810  0.90310  0.56850  Biso   1.000  H
  O23      1.0000 0.41290  0.10600  0.62540  Biso   1.000  O
  O24      1.0000 0.58710  0.89400  0.37460  Biso   1.000  O
  H13      1.0000 0.37800  0.05550  0.62920  Biso   1.000  H
  H14      1.0000 0.62200  0.94450  0.37080  Biso   1.000  H
  H15      1.0000 0.47660  0.10680  0.63820  Biso   1.000  H
  H16      1.0000 0.52340  0.89320  0.36180  Biso   1.000  H
  O25      1.0000 0.30910  0.01910  0.47050  Biso   1.000  O
  O26      1.0000 0.69090  0.98090  0.52950  Biso   1.000  O
  O27      1.0000 0.31040  0.93540  0.56720  Biso   1.000  O
  O28      1.0000 0.68960  0.06460  0.43280  Biso   1.000  O
  O29      1.0000 0.23810  0.70930  0.20800  Biso   1.000  O
  O30      1.0000 0.76190  0.29070  0.79200  Biso   1.000  O
  O31      1.0000 0.18980  0.61410  0.28770  Biso   1.000  O
  O32      1.0000 0.81020  0.38590  0.71230  Biso   1.000  O
  O33      1.0000 0.13680  0.47310  0.37930  Biso   1.000  O
  O34      1.0000 0.86320  0.52690  0.62070  Biso   1.000  O
  O35      1.0000 0.08350  0.35950  0.43850  Biso   1.000  O
  O36      1.0000 0.91650  0.64050  0.56150  Biso   1.000  O
  O37      1.0000 0.19040  0.71350  0.71020  Biso   1.000  O
  O38      1.0000 0.80960  0.28650  0.28980  Biso   1.000  O
  O39      1.0000 0.10650  0.59680  0.74760  Biso   1.000  O
  O40      1.0000 0.89350  0.40320  0.25240  Biso   1.000  O
  O41      1.0000 0.40390  0.75270  0.61500  Biso   1.000  O
  O42      1.0000 0.59610  0.24730  0.38500  Biso   1.000  O
  H17      1.0000 0.39480  0.70380  0.58690  Biso   1.000  H
  H18      1.0000 0.60520  0.29620  0.41310  Biso   1.000  H
  H19      1.0000 0.43790  0.75020  0.66050  Biso   1.000  H
  H20      1.0000 0.56210  0.24980  0.33950  Biso   1.000  H
  O43      1.0000 0.06890  0.77770  0.54040  Biso   1.000  O
  O44      1.0000 0.93110  0.22230  0.45960  Biso   1.000  O
  H21      1.0000 0.03240  0.76210  0.57360  Biso   1.000  H
  H22      1.0000 0.96760  0.23790  0.42640  Biso   1.000  H
  H23      1.0000 0.06350  0.73270  0.50810  Biso   1.000  H
  H24      1.0000 0.93650  0.26730  0.49190  Biso   1.000  H
  O45      1.0000 0.15970  0.89130  0.68000  Biso   1.000  O
  O46      1.0000 0.84030  0.10870  0.32000  Biso   1.000  O
  H25      1.0000 0.17000  0.94260  0.70390  Biso   1.000  H
  H26      1.0000 0.83000  0.05740  0.29610  Biso   1.000  H
  H27      1.0000 0.13670  0.85560  0.70970  Biso   1.000  H
  H28      1.0000 0.86330  0.14440  0.29030  Biso   1.000  H
  O47      1.0000 0.62210  0.12180  0.27250  Biso   1.000  O
  O48      1.0000 0.37790  0.87820  0.72750  Biso   1.000  O
  O49      1.0000 0.49630  0.18880  0.24080  Biso   1.000  O
  O50      1.0000 0.50370  0.81120  0.75920  Biso   1.000  O
  O51      1.0000 0.43540  0.82000  0.99580  Biso   1.000  O
  O52      1.0000 0.56460  0.18000  0.00420  Biso   1.000  O
  O53      1.0000 0.30150  0.87130  0.95580  Biso   1.000  O
  O54      1.0000 0.69850  0.12870  0.04420  Biso   1.000  O
  O55      1.0000 0.11710  0.92820  0.89050  Biso   1.000  O
  O56      1.0000 0.88290  0.07180  0.10950  Biso   1.000  O
  O57      1.0000 0.97340  0.95550  0.83120  Biso   1.000  O
  O58      1.0000 0.02660  0.04450  0.16880  Biso   1.000  O
  O59      1.0000 0.20120  0.27960  0.13120  Biso   1.000  O
  O60      1.0000 0.79880  0.72040  0.86880  Biso   1.000  O
  O61      1.0000 0.03980  0.28360  0.07810  Biso   1.000  O
  O62      1.0000 0.96020  0.71640  0.92190  Biso   1.000  O
  O63      1.0000 0.40120  0.23510  0.04160  Biso   1.000  O
  O64      1.0000 0.59880  0.76490  0.95840  Biso   1.000  O
  H29      1.0000 0.42250  0.20900  0.00590  Biso   1.000  H
  H30      1.0000 0.57750  0.79100  0.99410  Biso   1.000  H
  H31      1.0000 0.35360  0.25680  0.01910  Biso   1.000  H
  H32      1.0000 0.64640  0.74320  0.98090  Biso   1.000  H
  O65      1.0000 0.23740  0.10200  0.21890  Biso   1.000  O
  O66      1.0000 0.76260  0.89800  0.78110  Biso   1.000  O
  H33      1.0000 0.25040  0.10550  0.26880  Biso   1.000  H
  H34      1.0000 0.74960  0.89450  0.73120  Biso   1.000  H
  H35      1.0000 0.18300  0.06110  0.20090  Biso   1.000  H
  H36      1.0000 0.81700  0.93890  0.79910  Biso   1.000  H
  O67      1.0000 0.46070  0.35300  0.17510  Biso   1.000  O
  O68      1.0000 0.53930  0.64700  0.82490  Biso   1.000  O
  H37      1.0000 0.52340  0.35170  0.19070  Biso   1.000  H
  H38      1.0000 0.47660  0.64830  0.80930  Biso   1.000  H
  H39      1.0000 0.45210  0.39850  0.19980  Biso   1.000  H
  H40      1.0000 0.54790  0.60150  0.80020  Biso   1.000  H
  O69      1.0000 0.78800  0.30370  0.06530  Biso   1.000  O
  O70      1.0000 0.21200  0.69630  0.93470  Biso   1.000  O
  H41      1.0000 0.73730  0.25870  0.05510  Biso   1.000  H
  H42      1.0000 0.26270  0.74130  0.94490  Biso   1.000  H
  H43      1.0000 0.77390  0.34130  0.09640  Biso   1.000  H
  H44      1.0000 0.22610  0.65870  0.90360  Biso   1.000  H
  O71      1.0000 0.95880  0.40990  0.00520  Biso   1.000  O
  O72      1.0000 0.04120  0.59010  0.99480  Biso   1.000  O
  H45      1.0000 0.93900  0.35510  0.00450  Biso   1.000  H
  H46      1.0000 0.06100  0.64490  0.99550  Biso   1.000  H
  H47      1.0000 0.92810  0.42220  0.96230  Biso   1.000  H
  H48      1.0000 0.07190  0.57780  0.03770  Biso   1.000  H
  O73      1.0000 0.87480  0.49140  0.11990  Biso   1.000  O
  O74      1.0000 0.12520  0.50860  0.88010  Biso   1.000  O
  H49      1.0000 0.85720  0.51860  0.15710  Biso   1.000  H
  H50      1.0000 0.14280  0.48140  0.84290  Biso   1.000  H
  H51      1.0000 0.93460  0.48430  0.13770  Biso   1.000  H
  H52      1.0000 0.06540  0.51570  0.86230  Biso   1.000  H
  O75      1.0000 0.10300  0.49560  0.15280  Biso   1.000  O
  O76      1.0000 0.89700  0.50440  0.84720  Biso   1.000  O
  H53      1.0000 0.12630  0.45100  0.15970  Biso   1.000  H
  H54      1.0000 0.87370  0.54900  0.84030  Biso   1.000  H
  H55      1.0000 0.13270  0.53450  0.19220  Biso   1.000  H
  H56      1.0000 0.86730  0.46550  0.80780  Biso   1.000  H
  O77      1.0000 0.10010  0.35800  0.24820  Biso   1.000  O
  O78      1.0000 0.89990  0.64200  0.75180  Biso   1.000  O
  H57      1.0000 0.14040  0.33090  0.27260  Biso   1.000  H
  H58      1.0000 0.85960  0.66910  0.72740  Biso   1.000  H
  H59      1.0000 0.06090  0.36940  0.27810  Biso   1.000  H
  H60      1.0000 0.93910  0.63060  0.72190  Biso   1.000  H
  O79      1.0000 0.90110  0.23140  0.17980  Biso   1.000  O
  O80      1.0000 0.09890  0.76860  0.82020  Biso   1.000  O
  H61      1.0000 0.84470  0.23880  0.19000  Biso   1.000  H
  H62      1.0000 0.15530  0.76120  0.81000  Biso   1.000  H
  H63      1.0000 0.88610  0.18740  0.14440  Biso   1.000  H
  H64      1.0000 0.11390  0.81260  0.85560  Biso   1.000  H
  O81      1.0000 0.40000  0.61780  0.91630  Biso   1.000  O
  O82      1.0000 0.60000  0.38220  0.08370  Biso   1.000  O
  H65      1.0000 0.41520  0.63530  0.96550  Biso   1.000  H
  H66      1.0000 0.58480  0.36470  0.03450  Biso   1.000  H
  H67      1.0000 0.36970  0.56380  0.90920  Biso   1.000  H
  H68      1.0000 0.63030  0.43620  0.09080  Biso   1.000  H
  O83      1.0000 0.95150  0.82010  0.69720  Biso   1.000  O
  O84      1.0000 0.04850  0.17990  0.30280  Biso   1.000  O
  H69      1.0000 0.95220  0.86150  0.73180  Biso   1.000  H
  H70      1.0000 0.04780  0.13850  0.26820  Biso   1.000  H
  H71      1.0000 0.91050  0.82400  0.65520  Biso   1.000  H
  H72      1.0000 0.08950  0.17600  0.34480  Biso   1.000  H
  O85      1.0000 0.73800  0.37300  0.92600  Biso   1.000  O
  O86      1.0000 0.26200  0.62700  0.07400  Biso   1.000  O
  H73      1.0000 0.69810  0.33330  0.94270  Biso   1.000  H
  H74      1.0000 0.30190  0.66670  0.05730  Biso   1.000  H
  H75      1.0000 0.74360  0.35330  0.88070  Biso   1.000  H
  H76      1.0000 0.25640  0.64670  0.11930  Biso   1.000  H
  O87      1.0000 0.94400  0.06730  0.66600  Biso   1.000  O
  O88      1.0000 0.05600  0.93270  0.33400  Biso   1.000  O
  H77      1.0000 0.99990  0.05320  0.68310  Biso   1.000  H
  H78      1.0000 0.00010  0.94680  0.31690  Biso   1.000  H
  H79      1.0000 0.89440  0.02190  0.65980  Biso   1.000  H
  H80      1.0000 0.10560  0.97810  0.34020  Biso   1.000  H
  O89      1.0000 0.60900  0.60100  0.01200  Biso   1.000  O
  O90      1.0000 0.39100  0.39900  0.98800  Biso   1.000  O
  H81      1.0000 0.64060  0.60670  0.05930  Biso   1.000  H
  H82      1.0000 0.35940  0.39330  0.94070  Biso   1.000  H
  H83      1.0000 0.54850  0.56810  0.00730  Biso   1.000  H
  H84      1.0000 0.45150  0.43190  0.99270  Biso   1.000  H
  O91      1.0000 0.47400  0.73990  0.24440  Biso   1.000  O
  O92      1.0000 0.52600  0.26010  0.75560  Biso   1.000  O
  H85      1.0000 0.41610  0.75340  0.23980  Biso   1.000  H
  H86      1.0000 0.58390  0.24660  0.76020  Biso   1.000  H
  H87      1.0000 0.48420  0.72990  0.19850  Biso   1.000  H
  H88      1.0000 0.51580  0.27010  0.80150  Biso   1.000  H
  O93      1.0000 0.04950  0.92910  0.50540  Biso   1.000  O
  O94      1.0000 0.95050  0.07090  0.49460  Biso   1.000  O
  H89      1.0000 0.08430  0.97220  0.53980  Biso   1.000  H
  H90      1.0000 0.91570  0.02780  0.46020  Biso   1.000  H
  H91      1.0000 0.09080  0.89950  0.49420  Biso   1.000  H
  H92      1.0000 0.90920  0.10050  0.50580  Biso   1.000  H
  O95      1.0000 0.84800  0.58700  0.03700  Biso   1.000  O
  O96      1.0000 0.15200  0.41300  0.96300  Biso   1.000  O
  H93      1.0000 0.86370  0.64210  0.04700  Biso   1.000  H
  H94      1.0000 0.13630  0.35790  0.95300  Biso   1.000  H
  H95      1.0000 0.86810  0.57330  0.99530  Biso   1.000  H
  H96      1.0000 0.13190  0.42670  0.00470  Biso   1.000  H
  O97      1.0000 0.72500  0.52700  0.92000  Biso   1.000  O
  O98      1.0000 0.27500  0.47300  0.08000  Biso   1.000  O
  H97      1.0000 0.66930  0.48920  0.92030  Biso   1.000  H
  H98      1.0000 0.33070  0.51080  0.07970  Biso   1.000  H
  H99      1.0000 0.70780  0.56910  0.89900  Biso   1.000  H
  H100     1.0000 0.29220  0.43090  0.10100  Biso   1.000  H
