data_image0
_cell_length_a       13.512
_cell_length_b       15.939
_cell_length_c       17.575
_cell_angle_alpha    95.204
_cell_angle_beta     100.982
_cell_angle_gamma    103.946

_symmetry_space_group_name_H-M    "P 1"
_symmetry_int_tables_number       1

loop_
  _symmetry_equiv_pos_as_xyz
  'x, y, z'

loop_
  _atom_site_label
  _atom_site_occupancy
  _atom_site_fract_x
  _atom_site_fract_y
  _atom_site_fract_z
  _atom_site_thermal_displace_type
  _atom_site_B_iso_or_equiv
  _atom_site_type_symbol
  Cu1      1.0000 0.68451  0.09907  0.89685  Biso   1.000  Cu
  Cu2      1.0000 0.31549  0.90093  0.10315  Biso   1.000  Cu
  Cu3      1.0000 0.86179  0.94219  0.13601  Biso   1.000  Cu
  Cu4      1.0000 0.13821  0.05781  0.86399  Biso   1.000  Cu
  Cu5      1.0000 0.73914  0.47032  0.47829  Biso   1.000  Cu
  Cu6      1.0000 0.26086  0.52968  0.52171  Biso   1.000  Cu
  Tb1      1.0000 0.74684  0.29970  0.11147  Biso   1.000  Tb
  Tb2      1.0000 0.25316  0.70030  0.88853  Biso   1.000  Tb
  Tb3      1.0000 0.82297  0.66647  0.01731  Biso   1.000  Tb
  Tb4      1.0000 0.17703  0.33353  0.98269  Biso   1.000  Tb
  Tb5      1.0000 0.84245  0.70708  0.66306  Biso   1.000  Tb
  Tb6      1.0000 0.15755  0.29292  0.33694  Biso   1.000  Tb
  Tb7      1.0000 0.45946  0.86863  0.64492  Biso   1.000  Tb
  Tb8      1.0000 0.54054  0.13137  0.35508  Biso   1.000  Tb
  C1       1.0000 0.64780  0.13640  0.19690  Biso   1.000  C
  C2       1.0000 0.35220  0.86360  0.80310  Biso   1.000  C
  C3       1.0000 0.64530  0.08580  0.11920  Biso   1.000  C
  C4       1.0000 0.35470  0.91420  0.88080  Biso   1.000  C
  C5       1.0000 0.61660  0.99810  0.08790  Biso   1.000  C
  C6       1.0000 0.38340  0.00190  0.91210  Biso   1.000  C
  C7       1.0000 0.63120  0.00030  0.01080  Biso   1.000  C
  C8       1.0000 0.36880  0.99970  0.98920  Biso   1.000  C
  C9       1.0000 0.61520  0.93420  0.94080  Biso   1.000  C
  C10      1.0000 0.38480  0.06580  0.05920  Biso   1.000  C
  C11      1.0000 0.72740  0.19070  0.77390  Biso   1.000  C
  C12      1.0000 0.27260  0.80930  0.22610  Biso   1.000  C
  C13      1.0000 0.75180  0.25790  0.84390  Biso   1.000  C
  C14      1.0000 0.24820  0.74210  0.15610  Biso   1.000  C
  C15      1.0000 0.78150  0.34720  0.86020  Biso   1.000  C
  C16      1.0000 0.21850  0.65280  0.13980  Biso   1.000  C
  C17      1.0000 0.78270  0.36390  0.93970  Biso   1.000  C
  C18      1.0000 0.21730  0.63610  0.06030  Biso   1.000  C
  C19      1.0000 0.80120  0.44740  0.99440  Biso   1.000  C
  C20      1.0000 0.19880  0.55260  0.00560  Biso   1.000  C
  C21      1.0000 0.69470  0.60520  0.15260  Biso   1.000  C
  C22      1.0000 0.30530  0.39480  0.84740  Biso   1.000  C
  C23      1.0000 0.74130  0.69860  0.18280  Biso   1.000  C
  C24      1.0000 0.25870  0.30140  0.81720  Biso   1.000  C
  C25      1.0000 0.74350  0.75270  0.25030  Biso   1.000  C
  C26      1.0000 0.25650  0.24730  0.74970  Biso   1.000  C
  C27      1.0000 0.79650  0.83440  0.23860  Biso   1.000  C
  C28      1.0000 0.20350  0.16560  0.76140  Biso   1.000  C
  C29      1.0000 0.82030  0.92790  0.28140  Biso   1.000  C
  C30      1.0000 0.17970  0.07210  0.71860  Biso   1.000  C
  C31      1.0000 0.88730  0.05310  0.02550  Biso   1.000  C
  C32      1.0000 0.11270  0.94690  0.97450  Biso   1.000  C
  C33      1.0000 0.86980  0.96430  0.98350  Biso   1.000  C
  C34      1.0000 0.13020  0.03570  0.01650  Biso   1.000  C
  C35      1.0000 0.86410  0.92860  0.90780  Biso   1.000  C
  C36      1.0000 0.13590  0.07140  0.09220  Biso   1.000  C
  C37      1.0000 0.84460  0.83900  0.91250  Biso   1.000  C
  C38      1.0000 0.15540  0.16100  0.08750  Biso   1.000  C
  C39      1.0000 0.83290  0.75990  0.85320  Biso   1.000  C
  C40      1.0000 0.16710  0.24010  0.14680  Biso   1.000  C
  C41      1.0000 0.03950  0.62790  0.73210  Biso   1.000  C
  C42      1.0000 0.96050  0.37210  0.26790  Biso   1.000  C
  C43      1.0000 0.98910  0.56340  0.66250  Biso   1.000  C
  C44      1.0000 0.01090  0.43660  0.33750  Biso   1.000  C
  C45      1.0000 0.01060  0.48950  0.62810  Biso   1.000  C
  C46      1.0000 0.98940  0.51050  0.37190  Biso   1.000  C
  C47      1.0000 0.92670  0.45590  0.56400  Biso   1.000  C
  C48      1.0000 0.07330  0.54410  0.43600  Biso   1.000  C
  C49      1.0000 0.88980  0.37650  0.50420  Biso   1.000  C
  C50      1.0000 0.11020  0.62350  0.49580  Biso   1.000  C
  C51      1.0000 0.54900  0.47550  0.38230  Biso   1.000  C
  C52      1.0000 0.45100  0.52450  0.61770  Biso   1.000  C
  C53      1.0000 0.57880  0.55260  0.44790  Biso   1.000  C
  C54      1.0000 0.42120  0.44740  0.55210  Biso   1.000  C
  C55      1.0000 0.53990  0.62090  0.46870  Biso   1.000  C
  C56      1.0000 0.46010  0.37910  0.53130  Biso   1.000  C
  C57      1.0000 0.61110  0.66910  0.53530  Biso   1.000  C
  C58      1.0000 0.38890  0.33090  0.46470  Biso   1.000  C
  C59      1.0000 0.62210  0.74930  0.59000  Biso   1.000  C
  C60      1.0000 0.37790  0.25070  0.41000  Biso   1.000  C
  I1       1.0000 0.56275  0.89052  0.14005  Biso   1.000  I
  I2       1.0000 0.43725  0.10948  0.85995  Biso   1.000  I
  I3       1.0000 0.82200  0.43646  0.78626  Biso   1.000  I
  I4       1.0000 0.17800  0.56354  0.21374  Biso   1.000  I
  I5       1.0000 0.67870  0.71508  0.34341  Biso   1.000  I
  I6       1.0000 0.32130  0.28492  0.65659  Biso   1.000  I
  I7       1.0000 0.88073  0.99453  0.81406  Biso   1.000  I
  I8       1.0000 0.11927  0.00547  0.18594  Biso   1.000  I
  I9       1.0000 0.13738  0.44090  0.66221  Biso   1.000  I
  I10      1.0000 0.86262  0.55910  0.33779  Biso   1.000  I
  I11      1.0000 0.40346  0.64694  0.41040  Biso   1.000  I
  I12      1.0000 0.59654  0.35306  0.58960  Biso   1.000  I
  N1       1.0000 0.67770  0.13660  0.06670  Biso   1.000  N
  N2       1.0000 0.32230  0.86340  0.93330  Biso   1.000  N
  N3       1.0000 0.66810  0.08160  0.00160  Biso   1.000  N
  N4       1.0000 0.33190  0.91840  0.99840  Biso   1.000  N
  N5       1.0000 0.73810  0.22390  0.91130  Biso   1.000  N
  N6       1.0000 0.26190  0.77610  0.08870  Biso   1.000  N
  N7       1.0000 0.75610  0.28850  0.97140  Biso   1.000  N
  N8       1.0000 0.24390  0.71150  0.02860  Biso   1.000  N
  N9       1.0000 0.78990  0.74840  0.13560  Biso   1.000  N
  N10      1.0000 0.21010  0.25160  0.86440  Biso   1.000  N
  N11      1.0000 0.82350  0.83250  0.17020  Biso   1.000  N
  N12      1.0000 0.17650  0.16750  0.82980  Biso   1.000  N
  N13      1.0000 0.85570  0.90140  0.02760  Biso   1.000  N
  N14      1.0000 0.14430  0.09860  0.97240  Biso   1.000  N
  N15      1.0000 0.84030  0.82090  0.98570  Biso   1.000  N
  N16      1.0000 0.15970  0.17910  0.01430  Biso   1.000  N
  N17      1.0000 0.89810  0.57650  0.62090  Biso   1.000  N
  N18      1.0000 0.10190  0.42350  0.37910  Biso   1.000  N
  N19      1.0000 0.86090  0.50940  0.56140  Biso   1.000  N
  N20      1.0000 0.13910  0.49060  0.43860  Biso   1.000  N
  N21      1.0000 0.67180  0.55970  0.49910  Biso   1.000  N
  N22      1.0000 0.32820  0.44030  0.50090  Biso   1.000  N
  N23      1.0000 0.69060  0.63020  0.55420  Biso   1.000  N
  N24      1.0000 0.30940  0.36980  0.44580  Biso   1.000  N
  O1       1.0000 0.60170  0.09640  0.24430  Biso   1.000  O
  O2       1.0000 0.39830  0.90360  0.75570  Biso   1.000  O
  O3       1.0000 0.69030  0.21650  0.20530  Biso   1.000  O
  O4       1.0000 0.30970  0.78350  0.79470  Biso   1.000  O
  O5       1.0000 0.58490  0.85730  0.93900  Biso   1.000  O
  O6       1.0000 0.41510  0.14270  0.06100  Biso   1.000  O
  O7       1.0000 0.63690  0.97170  0.88130  Biso   1.000  O
  O8       1.0000 0.36310  0.02830  0.11870  Biso   1.000  O
  O9       1.0000 0.68980  0.11260  0.78530  Biso   1.000  O
  O10      1.0000 0.31020  0.88740  0.21470  Biso   1.000  O
  O11      1.0000 0.74230  0.21290  0.71200  Biso   1.000  O
  O12      1.0000 0.25770  0.78710  0.28800  Biso   1.000  O
  O13      1.0000 0.80730  0.43460  0.06690  Biso   1.000  O
  O14      1.0000 0.19270  0.56540  0.93310  Biso   1.000  O
  O15      1.0000 0.80380  0.51720  0.97030  Biso   1.000  O
  O16      1.0000 0.19620  0.48280  0.02970  Biso   1.000  O
  O17      1.0000 0.57350  0.27330  0.04190  Biso   1.000  O
  O18      1.0000 0.42650  0.72670  0.95810  Biso   1.000  O
  H1       1.0000 0.54140  0.31160  0.02950  Biso   1.000  H
  H2       1.0000 0.45860  0.68840  0.97050  Biso   1.000  H
  H3       1.0000 0.52840  0.22420  0.03380  Biso   1.000  H
  H4       1.0000 0.47160  0.77580  0.96620  Biso   1.000  H
  O19      1.0000 0.89850  0.25020  0.11000  Biso   1.000  O
  O20      1.0000 0.10150  0.74980  0.89000  Biso   1.000  O
  H5       1.0000 0.95850  0.28340  0.11120  Biso   1.000  H
  H6       1.0000 0.04150  0.71660  0.88880  Biso   1.000  H
  H7       1.0000 0.89920  0.19820  0.09480  Biso   1.000  H
  H8       1.0000 0.10080  0.80180  0.90520  Biso   1.000  H
  O21      1.0000 0.66500  0.39080  0.18030  Biso   1.000  O
  O22      1.0000 0.33500  0.60920  0.81970  Biso   1.000  O
  H9       1.0000 0.66460  0.44330  0.19330  Biso   1.000  H
  H10      1.0000 0.33540  0.55670  0.80670  Biso   1.000  H
  H11      1.0000 0.64040  0.36080  0.21330  Biso   1.000  H
  H12      1.0000 0.35960  0.63920  0.78670  Biso   1.000  H
  O23      1.0000 0.97470  0.63250  0.97050  Biso   1.000  O
  O24      1.0000 0.02530  0.36750  0.02950  Biso   1.000  O
  H13      1.0000 0.03000  0.65230  0.95440  Biso   1.000  H
  H14      1.0000 0.97000  0.34770  0.04560  Biso   1.000  H
  H15      1.0000 0.96190  0.57720  0.96460  Biso   1.000  H
  H16      1.0000 0.03810  0.42280  0.03540  Biso   1.000  H
  O25      1.0000 0.91480  0.60620  0.12380  Biso   1.000  O
  O26      1.0000 0.08520  0.39380  0.87620  Biso   1.000  O
  H17      1.0000 0.89600  0.55090  0.12060  Biso   1.000  H
  H18      1.0000 0.10400  0.44910  0.87940  Biso   1.000  H
  H19      1.0000 0.98110  0.62230  0.13750  Biso   1.000  H
  H20      1.0000 0.01890  0.37770  0.86250  Biso   1.000  H
  O27      1.0000 0.99110  0.76580  0.08820  Biso   1.000  O
  O28      1.0000 0.00890  0.23420  0.91180  Biso   1.000  O
  H21      1.0000 0.03080  0.80710  0.07210  Biso   1.000  H
  H22      1.0000 0.96920  0.19290  0.92790  Biso   1.000  H
  H23      1.0000 0.97170  0.78790  0.12680  Biso   1.000  H
  H24      1.0000 0.02830  0.21210  0.87320  Biso   1.000  H
  O29      1.0000 0.64820  0.64580  0.95140  Biso   1.000  O
  O30      1.0000 0.35180  0.35420  0.04860  Biso   1.000  O
  H25      1.0000 0.63460  0.69160  0.93590  Biso   1.000  H
  H26      1.0000 0.36540  0.30840  0.06410  Biso   1.000  H
  H27      1.0000 0.60740  0.62760  0.98110  Biso   1.000  H
  H28      1.0000 0.39260  0.37240  0.01890  Biso   1.000  H
  O31      1.0000 0.70170  0.58140  0.08330  Biso   1.000  O
  O32      1.0000 0.29830  0.41860  0.91670  Biso   1.000  O
  O33      1.0000 0.65590  0.55720  0.19700  Biso   1.000  O
  O34      1.0000 0.34410  0.44280  0.80300  Biso   1.000  O
  O35      1.0000 0.80240  0.94020  0.34750  Biso   1.000  O
  O36      1.0000 0.19760  0.05980  0.65250  Biso   1.000  O
  O37      1.0000 0.85690  0.98530  0.24320  Biso   1.000  O
  O38      1.0000 0.14310  0.01470  0.75680  Biso   1.000  O
  O39      1.0000 0.88860  0.05600  0.09940  Biso   1.000  O
  O40      1.0000 0.11140  0.94400  0.90060  Biso   1.000  O
  O41      1.0000 0.89930  0.11780  0.99220  Biso   1.000  O
  O42      1.0000 0.10070  0.88220  0.00780  Biso   1.000  O
  O43      1.0000 0.81490  0.68670  0.87700  Biso   1.000  O
  O44      1.0000 0.18510  0.31330  0.12300  Biso   1.000  O
  O45      1.0000 0.84310  0.77380  0.78620  Biso   1.000  O
  O46      1.0000 0.15690  0.22620  0.21380  Biso   1.000  O
  O47      1.0000 0.12340  0.62310  0.77680  Biso   1.000  O
  O48      1.0000 0.87660  0.37690  0.22320  Biso   1.000  O
  O49      1.0000 0.99610  0.68880  0.74420  Biso   1.000  O
  O50      1.0000 0.00390  0.31120  0.25580  Biso   1.000  O
  O51      1.0000 0.93970  0.32320  0.49950  Biso   1.000  O
  O52      1.0000 0.06030  0.67680  0.50050  Biso   1.000  O
  O53      1.0000 0.80040  0.37310  0.45710  Biso   1.000  O
  O54      1.0000 0.19960  0.62690  0.54290  Biso   1.000  O
  O55      1.0000 0.61800  0.42980  0.39050  Biso   1.000  O
  O56      1.0000 0.38200  0.57020  0.60950  Biso   1.000  O
  O57      1.0000 0.47270  0.46110  0.32970  Biso   1.000  O
  O58      1.0000 0.52730  0.53890  0.67030  Biso   1.000  O
  O59      1.0000 0.70470  0.77850  0.63890  Biso   1.000  O
  O60      1.0000 0.29530  0.22150  0.36110  Biso   1.000  O
  O61      1.0000 0.54530  0.78340  0.58230  Biso   1.000  O
  O62      1.0000 0.45470  0.21660  0.41770  Biso   1.000  O
  O63      1.0000 0.90050  0.73380  0.54570  Biso   1.000  O
  O64      1.0000 0.09950  0.26620  0.45430  Biso   1.000  O
  H29      1.0000 0.85050  0.72320  0.50570  Biso   1.000  H
  H30      1.0000 0.14950  0.27680  0.49430  Biso   1.000  H
  H31      1.0000 0.94720  0.71100  0.53380  Biso   1.000  H
  H32      1.0000 0.05280  0.28900  0.46620  Biso   1.000  H
  O65      1.0000 0.95830  0.84990  0.67710  Biso   1.000  O
  O66      1.0000 0.04170  0.15010  0.32290  Biso   1.000  O
  H33      1.0000 0.95050  0.89250  0.70600  Biso   1.000  H
  H34      1.0000 0.04950  0.10750  0.29400  Biso   1.000  H
  H35      1.0000 0.01210  0.83610  0.70030  Biso   1.000  H
  H36      1.0000 0.98790  0.16390  0.29970  Biso   1.000  H
  O67      1.0000 0.73850  0.60350  0.72230  Biso   1.000  O
  O68      1.0000 0.26150  0.39650  0.27770  Biso   1.000  O
  H37      1.0000 0.75290  0.56400  0.74850  Biso   1.000  H
  H38      1.0000 0.24710  0.43600  0.25150  Biso   1.000  H
  H39      1.0000 0.68380  0.58000  0.68700  Biso   1.000  H
  H40      1.0000 0.31620  0.42000  0.31300  Biso   1.000  H
  O69      1.0000 0.39870  0.73040  0.67950  Biso   1.000  O
  O70      1.0000 0.60130  0.26960  0.32050  Biso   1.000  O
  H41      1.0000 0.36480  0.73640  0.71480  Biso   1.000  H
  H42      1.0000 0.63520  0.26360  0.28520  Biso   1.000  H
  H43      1.0000 0.37300  0.67900  0.65470  Biso   1.000  H
  H44      1.0000 0.62700  0.32100  0.34530  Biso   1.000  H
  O71      1.0000 0.59620  0.85270  0.74980  Biso   1.000  O
  O72      1.0000 0.40380  0.14730  0.25020  Biso   1.000  O
  H45      1.0000 0.62150  0.88910  0.79150  Biso   1.000  H
  H46      1.0000 0.37850  0.11090  0.20850  Biso   1.000  H
  H47      1.0000 0.63670  0.81970  0.74740  Biso   1.000  H
  H48      1.0000 0.36330  0.18030  0.25260  Biso   1.000  H
  O73      1.0000 0.60410  0.98910  0.65750  Biso   1.000  O
  O74      1.0000 0.39590  0.01090  0.34250  Biso   1.000  O
  H49      1.0000 0.63580  0.02590  0.69800  Biso   1.000  H
  H50      1.0000 0.36420  0.97410  0.30200  Biso   1.000  H
  H51      1.0000 0.64040  0.99760  0.62300  Biso   1.000  H
  H52      1.0000 0.35960  0.00240  0.37700  Biso   1.000  H
  O75      1.0000 0.38430  0.98950  0.63160  Biso   1.000  O
  O76      1.0000 0.61570  0.01050  0.36840  Biso   1.000  O
  H53      1.0000 0.36780  0.00810  0.67310  Biso   1.000  H
  H54      1.0000 0.63220  0.99190  0.32690  Biso   1.000  H
  H55      1.0000 0.44120  0.02450  0.62820  Biso   1.000  H
  H56      1.0000 0.55880  0.97550  0.37180  Biso   1.000  H
  O77      1.0000 0.28760  0.80490  0.57220  Biso   1.000  O
  O78      1.0000 0.71240  0.19510  0.42780  Biso   1.000  O
  H57      1.0000 0.23920  0.75780  0.55720  Biso   1.000  H
  H58      1.0000 0.76080  0.24220  0.44280  Biso   1.000  H
  H59      1.0000 0.26070  0.84720  0.56440  Biso   1.000  H
  H60      1.0000 0.73930  0.15280  0.43560  Biso   1.000  H
  O79      1.0000 0.46290  0.91000  0.51600  Biso   1.000  O
  O80      1.0000 0.53710  0.09000  0.48400  Biso   1.000  O
  H61      1.0000 0.47170  0.86840  0.48650  Biso   1.000  H
  H62      1.0000 0.52830  0.13160  0.51350  Biso   1.000  H
  H63      1.0000 0.41690  0.93040  0.48950  Biso   1.000  H
  H64      1.0000 0.58310  0.06960  0.51050  Biso   1.000  H
  O81      1.0000 0.02840  0.75250  0.25170  Biso   1.000  O
  O82      1.0000 0.97160  0.24750  0.74830  Biso   1.000  O
  H65      1.0000 0.09120  0.74890  0.25990  Biso   1.000  H
  H66      1.0000 0.90880  0.25110  0.74010  Biso   1.000  H
  H67      1.0000 0.00260  0.73410  0.28950  Biso   1.000  H
  H68      1.0000 0.99740  0.26590  0.71050  Biso   1.000  H
  O83      1.0000 0.65000  0.90700  0.46900  Biso   1.000  O
  O84      1.0000 0.35000  0.09300  0.53100  Biso   1.000  O
  H69      1.0000 0.66740  0.86580  0.44450  Biso   1.000  H
  H70      1.0000 0.33260  0.13420  0.55550  Biso   1.000  H
  H71      1.0000 0.69840  0.95350  0.47220  Biso   1.000  H
  H72      1.0000 0.30160  0.04650  0.52780  Biso   1.000  H
  O85      1.0000 0.91700  0.90360  0.48010  Biso   1.000  O
  O86      1.0000 0.08300  0.09640  0.51990  Biso   1.000  O
  H73      1.0000 0.88750  0.91590  0.43710  Biso   1.000  H
  H74      1.0000 0.11250  0.08410  0.56290  Biso   1.000  H
  H75      1.0000 0.96970  0.88620  0.47220  Biso   1.000  H
  H76      1.0000 0.03030  0.11380  0.52780  Biso   1.000  H
  O87      1.0000 0.44650  0.32490  0.19460  Biso   1.000  O
  O88      1.0000 0.55350  0.67510  0.80540  Biso   1.000  O
  H77      1.0000 0.50990  0.35250  0.19880  Biso   1.000  H
  H78      1.0000 0.49010  0.64750  0.80120  Biso   1.000  H
  H79      1.0000 0.42040  0.35460  0.22420  Biso   1.000  H
  H80      1.0000 0.57960  0.64540  0.77580  Biso   1.000  H
  O89      1.0000 0.19700  0.03000  0.40640  Biso   1.000  O
  O90      1.0000 0.80300  0.97000  0.59360  Biso   1.000  O
  H81      1.0000 0.13220  0.02510  0.40190  Biso   1.000  H
  H82      1.0000 0.86780  0.97490  0.59810  Biso   1.000  H
  H83      1.0000 0.22370  0.07820  0.39170  Biso   1.000  H
  H84      1.0000 0.77630  0.92180  0.60830  Biso   1.000  H
  O91      1.0000 0.89180  0.11690  0.41160  Biso   1.000  O
  O92      1.0000 0.10820  0.88310  0.58840  Biso   1.000  O
  H85      1.0000 0.86560  0.06250  0.39670  Biso   1.000  H
  H86      1.0000 0.13440  0.93750  0.60330  Biso   1.000  H
  H87      1.0000 0.89860  0.14120  0.37110  Biso   1.000  H
  H88      1.0000 0.10140  0.85880  0.62890  Biso   1.000  H
  O93      1.0000 0.75320  0.13490  0.57350  Biso   1.000  O
  O94      1.0000 0.24680  0.86510  0.42650  Biso   1.000  O
  H89      1.0000 0.75760  0.17770  0.60770  Biso   1.000  H
  H90      1.0000 0.24240  0.82230  0.39230  Biso   1.000  H
  H91      1.0000 0.81290  0.12450  0.57990  Biso   1.000  H
  H92      1.0000 0.18710  0.87550  0.42010  Biso   1.000  H
  O95      1.0000 0.55480  0.43890  0.83780  Biso   1.000  O
  O96      1.0000 0.44520  0.56110  0.16220  Biso   1.000  O
  H93      1.0000 0.55300  0.38530  0.83840  Biso   1.000  H
  H94      1.0000 0.44700  0.61470  0.16160  Biso   1.000  H
  H95      1.0000 0.50060  0.44700  0.85180  Biso   1.000  H
  H96      1.0000 0.49940  0.55300  0.14820  Biso   1.000  H
  O97      1.0000 0.54590  0.42500  0.99530  Biso   1.000  O
  O98      1.0000 0.45410  0.57500  0.00470  Biso   1.000  O
  H97      1.0000 0.54430  0.37260  0.00190  Biso   1.000  H
  H98      1.0000 0.45570  0.62740  0.99810  Biso   1.000  H
  H99      1.0000 0.60530  0.45720  0.01980  Biso   1.000  H
  H100     1.0000 0.39470  0.54280  0.98020  Biso   1.000  H
