data_image0
_cell_length_a       13.5685
_cell_length_b       15.924
_cell_length_c       17.548
_cell_angle_alpha    95.269
_cell_angle_beta     100.888
_cell_angle_gamma    103.51

_symmetry_space_group_name_H-M    "P 1"
_symmetry_int_tables_number       1

loop_
  _symmetry_equiv_pos_as_xyz
  'x, y, z'

loop_
  _atom_site_label
  _atom_site_occupancy
  _atom_site_fract_x
  _atom_site_fract_y
  _atom_site_fract_z
  _atom_site_thermal_displace_type
  _atom_site_B_iso_or_equiv
  _atom_site_type_symbol
  Cu1      1.0000 0.36160  0.44261  0.63585  Biso   1.000  Cu
  Cu2      1.0000 0.63840  0.55739  0.36415  Biso   1.000  Cu
  Cu3      1.0000 0.18470  0.59853  0.39704  Biso   1.000  Cu
  Cu4      1.0000 0.81530  0.40147  0.60296  Biso   1.000  Cu
  Cu5      1.0000 0.24030  0.97041  0.97767  Biso   1.000  Cu
  Cu6      1.0000 0.75970  0.02959  0.02233  Biso   1.000  Cu
  Eu1      1.0000 0.32234  0.16595  0.51683  Biso   1.000  Eu
  Eu2      1.0000 0.67766  0.83405  0.48317  Biso   1.000  Eu
  Eu3      1.0000 0.24782  0.79935  0.61275  Biso   1.000  Eu
  Eu4      1.0000 0.75218  0.20065  0.38725  Biso   1.000  Eu
  Eu5      1.0000 0.34050  0.20831  0.16157  Biso   1.000  Eu
  Eu6      1.0000 0.65950  0.79169  0.83843  Biso   1.000  Eu
  Eu7      1.0000 0.95695  0.37031  0.14266  Biso   1.000  Eu
  Eu8      1.0000 0.04305  0.62969  0.85734  Biso   1.000  Eu
  C1       1.0000 0.33390  0.26340  0.35430  Biso   1.000  C
  C2       1.0000 0.66610  0.73660  0.64570  Biso   1.000  C
  C3       1.0000 0.34350  0.33970  0.41010  Biso   1.000  C
  C4       1.0000 0.65650  0.66030  0.58990  Biso   1.000  C
  C5       1.0000 0.36230  0.42870  0.40570  Biso   1.000  C
  C6       1.0000 0.63770  0.57130  0.59430  Biso   1.000  C
  C7       1.0000 0.37010  0.46430  0.48250  Biso   1.000  C
  C8       1.0000 0.62990  0.53570  0.51750  Biso   1.000  C
  C9       1.0000 0.38850  0.55400  0.52840  Biso   1.000  C
  C10      1.0000 0.61150  0.44600  0.47160  Biso   1.000  C
  C11      1.0000 0.31980  0.42990  0.78350  Biso   1.000  C
  C12      1.0000 0.68020  0.57010  0.21650  Biso   1.000  C
  C13      1.0000 0.29480  0.33480  0.73840  Biso   1.000  C
  C14      1.0000 0.70520  0.66520  0.26160  Biso   1.000  C
  C15      1.0000 0.24340  0.25360  0.75330  Biso   1.000  C
  C16      1.0000 0.75660  0.74640  0.24670  Biso   1.000  C
  C17      1.0000 0.23850  0.20320  0.68360  Biso   1.000  C
  C18      1.0000 0.76150  0.79680  0.31640  Biso   1.000  C
  C19      1.0000 0.19550  0.10550  0.65180  Biso   1.000  C
  C20      1.0000 0.80450  0.89450  0.34820  Biso   1.000  C
  C21      1.0000 0.30280  0.94470  0.49370  Biso   1.000  C
  C22      1.0000 0.69720  0.05530  0.50630  Biso   1.000  C
  C23      1.0000 0.28380  0.86480  0.43700  Biso   1.000  C
  C24      1.0000 0.71620  0.13520  0.56300  Biso   1.000  C
  C25      1.0000 0.28440  0.84560  0.36210  Biso   1.000  C
  C26      1.0000 0.71560  0.15440  0.63790  Biso   1.000  C
  C27      1.0000 0.25210  0.75500  0.34660  Biso   1.000  C
  C28      1.0000 0.74790  0.24500  0.65340  Biso   1.000  C
  C29      1.0000 0.22400  0.68900  0.27660  Biso   1.000  C
  C30      1.0000 0.77600  0.31100  0.72340  Biso   1.000  C
  C31      1.0000 0.11690  0.43530  0.43750  Biso   1.000  C
  C32      1.0000 0.88310  0.56470  0.56250  Biso   1.000  C
  C33      1.0000 0.12940  0.49780  0.50990  Biso   1.000  C
  C34      1.0000 0.87060  0.50220  0.49010  Biso   1.000  C
  C35      1.0000 0.11500  0.49770  0.58670  Biso   1.000  C
  C36      1.0000 0.88500  0.50230  0.41330  Biso   1.000  C
  C37      1.0000 0.14780  0.58340  0.62240  Biso   1.000  C
  C38      1.0000 0.85220  0.41660  0.37760  Biso   1.000  C
  C39      1.0000 0.14780  0.63150  0.69770  Biso   1.000  C
  C40      1.0000 0.85220  0.36850  0.30230  Biso   1.000  C
  C41      1.0000 0.53840  0.12620  0.23030  Biso   1.000  C
  C42      1.0000 0.46160  0.87380  0.76970  Biso   1.000  C
  C43      1.0000 0.48540  0.06200  0.15960  Biso   1.000  C
  C44      1.0000 0.51460  0.93800  0.84040  Biso   1.000  C
  C45      1.0000 0.50770  0.99110  0.12560  Biso   1.000  C
  C46      1.0000 0.49230  0.00890  0.87440  Biso   1.000  C
  C47      1.0000 0.42690  0.95670  0.06450  Biso   1.000  C
  C48      1.0000 0.57310  0.04330  0.93550  Biso   1.000  C
  C49      1.0000 0.39230  0.88010  0.00020  Biso   1.000  C
  C50      1.0000 0.60770  0.11990  0.99980  Biso   1.000  C
  C51      1.0000 0.05270  0.97840  0.88130  Biso   1.000  C
  C52      1.0000 0.94730  0.02160  0.11870  Biso   1.000  C
  C53      1.0000 0.08030  0.05280  0.94070  Biso   1.000  C
  C54      1.0000 0.91970  0.94720  0.05930  Biso   1.000  C
  C55      1.0000 0.03620  0.11840  0.96580  Biso   1.000  C
  C56      1.0000 0.96380  0.88160  0.03420  Biso   1.000  C
  C57      1.0000 0.11200  0.16700  0.03100  Biso   1.000  C
  C58      1.0000 0.88800  0.83300  0.96900  Biso   1.000  C
  C59      1.0000 0.11450  0.24720  0.08380  Biso   1.000  C
  C60      1.0000 0.88550  0.75280  0.91620  Biso   1.000  C
  I1       1.0000 0.38104  0.49652  0.31528  Biso   1.000  I
  I2       1.0000 0.61896  0.50348  0.68472  Biso   1.000  I
  I3       1.0000 0.17983  0.21742  0.84457  Biso   1.000  I
  I4       1.0000 0.82017  0.78258  0.15543  Biso   1.000  I
  I5       1.0000 0.32131  0.93444  0.28604  Biso   1.000  I
  I6       1.0000 0.67869  0.06556  0.71396  Biso   1.000  I
  I7       1.0000 0.06206  0.38978  0.63890  Biso   1.000  I
  I8       1.0000 0.93794  0.61022  0.36110  Biso   1.000  I
  I9       1.0000 0.63631  0.94026  0.16152  Biso   1.000  I
  I10      1.0000 0.36369  0.05974  0.83848  Biso   1.000  I
  I11      1.0000 0.90131  0.14278  0.90890  Biso   1.000  I
  I12      1.0000 0.09869  0.85722  0.09110  Biso   1.000  I
  N1       1.0000 0.34030  0.32290  0.48230  Biso   1.000  N
  N2       1.0000 0.65970  0.67710  0.51770  Biso   1.000  N
  N3       1.0000 0.35460  0.40380  0.53180  Biso   1.000  N
  N4       1.0000 0.64540  0.59620  0.46820  Biso   1.000  N
  N5       1.0000 0.32110  0.33010  0.67030  Biso   1.000  N
  N6       1.0000 0.67890  0.66990  0.32970  Biso   1.000  N
  N7       1.0000 0.28760  0.24860  0.63450  Biso   1.000  N
  N8       1.0000 0.71240  0.75140  0.36550  Biso   1.000  N
  N9       1.0000 0.25730  0.78790  0.47170  Biso   1.000  N
  N10      1.0000 0.74270  0.21210  0.52830  Biso   1.000  N
  N11      1.0000 0.23780  0.72430  0.40920  Biso   1.000  N
  N12      1.0000 0.76220  0.27570  0.59080  Biso   1.000  N
  N13      1.0000 0.17020  0.58240  0.49790  Biso   1.000  N
  N14      1.0000 0.82980  0.41760  0.50210  Biso   1.000  N
  N15      1.0000 0.17800  0.63360  0.56790  Biso   1.000  N
  N16      1.0000 0.82200  0.36640  0.43210  Biso   1.000  N
  N17      1.0000 0.39620  0.07300  0.12030  Biso   1.000  N
  N18      1.0000 0.60380  0.92700  0.87970  Biso   1.000  N
  N19      1.0000 0.36200  0.01020  0.06150  Biso   1.000  N
  N20      1.0000 0.63800  0.98980  0.93850  Biso   1.000  N
  N21      1.0000 0.17040  0.05990  0.99750  Biso   1.000  N
  N22      1.0000 0.82960  0.94010  0.00250  Biso   1.000  N
  N23      1.0000 0.19110  0.13030  0.04920  Biso   1.000  N
  N24      1.0000 0.80890  0.86970  0.95080  Biso   1.000  N
  O1       1.0000 0.33970  0.27530  0.28600  Biso   1.000  O
  O2       1.0000 0.66030  0.72470  0.71400  Biso   1.000  O
  O3       1.0000 0.31360  0.18780  0.37610  Biso   1.000  O
  O4       1.0000 0.68640  0.81220  0.62390  Biso   1.000  O
  O5       1.0000 0.40190  0.61720  0.49300  Biso   1.000  O
  O6       1.0000 0.59810  0.38280  0.50700  Biso   1.000  O
  O7       1.0000 0.38840  0.55600  0.59820  Biso   1.000  O
  O8       1.0000 0.61160  0.44400  0.40180  Biso   1.000  O
  O9       1.0000 0.35320  0.48530  0.74330  Biso   1.000  O
  O10      1.0000 0.64680  0.51470  0.25670  Biso   1.000  O
  O11      1.0000 0.30120  0.44140  0.84960  Biso   1.000  O
  O12      1.0000 0.69880  0.55860  0.15040  Biso   1.000  O
  O13      1.0000 0.15660  0.05750  0.69740  Biso   1.000  O
  O14      1.0000 0.84340  0.94250  0.30260  Biso   1.000  O
  O15      1.0000 0.19880  0.08170  0.58290  Biso   1.000  O
  O16      1.0000 0.80120  0.91830  0.41710  Biso   1.000  O
  O17      1.0000 0.49290  0.26640  0.58680  Biso   1.000  O
  O18      1.0000 0.50710  0.73360  0.41320  Biso   1.000  O
  H1       1.0000 0.47290  0.29470  0.62190  Biso   1.000  H
  H2       1.0000 0.52710  0.70530  0.37810  Biso   1.000  H
  H3       1.0000 0.54540  0.30010  0.57640  Biso   1.000  H
  H4       1.0000 0.45460  0.69990  0.42360  Biso   1.000  H
  O19      1.0000 0.14330  0.14540  0.44600  Biso   1.000  O
  O20      1.0000 0.85670  0.85460  0.55400  Biso   1.000  O
  H5       1.0000 0.14440  0.19920  0.44710  Biso   1.000  H
  H6       1.0000 0.85560  0.80080  0.55290  Biso   1.000  H
  H7       1.0000 0.10980  0.12560  0.47970  Biso   1.000  H
  H8       1.0000 0.89020  0.87440  0.52030  Biso   1.000  H
  O21      1.0000 0.47830  0.13390  0.47080  Biso   1.000  O
  O22      1.0000 0.52170  0.86610  0.52920  Biso   1.000  O
  H9       1.0000 0.53750  0.14570  0.45930  Biso   1.000  H
  H10      1.0000 0.46250  0.85430  0.54070  Biso   1.000  H
  H11      1.0000 0.43670  0.09790  0.43320  Biso   1.000  H
  H12      1.0000 0.56330  0.90210  0.56680  Biso   1.000  H
  O23      1.0000 0.41620  0.10580  0.62350  Biso   1.000  O
  O24      1.0000 0.58380  0.89420  0.37650  Biso   1.000  O
  H13      1.0000 0.38130  0.05530  0.62740  Biso   1.000  H
  H14      1.0000 0.61870  0.94470  0.37260  Biso   1.000  H
  H15      1.0000 0.47990  0.10660  0.63640  Biso   1.000  H
  H16      1.0000 0.52010  0.89340  0.36360  Biso   1.000  H
  O25      1.0000 0.30720  0.01600  0.46810  Biso   1.000  O
  O26      1.0000 0.69280  0.98400  0.53190  Biso   1.000  O
  O27      1.0000 0.31010  0.93400  0.56620  Biso   1.000  O
  O28      1.0000 0.68990  0.06600  0.43380  Biso   1.000  O
  O29      1.0000 0.23800  0.71140  0.20930  Biso   1.000  O
  O30      1.0000 0.76200  0.28860  0.79070  Biso   1.000  O
  O31      1.0000 0.18920  0.61230  0.28810  Biso   1.000  O
  O32      1.0000 0.81080  0.38770  0.71190  Biso   1.000  O
  O33      1.0000 0.13600  0.47100  0.37940  Biso   1.000  O
  O34      1.0000 0.86400  0.52900  0.62060  Biso   1.000  O
  O35      1.0000 0.08220  0.35670  0.43620  Biso   1.000  O
  O36      1.0000 0.91780  0.64330  0.56380  Biso   1.000  O
  O37      1.0000 0.19080  0.71300  0.70610  Biso   1.000  O
  O38      1.0000 0.80920  0.28700  0.29390  Biso   1.000  O
  O39      1.0000 0.10310  0.59350  0.74530  Biso   1.000  O
  O40      1.0000 0.89690  0.40650  0.25470  Biso   1.000  O
  O41      1.0000 0.40430  0.75190  0.60920  Biso   1.000  O
  O42      1.0000 0.59570  0.24810  0.39080  Biso   1.000  O
  H17      1.0000 0.39520  0.70300  0.58120  Biso   1.000  H
  H18      1.0000 0.60480  0.29700  0.41880  Biso   1.000  H
  H19      1.0000 0.43830  0.74940  0.65470  Biso   1.000  H
  H20      1.0000 0.56170  0.25060  0.34530  Biso   1.000  H
  O43      1.0000 0.06930  0.77520  0.54040  Biso   1.000  O
  O44      1.0000 0.93070  0.22480  0.45960  Biso   1.000  O
  H21      1.0000 0.03290  0.75950  0.57350  Biso   1.000  H
  H22      1.0000 0.96710  0.24050  0.42650  Biso   1.000  H
  H23      1.0000 0.06400  0.73020  0.50800  Biso   1.000  H
  H24      1.0000 0.93600  0.26980  0.49200  Biso   1.000  H
  O45      1.0000 0.16350  0.88850  0.68350  Biso   1.000  O
  O46      1.0000 0.83650  0.11150  0.31650  Biso   1.000  O
  H25      1.0000 0.17380  0.93980  0.70740  Biso   1.000  H
  H26      1.0000 0.82620  0.06020  0.29260  Biso   1.000  H
  H27      1.0000 0.14050  0.85280  0.71320  Biso   1.000  H
  H28      1.0000 0.85950  0.14720  0.28680  Biso   1.000  H
  O47      1.0000 0.62380  0.12300  0.27290  Biso   1.000  O
  O48      1.0000 0.37620  0.87700  0.72710  Biso   1.000  O
  O49      1.0000 0.49660  0.18690  0.24530  Biso   1.000  O
  O50      1.0000 0.50340  0.81310  0.75470  Biso   1.000  O
  O51      1.0000 0.44040  0.82390  0.99850  Biso   1.000  O
  O52      1.0000 0.55960  0.17610  0.00150  Biso   1.000  O
  O53      1.0000 0.30240  0.87380  0.95500  Biso   1.000  O
  O54      1.0000 0.69760  0.12620  0.04500  Biso   1.000  O
  O55      1.0000 0.12070  0.92940  0.88880  Biso   1.000  O
  O56      1.0000 0.87930  0.07060  0.11120  Biso   1.000  O
  O57      1.0000 0.97430  0.95900  0.82910  Biso   1.000  O
  O58      1.0000 0.02570  0.04100  0.17090  Biso   1.000  O
  O59      1.0000 0.19880  0.27620  0.13690  Biso   1.000  O
  O60      1.0000 0.80120  0.72380  0.86310  Biso   1.000  O
  O61      1.0000 0.04060  0.28260  0.07910  Biso   1.000  O
  O62      1.0000 0.95940  0.71740  0.92090  Biso   1.000  O
  O63      1.0000 0.39830  0.23200  0.04690  Biso   1.000  O
  O64      1.0000 0.60170  0.76800  0.95310  Biso   1.000  O
  H29      1.0000 0.41960  0.20580  0.01120  Biso   1.000  H
  H30      1.0000 0.58040  0.79420  0.98880  Biso   1.000  H
  H31      1.0000 0.35080  0.25370  0.02450  Biso   1.000  H
  H32      1.0000 0.64920  0.74630  0.97550  Biso   1.000  H
  O65      1.0000 0.23820  0.10370  0.22090  Biso   1.000  O
  O66      1.0000 0.76180  0.89630  0.77910  Biso   1.000  O
  H33      1.0000 0.25130  0.10730  0.27080  Biso   1.000  H
  H34      1.0000 0.74870  0.89270  0.72920  Biso   1.000  H
  H35      1.0000 0.18390  0.06280  0.20290  Biso   1.000  H
  H36      1.0000 0.81610  0.93720  0.79710  Biso   1.000  H
  O67      1.0000 0.45560  0.35190  0.17790  Biso   1.000  O
  O68      1.0000 0.54440  0.64810  0.82210  Biso   1.000  O
  H37      1.0000 0.51830  0.35070  0.19350  Biso   1.000  H
  H38      1.0000 0.48170  0.64930  0.80650  Biso   1.000  H
  H39      1.0000 0.44710  0.39750  0.20260  Biso   1.000  H
  H40      1.0000 0.55290  0.60250  0.79740  Biso   1.000  H
  O69      1.0000 0.78640  0.30290  0.06650  Biso   1.000  O
  O70      1.0000 0.21360  0.69710  0.93350  Biso   1.000  O
  H41      1.0000 0.73570  0.25790  0.05630  Biso   1.000  H
  H42      1.0000 0.26430  0.74210  0.94370  Biso   1.000  H
  H43      1.0000 0.77230  0.34050  0.09750  Biso   1.000  H
  H44      1.0000 0.22770  0.65950  0.90250  Biso   1.000  H
  O71      1.0000 0.96360  0.41080  0.01390  Biso   1.000  O
  O72      1.0000 0.03640  0.58920  0.98610  Biso   1.000  O
  H45      1.0000 0.94370  0.35590  0.01320  Biso   1.000  H
  H46      1.0000 0.05630  0.64410  0.98680  Biso   1.000  H
  H47      1.0000 0.93290  0.42300  0.97090  Biso   1.000  H
  H48      1.0000 0.06710  0.57700  0.02910  Biso   1.000  H
  O73      1.0000 0.87350  0.49200  0.12530  Biso   1.000  O
  O74      1.0000 0.12650  0.50800  0.87470  Biso   1.000  O
  H49      1.0000 0.85580  0.51920  0.16250  Biso   1.000  H
  H50      1.0000 0.14420  0.48080  0.83750  Biso   1.000  H
  H51      1.0000 0.93320  0.48490  0.14310  Biso   1.000  H
  H52      1.0000 0.06680  0.51510  0.85690  Biso   1.000  H
  O75      1.0000 0.10020  0.49520  0.15290  Biso   1.000  O
  O76      1.0000 0.89980  0.50480  0.84710  Biso   1.000  O
  H53      1.0000 0.12360  0.45060  0.15970  Biso   1.000  H
  H54      1.0000 0.87640  0.54940  0.84030  Biso   1.000  H
  H55      1.0000 0.13000  0.53410  0.19230  Biso   1.000  H
  H56      1.0000 0.87000  0.46590  0.80770  Biso   1.000  H
  O77      1.0000 0.09350  0.35570  0.24750  Biso   1.000  O
  O78      1.0000 0.90650  0.64430  0.75250  Biso   1.000  O
  H57      1.0000 0.13390  0.32870  0.27190  Biso   1.000  H
  H58      1.0000 0.86610  0.67130  0.72810  Biso   1.000  H
  H59      1.0000 0.05430  0.36720  0.27740  Biso   1.000  H
  H60      1.0000 0.94570  0.63280  0.72260  Biso   1.000  H
  O79      1.0000 0.89790  0.23260  0.18200  Biso   1.000  O
  O80      1.0000 0.10210  0.76740  0.81800  Biso   1.000  O
  H61      1.0000 0.84150  0.24000  0.19220  Biso   1.000  H
  H62      1.0000 0.15850  0.76000  0.80780  Biso   1.000  H
  H63      1.0000 0.88290  0.18860  0.14650  Biso   1.000  H
  H64      1.0000 0.11710  0.81140  0.85350  Biso   1.000  H
  O81      1.0000 0.47020  0.74590  0.24150  Biso   1.000  O
  O82      1.0000 0.52980  0.25410  0.75850  Biso   1.000  O
  H65      1.0000 0.48770  0.76190  0.29070  Biso   1.000  H
  H66      1.0000 0.51230  0.23810  0.70930  Biso   1.000  H
  H67      1.0000 0.40500  0.73890  0.22760  Biso   1.000  H
  H68      1.0000 0.59500  0.26110  0.77240  Biso   1.000  H
  O83      1.0000 0.95070  0.82040  0.69690  Biso   1.000  O
  O84      1.0000 0.04930  0.17960  0.30310  Biso   1.000  O
  H69      1.0000 0.91570  0.81970  0.65110  Biso   1.000  H
  H70      1.0000 0.08430  0.18030  0.34890  Biso   1.000  H
  H71      1.0000 0.01010  0.85530  0.70150  Biso   1.000  H
  H72      1.0000 0.98990  0.14470  0.29850  Biso   1.000  H
  O85      1.0000 0.39080  0.62060  0.91210  Biso   1.000  O
  O86      1.0000 0.60920  0.37940  0.08790  Biso   1.000  O
  H73      1.0000 0.44600  0.63170  0.89450  Biso   1.000  H
  H74      1.0000 0.55400  0.36830  0.10550  Biso   1.000  H
  H75      1.0000 0.37380  0.56620  0.91420  Biso   1.000  H
  H76      1.0000 0.62620  0.43380  0.08580  Biso   1.000  H
  O87      1.0000 0.94330  0.06340  0.65990  Biso   1.000  O
  O88      1.0000 0.05670  0.93660  0.34010  Biso   1.000  O
  H77      1.0000 0.96110  0.11790  0.67580  Biso   1.000  H
  H78      1.0000 0.03890  0.88210  0.32420  Biso   1.000  H
  H79      1.0000 0.99670  0.04410  0.67220  Biso   1.000  H
  H80      1.0000 0.00330  0.95590  0.32780  Biso   1.000  H
  O89      1.0000 0.95210  0.07490  0.50500  Biso   1.000  O
  O90      1.0000 0.04790  0.92510  0.49500  Biso   1.000  O
  H81      1.0000 0.95540  0.12730  0.49730  Biso   1.000  H
  H82      1.0000 0.04460  0.87270  0.50270  Biso   1.000  H
  H83      1.0000 0.89940  0.04240  0.47250  Biso   1.000  H
  H84      1.0000 0.10060  0.95760  0.52750  Biso   1.000  H
  O91      1.0000 0.74200  0.36750  0.92640  Biso   1.000  O
  O92      1.0000 0.25800  0.63250  0.07360  Biso   1.000  O
  H85      1.0000 0.74660  0.33000  0.89050  Biso   1.000  H
  H86      1.0000 0.25340  0.67000  0.10950  Biso   1.000  H
  H87      1.0000 0.71220  0.34010  0.95860  Biso   1.000  H
  H88      1.0000 0.28780  0.65990  0.04140  Biso   1.000  H
  O93      1.0000 0.28300  0.46100  0.09300  Biso   1.000  O
  O94      1.0000 0.71700  0.53900  0.90700  Biso   1.000  O
  H89      1.0000 0.22320  0.43810  0.06400  Biso   1.000  H
  H90      1.0000 0.77680  0.56190  0.93600  Biso   1.000  H
  H91      1.0000 0.30830  0.50830  0.07680  Biso   1.000  H
  H92      1.0000 0.69170  0.49170  0.92320  Biso   1.000  H
  O95      1.0000 0.16800  0.41700  0.98500  Biso   1.000  O
  O96      1.0000 0.83200  0.58300  0.01500  Biso   1.000  O
  H93      1.0000 0.17900  0.46160  0.96190  Biso   1.000  H
  H94      1.0000 0.82100  0.53840  0.03810  Biso   1.000  H
  H95      1.0000 0.11500  0.37970  0.95680  Biso   1.000  H
  H96      1.0000 0.88500  0.62030  0.04320  Biso   1.000  H
