data_image0
_cell_length_a       13.4889
_cell_length_b       15.9353
_cell_length_c       17.5321
_cell_angle_alpha    95.364
_cell_angle_beta     100.81
_cell_angle_gamma    103.885

_symmetry_space_group_name_H-M    "P 1"
_symmetry_int_tables_number       1

loop_
  _symmetry_equiv_pos_as_xyz
  'x, y, z'

loop_
  _atom_site_label
  _atom_site_occupancy
  _atom_site_fract_x
  _atom_site_fract_y
  _atom_site_fract_z
  _atom_site_thermal_displace_type
  _atom_site_B_iso_or_equiv
  _atom_site_type_symbol
  Cu1      1.0000 0.13887  0.05810  0.36357  Biso   1.000  Cu
  Cu2      1.0000 0.86113  0.94190  0.63643  Biso   1.000  Cu
  Cu3      1.0000 0.31566  0.90099  0.60340  Biso   1.000  Cu
  Cu4      1.0000 0.68434  0.09901  0.39660  Biso   1.000  Cu
  Cu5      1.0000 0.26010  0.52904  0.02187  Biso   1.000  Cu
  Cu6      1.0000 0.73990  0.47096  0.97813  Biso   1.000  Cu
  Gd1      1.0000 0.17643  0.33351  0.48298  Biso   1.000  Gd
  Gd2      1.0000 0.82357  0.66649  0.51702  Biso   1.000  Gd
  Gd3      1.0000 0.25352  0.70026  0.38848  Biso   1.000  Gd
  Gd4      1.0000 0.74648  0.29974  0.61152  Biso   1.000  Gd
  Gd5      1.0000 0.15746  0.29202  0.83727  Biso   1.000  Gd
  Gd6      1.0000 0.84254  0.70798  0.16273  Biso   1.000  Gd
  Gd7      1.0000 0.54110  0.13121  0.85585  Biso   1.000  Gd
  Gd8      1.0000 0.45890  0.86879  0.14415  Biso   1.000  Gd
  C1       1.0000 0.16680  0.23740  0.64630  Biso   1.000  C
  C2       1.0000 0.83320  0.76260  0.35370  Biso   1.000  C
  C3       1.0000 0.15600  0.16030  0.58800  Biso   1.000  C
  C4       1.0000 0.84400  0.83970  0.41200  Biso   1.000  C
  C5       1.0000 0.13520  0.07150  0.59090  Biso   1.000  C
  C6       1.0000 0.86480  0.92850  0.40910  Biso   1.000  C
  C7       1.0000 0.12890  0.03500  0.51630  Biso   1.000  C
  C8       1.0000 0.87110  0.96500  0.48370  Biso   1.000  C
  C9       1.0000 0.11130  0.94600  0.47200  Biso   1.000  C
  C10      1.0000 0.88870  0.05400  0.52800  Biso   1.000  C
  C11      1.0000 0.18130  0.07400  0.21710  Biso   1.000  C
  C12      1.0000 0.81870  0.92600  0.78290  Biso   1.000  C
  C13      1.0000 0.20620  0.16470  0.25930  Biso   1.000  C
  C14      1.0000 0.79380  0.83530  0.74070  Biso   1.000  C
  C15      1.0000 0.25710  0.24760  0.24910  Biso   1.000  C
  C16      1.0000 0.74290  0.75240  0.75090  Biso   1.000  C
  C17      1.0000 0.25850  0.30010  0.31710  Biso   1.000  C
  C18      1.0000 0.74150  0.69990  0.68290  Biso   1.000  C
  C19      1.0000 0.30520  0.39460  0.34730  Biso   1.000  C
  C20      1.0000 0.69480  0.60540  0.65270  Biso   1.000  C
  C21      1.0000 0.20110  0.55510  0.50510  Biso   1.000  C
  C22      1.0000 0.79890  0.44490  0.49490  Biso   1.000  C
  C23      1.0000 0.21810  0.63600  0.56030  Biso   1.000  C
  C24      1.0000 0.78190  0.36400  0.43970  Biso   1.000  C
  C25      1.0000 0.21870  0.65220  0.63910  Biso   1.000  C
  C26      1.0000 0.78130  0.34780  0.36090  Biso   1.000  C
  C27      1.0000 0.24800  0.74420  0.65540  Biso   1.000  C
  C28      1.0000 0.75200  0.25580  0.34460  Biso   1.000  C
  C29      1.0000 0.27340  0.80950  0.72540  Biso   1.000  C
  C30      1.0000 0.72660  0.19050  0.27460  Biso   1.000  C
  C31      1.0000 0.38560  0.06470  0.56000  Biso   1.000  C
  C32      1.0000 0.61440  0.93530  0.44000  Biso   1.000  C
  C33      1.0000 0.37020  0.99990  0.48890  Biso   1.000  C
  C34      1.0000 0.62980  0.00010  0.51110  Biso   1.000  C
  C35      1.0000 0.38390  0.00230  0.41340  Biso   1.000  C
  C36      1.0000 0.61610  0.99770  0.58660  Biso   1.000  C
  C37      1.0000 0.35290  0.91300  0.38010  Biso   1.000  C
  C38      1.0000 0.64710  0.08700  0.61990  Biso   1.000  C
  C39      1.0000 0.35430  0.86540  0.30350  Biso   1.000  C
  C40      1.0000 0.64570  0.13460  0.69650  Biso   1.000  C
  C41      1.0000 0.95830  0.36940  0.76800  Biso   1.000  C
  C42      1.0000 0.04170  0.63060  0.23200  Biso   1.000  C
  C43      1.0000 0.01100  0.43530  0.83800  Biso   1.000  C
  C44      1.0000 0.98900  0.56470  0.16200  Biso   1.000  C
  C45      1.0000 0.99060  0.51040  0.87210  Biso   1.000  C
  C46      1.0000 0.00940  0.48960  0.12790  Biso   1.000  C
  C47      1.0000 0.07270  0.54340  0.93490  Biso   1.000  C
  C48      1.0000 0.92730  0.45660  0.06510  Biso   1.000  C
  C49      1.0000 0.10920  0.62180  0.99630  Biso   1.000  C
  C50      1.0000 0.89080  0.37820  0.00370  Biso   1.000  C
  C51      1.0000 0.44890  0.52410  0.11560  Biso   1.000  C
  C52      1.0000 0.55110  0.47590  0.88440  Biso   1.000  C
  C53      1.0000 0.42060  0.44730  0.05300  Biso   1.000  C
  C54      1.0000 0.57940  0.55270  0.94700  Biso   1.000  C
  C55      1.0000 0.46240  0.38020  0.03200  Biso   1.000  C
  C56      1.0000 0.53760  0.61980  0.96800  Biso   1.000  C
  C57      1.0000 0.38920  0.33170  0.96490  Biso   1.000  C
  C58      1.0000 0.61080  0.66830  0.03510  Biso   1.000  C
  C59      1.0000 0.38130  0.25130  0.91250  Biso   1.000  C
  C60      1.0000 0.61870  0.74870  0.08750  Biso   1.000  C
  I1       1.0000 0.11934  0.00462  0.68474  Biso   1.000  I
  I2       1.0000 0.88066  0.99538  0.31526  Biso   1.000  I
  I3       1.0000 0.31915  0.28503  0.15562  Biso   1.000  I
  I4       1.0000 0.68085  0.71497  0.84438  Biso   1.000  I
  I5       1.0000 0.17918  0.56486  0.71409  Biso   1.000  I
  I6       1.0000 0.82082  0.43514  0.28591  Biso   1.000  I
  I7       1.0000 0.43724  0.10920  0.36078  Biso   1.000  I
  I8       1.0000 0.56276  0.89080  0.63922  Biso   1.000  I
  I9       1.0000 0.86356  0.55871  0.83766  Biso   1.000  I
  I10      1.0000 0.13644  0.44129  0.16234  Biso   1.000  I
  I11      1.0000 0.59701  0.35546  0.08998  Biso   1.000  I
  I12      1.0000 0.40299  0.64454  0.91002  Biso   1.000  I
  N1       1.0000 0.16160  0.17690  0.51440  Biso   1.000  N
  N2       1.0000 0.83840  0.82310  0.48560  Biso   1.000  N
  N3       1.0000 0.14430  0.10020  0.47120  Biso   1.000  N
  N4       1.0000 0.85570  0.89980  0.52880  Biso   1.000  N
  N5       1.0000 0.21070  0.25230  0.36620  Biso   1.000  N
  N6       1.0000 0.78930  0.74770  0.63380  Biso   1.000  N
  N7       1.0000 0.17760  0.16910  0.32950  Biso   1.000  N
  N8       1.0000 0.82240  0.83090  0.67050  Biso   1.000  N
  N9       1.0000 0.26350  0.77620  0.58930  Biso   1.000  N
  N10      1.0000 0.73650  0.22380  0.41070  Biso   1.000  N
  N11      1.0000 0.24450  0.71150  0.53020  Biso   1.000  N
  N12      1.0000 0.75550  0.28850  0.46980  Biso   1.000  N
  N13      1.0000 0.33240  0.91640  0.49880  Biso   1.000  N
  N14      1.0000 0.66760  0.08360  0.50120  Biso   1.000  N
  N15      1.0000 0.32080  0.86380  0.43340  Biso   1.000  N
  N16      1.0000 0.67920  0.13620  0.56660  Biso   1.000  N
  N17      1.0000 0.10050  0.42420  0.87900  Biso   1.000  N
  N18      1.0000 0.89950  0.57580  0.12100  Biso   1.000  N
  N19      1.0000 0.13830  0.49030  0.93840  Biso   1.000  N
  N20      1.0000 0.86170  0.50970  0.06160  Biso   1.000  N
  N21      1.0000 0.30970  0.36950  0.94850  Biso   1.000  N
  N22      1.0000 0.69030  0.63050  0.05150  Biso   1.000  N
  N23      1.0000 0.32830  0.43930  0.00190  Biso   1.000  N
  N24      1.0000 0.67170  0.56070  0.99810  Biso   1.000  N
  O1       1.0000 0.18460  0.31150  0.62430  Biso   1.000  O
  O2       1.0000 0.81540  0.68850  0.37570  Biso   1.000  O
  O3       1.0000 0.15750  0.22420  0.71420  Biso   1.000  O
  O4       1.0000 0.84250  0.77580  0.28580  Biso   1.000  O
  O5       1.0000 0.09940  0.88120  0.50570  Biso   1.000  O
  O6       1.0000 0.90060  0.11880  0.49430  Biso   1.000  O
  O7       1.0000 0.11240  0.94380  0.39940  Biso   1.000  O
  O8       1.0000 0.88760  0.05620  0.60060  Biso   1.000  O
  O9       1.0000 0.14400  0.01410  0.25650  Biso   1.000  O
  O10      1.0000 0.85600  0.98590  0.74350  Biso   1.000  O
  O11      1.0000 0.20020  0.05980  0.15380  Biso   1.000  O
  O12      1.0000 0.79980  0.94020  0.84620  Biso   1.000  O
  O13      1.0000 0.34370  0.44370  0.30250  Biso   1.000  O
  O14      1.0000 0.65630  0.55630  0.69750  Biso   1.000  O
  O15      1.0000 0.29950  0.41840  0.41620  Biso   1.000  O
  O16      1.0000 0.70050  0.58160  0.58380  Biso   1.000  O
  O17      1.0000 0.00750  0.23410  0.41350  Biso   1.000  O
  O18      1.0000 0.99250  0.76590  0.58650  Biso   1.000  O
  H1       1.0000 0.96780  0.19260  0.42940  Biso   1.000  H
  H2       1.0000 0.03220  0.80740  0.57060  Biso   1.000  H
  H3       1.0000 0.99820  0.22190  0.36400  Biso   1.000  H
  H4       1.0000 0.00180  0.77810  0.63600  Biso   1.000  H
  O19      1.0000 0.35230  0.35460  0.54820  Biso   1.000  O
  O20      1.0000 0.64770  0.64540  0.45180  Biso   1.000  O
  H5       1.0000 0.38630  0.35830  0.59490  Biso   1.000  H
  H6       1.0000 0.61370  0.64170  0.40510  Biso   1.000  H
  H7       1.0000 0.38030  0.32730  0.51800  Biso   1.000  H
  H8       1.0000 0.61970  0.67270  0.48200  Biso   1.000  H
  O21      1.0000 0.02500  0.36830  0.53070  Biso   1.000  O
  O22      1.0000 0.97500  0.63170  0.46930  Biso   1.000  O
  H9       1.0000 0.99030  0.34830  0.56380  Biso   1.000  H
  H10      1.0000 0.00970  0.65170  0.43620  Biso   1.000  H
  H11      1.0000 0.03350  0.42330  0.53610  Biso   1.000  H
  H12      1.0000 0.96650  0.57670  0.46390  Biso   1.000  H
  O23      1.0000 0.08410  0.39480  0.37610  Biso   1.000  O
  O24      1.0000 0.91590  0.60520  0.62390  Biso   1.000  O
  H13      1.0000 0.06900  0.39240  0.32650  Biso   1.000  H
  H14      1.0000 0.93100  0.60760  0.67350  Biso   1.000  H
  H15      1.0000 0.10090  0.44830  0.39610  Biso   1.000  H
  H16      1.0000 0.89910  0.55170  0.60390  Biso   1.000  H
  O25      1.0000 0.20010  0.48510  0.53130  Biso   1.000  O
  O26      1.0000 0.79990  0.51490  0.46870  Biso   1.000  O
  O27      1.0000 0.19220  0.56510  0.43240  Biso   1.000  O
  O28      1.0000 0.80780  0.43490  0.56760  Biso   1.000  O
  O29      1.0000 0.25910  0.78830  0.78890  Biso   1.000  O
  O30      1.0000 0.74090  0.21170  0.21110  Biso   1.000  O
  O31      1.0000 0.31020  0.88780  0.71370  Biso   1.000  O
  O32      1.0000 0.68980  0.11220  0.28630  Biso   1.000  O
  O33      1.0000 0.36360  0.02820  0.62040  Biso   1.000  O
  O34      1.0000 0.63640  0.97180  0.37960  Biso   1.000  O
  O35      1.0000 0.41540  0.14300  0.56070  Biso   1.000  O
  O36      1.0000 0.58460  0.85700  0.43930  Biso   1.000  O
  O37      1.0000 0.39710  0.90370  0.25550  Biso   1.000  O
  O38      1.0000 0.60290  0.09630  0.74450  Biso   1.000  O
  O39      1.0000 0.30940  0.78430  0.29300  Biso   1.000  O
  O40      1.0000 0.69060  0.21570  0.70700  Biso   1.000  O
  O41      1.0000 0.10010  0.74940  0.39120  Biso   1.000  O
  O42      1.0000 0.89990  0.25060  0.60880  Biso   1.000  O
  H17      1.0000 0.08450  0.76080  0.43500  Biso   1.000  H
  H18      1.0000 0.91550  0.23920  0.56500  Biso   1.000  H
  H19      1.0000 0.04370  0.73490  0.35620  Biso   1.000  H
  H20      1.0000 0.95630  0.26510  0.64380  Biso   1.000  H
  O43      1.0000 0.42730  0.72640  0.45790  Biso   1.000  O
  O44      1.0000 0.57270  0.27360  0.54210  Biso   1.000  O
  H21      1.0000 0.45090  0.69740  0.49200  Biso   1.000  H
  H22      1.0000 0.54910  0.30260  0.50800  Biso   1.000  H
  H23      1.0000 0.47460  0.77310  0.45980  Biso   1.000  H
  H24      1.0000 0.52540  0.22690  0.54020  Biso   1.000  H
  O45      1.0000 0.33680  0.61170  0.31880  Biso   1.000  O
  O46      1.0000 0.66320  0.38830  0.68120  Biso   1.000  O
  H25      1.0000 0.33530  0.55780  0.31160  Biso   1.000  H
  H26      1.0000 0.66470  0.44220  0.68840  Biso   1.000  H
  H27      1.0000 0.36860  0.63650  0.28610  Biso   1.000  H
  H28      1.0000 0.63140  0.36350  0.71390  Biso   1.000  H
  O47      1.0000 0.87800  0.37670  0.72430  Biso   1.000  O
  O48      1.0000 0.12200  0.62330  0.27570  Biso   1.000  O
  O49      1.0000 0.00390  0.30990  0.75720  Biso   1.000  O
  O50      1.0000 0.99610  0.69010  0.24280  Biso   1.000  O
  O51      1.0000 0.06040  0.67520  0.00050  Biso   1.000  O
  O52      1.0000 0.93960  0.32480  0.99950  Biso   1.000  O
  O53      1.0000 0.19780  0.62620  0.04300  Biso   1.000  O
  O54      1.0000 0.80220  0.37380  0.95700  Biso   1.000  O
  O55      1.0000 0.38100  0.57020  0.10970  Biso   1.000  O
  O56      1.0000 0.61900  0.42980  0.89030  Biso   1.000  O
  O57      1.0000 0.52720  0.54030  0.16920  Biso   1.000  O
  O58      1.0000 0.47280  0.45970  0.83080  Biso   1.000  O
  O59      1.0000 0.29720  0.22270  0.86080  Biso   1.000  O
  O60      1.0000 0.70280  0.77730  0.13920  Biso   1.000  O
  O61      1.0000 0.45530  0.21780  0.92030  Biso   1.000  O
  O62      1.0000 0.54470  0.78220  0.07970  Biso   1.000  O
  O63      1.0000 0.04050  0.14890  0.82100  Biso   1.000  O
  O64      1.0000 0.95950  0.85110  0.17900  Biso   1.000  O
  H29      1.0000 0.97700  0.13640  0.82520  Biso   1.000  H
  H30      1.0000 0.02300  0.86360  0.17480  Biso   1.000  H
  H31      1.0000 0.05110  0.10360  0.79790  Biso   1.000  H
  H32      1.0000 0.94890  0.89640  0.20210  Biso   1.000  H
  O65      1.0000 0.26210  0.39850  0.77880  Biso   1.000  O
  O66      1.0000 0.73790  0.60150  0.22120  Biso   1.000  O
  H33      1.0000 0.25460  0.38480  0.72960  Biso   1.000  H
  H34      1.0000 0.74540  0.61520  0.27040  Biso   1.000  H
  H35      1.0000 0.32000  0.43700  0.79530  Biso   1.000  H
  H36      1.0000 0.68000  0.56300  0.20470  Biso   1.000  H
  O67      1.0000 0.09740  0.26570  0.95640  Biso   1.000  O
  O68      1.0000 0.90260  0.73430  0.04360  Biso   1.000  O
  H37      1.0000 0.05770  0.28910  0.97860  Biso   1.000  H
  H38      1.0000 0.94230  0.71090  0.02140  Biso   1.000  H
  H39      1.0000 0.12090  0.23320  0.98690  Biso   1.000  H
  H40      1.0000 0.87910  0.76680  0.01310  Biso   1.000  H
  O69      1.0000 0.60300  0.27030  0.82100  Biso   1.000  O
  O70      1.0000 0.39700  0.72970  0.17900  Biso   1.000  O
  H41      1.0000 0.62430  0.26580  0.77850  Biso   1.000  H
  H42      1.0000 0.37570  0.73420  0.22150  Biso   1.000  H
  H43      1.0000 0.60620  0.32380  0.83390  Biso   1.000  H
  H44      1.0000 0.39380  0.67620  0.16610  Biso   1.000  H
  O71      1.0000 0.53920  0.09000  0.98660  Biso   1.000  O
  O72      1.0000 0.46080  0.91000  0.01340  Biso   1.000  O
  H45      1.0000 0.50390  0.12690  0.97730  Biso   1.000  H
  H46      1.0000 0.49610  0.87310  0.02270  Biso   1.000  H
  H47      1.0000 0.54890  0.08710  0.03550  Biso   1.000  H
  H48      1.0000 0.45110  0.91290  0.96450  Biso   1.000  H
  O73      1.0000 0.71450  0.19480  0.92900  Biso   1.000  O
  O74      1.0000 0.28550  0.80520  0.07100  Biso   1.000  O
  H49      1.0000 0.75800  0.24480  0.93660  Biso   1.000  H
  H50      1.0000 0.24200  0.75520  0.06340  Biso   1.000  H
  H51      1.0000 0.65420  0.20280  0.92800  Biso   1.000  H
  H52      1.0000 0.34580  0.79720  0.07200  Biso   1.000  H
  O75      1.0000 0.61450  0.00760  0.86870  Biso   1.000  O
  O76      1.0000 0.38550  0.99240  0.13130  Biso   1.000  O
  H53      1.0000 0.58410  0.97570  0.82490  Biso   1.000  H
  H54      1.0000 0.41590  0.02430  0.17510  Biso   1.000  H
  H55      1.0000 0.66060  0.05010  0.85990  Biso   1.000  H
  H56      1.0000 0.33940  0.94990  0.14010  Biso   1.000  H
  O77      1.0000 0.39240  0.00800  0.84410  Biso   1.000  O
  O78      1.0000 0.60760  0.99200  0.15590  Biso   1.000  O
  H57      1.0000 0.35730  0.97220  0.80350  Biso   1.000  H
  H58      1.0000 0.64270  0.02780  0.19650  Biso   1.000  H
  H59      1.0000 0.40980  0.05810  0.83010  Biso   1.000  H
  H60      1.0000 0.59020  0.94190  0.16990  Biso   1.000  H
  O79      1.0000 0.40190  0.14650  0.75070  Biso   1.000  O
  O80      1.0000 0.59810  0.85350  0.24930  Biso   1.000  O
  H61      1.0000 0.40590  0.13270  0.70360  Biso   1.000  H
  H62      1.0000 0.59410  0.86730  0.29640  Biso   1.000  H
  H63      1.0000 0.36010  0.17900  0.75010  Biso   1.000  H
  H64      1.0000 0.63990  0.82100  0.24990  Biso   1.000  H
  O81      1.0000 0.11270  0.88310  0.09010  Biso   1.000  O
  O82      1.0000 0.88730  0.11690  0.90990  Biso   1.000  O
  H65      1.0000 0.07380  0.86320  0.12080  Biso   1.000  H
  H66      1.0000 0.92620  0.13680  0.87920  Biso   1.000  H
  H67      1.0000 0.10900  0.93500  0.08600  Biso   1.000  H
  H68      1.0000 0.89100  0.06500  0.91400  Biso   1.000  H
  O83      1.0000 0.24990  0.87030  0.92500  Biso   1.000  O
  O84      1.0000 0.75010  0.12970  0.07500  Biso   1.000  O
  H69      1.0000 0.25250  0.83920  0.88370  Biso   1.000  H
  H70      1.0000 0.74750  0.16080  0.11630  Biso   1.000  H
  H71      1.0000 0.18800  0.85450  0.93240  Biso   1.000  H
  H72      1.0000 0.81200  0.14550  0.06760  Biso   1.000  H
  O85      1.0000 0.45140  0.57610  0.50350  Biso   1.000  O
  O86      1.0000 0.54860  0.42390  0.49650  Biso   1.000  O
  H73      1.0000 0.48040  0.62710  0.49530  Biso   1.000  H
  H74      1.0000 0.51960  0.37290  0.50470  Biso   1.000  H
  H75      1.0000 0.39540  0.55640  0.46850  Biso   1.000  H
  H76      1.0000 0.60460  0.44360  0.53150  Biso   1.000  H
  O87      1.0000 0.55500  0.43540  0.34340  Biso   1.000  O
  O88      1.0000 0.44500  0.56460  0.65660  Biso   1.000  O
  H77      1.0000 0.49520  0.44390  0.32710  Biso   1.000  H
  H78      1.0000 0.50480  0.55610  0.67290  Biso   1.000  H
  H79      1.0000 0.58100  0.42710  0.30360  Biso   1.000  H
  H80      1.0000 0.41900  0.57290  0.69640  Biso   1.000  H
  O89      1.0000 0.44930  0.32600  0.69510  Biso   1.000  O
  O90      1.0000 0.55070  0.67400  0.30490  Biso   1.000  O
  H81      1.0000 0.41300  0.32150  0.64900  Biso   1.000  H
  H82      1.0000 0.58700  0.67850  0.35100  Biso   1.000  H
  H83      1.0000 0.43520  0.36560  0.72380  Biso   1.000  H
  H84      1.0000 0.56480  0.63440  0.27620  Biso   1.000  H
  O91      1.0000 0.20100  0.03610  0.90430  Biso   1.000  O
  O92      1.0000 0.79900  0.96390  0.09570  Biso   1.000  O
  H85      1.0000 0.13800  0.01530  0.87950  Biso   1.000  H
  H86      1.0000 0.86200  0.98470  0.12050  Biso   1.000  H
  H87      1.0000 0.22540  0.08340  0.88740  Biso   1.000  H
  H88      1.0000 0.77460  0.91660  0.11260  Biso   1.000  H
  O93      1.0000 0.96680  0.24660  0.24740  Biso   1.000  O
  O94      1.0000 0.03320  0.75340  0.75260  Biso   1.000  O
  H89      1.0000 0.98730  0.26240  0.29670  Biso   1.000  H
  H90      1.0000 0.01270  0.73760  0.70330  Biso   1.000  H
  H91      1.0000 0.00620  0.28160  0.22520  Biso   1.000  H
  H92      1.0000 0.99380  0.71840  0.77480  Biso   1.000  H
  O95      1.0000 0.35200  0.09950  0.03460  Biso   1.000  O
  O96      1.0000 0.64800  0.90050  0.96540  Biso   1.000  O
  H93      1.0000 0.31740  0.11280  0.06760  Biso   1.000  H
  H94      1.0000 0.68260  0.88720  0.93240  Biso   1.000  H
  H95      1.0000 0.32420  0.04640  0.01470  Biso   1.000  H
  H96      1.0000 0.67580  0.95360  0.98530  Biso   1.000  H
  O97      1.0000 0.90700  0.89380  0.98720  Biso   1.000  O
  O98      1.0000 0.09300  0.10620  0.01280  Biso   1.000  O
  H97      1.0000 0.89800  0.84070  0.99440  Biso   1.000  H
  H98      1.0000 0.10200  0.15930  0.00560  Biso   1.000  H
  H99      1.0000 0.90160  0.89530  0.93830  Biso   1.000  H
  H100     1.0000 0.09840  0.10470  0.06170  Biso   1.000  H
