data_image0
_cell_length_a       9.6836
_cell_length_b       10.1691
_cell_length_c       10.6629
_cell_angle_alpha    71.897
_cell_angle_beta     64.393
_cell_angle_gamma    63.142

_symmetry_space_group_name_H-M    "P 1"
_symmetry_int_tables_number       1

loop_
  _symmetry_equiv_pos_as_xyz
  'x, y, z'

loop_
  _atom_site_label
  _atom_site_occupancy
  _atom_site_fract_x
  _atom_site_fract_y
  _atom_site_fract_z
  _atom_site_thermal_displace_type
  _atom_site_B_iso_or_equiv
  _atom_site_type_symbol
  C1       1.0000 0.95620  0.87280  0.25300  Biso   1.000  C
  C2       1.0000 0.04380  0.12720  0.74700  Biso   1.000  C
  C3       1.0000 0.93750  0.79320  0.39860  Biso   1.000  C
  C4       1.0000 0.06250  0.20680  0.60140  Biso   1.000  C
  C5       1.0000 0.02230  0.79620  0.47460  Biso   1.000  C
  C6       1.0000 0.97770  0.20380  0.52540  Biso   1.000  C
  H1       1.0000 0.09410  0.84980  0.43250  Biso   1.000  H
  H2       1.0000 0.90590  0.15020  0.56750  Biso   1.000  H
  C7       1.0000 0.00360  0.72280  0.60910  Biso   1.000  C
  C8       1.0000 0.99640  0.27720  0.39090  Biso   1.000  C
  H3       1.0000 0.06150  0.72700  0.65960  Biso   1.000  H
  H4       1.0000 0.93850  0.27300  0.34040  Biso   1.000  H
  C9       1.0000 0.90190  0.64340  0.67130  Biso   1.000  C
  C10      1.0000 0.09810  0.35660  0.32870  Biso   1.000  C
  H5       1.0000 0.88990  0.59170  0.76410  Biso   1.000  H
  H6       1.0000 0.11010  0.40830  0.23590  Biso   1.000  H
  C11      1.0000 0.81700  0.63960  0.59680  Biso   1.000  C
  C12      1.0000 0.18300  0.36040  0.40320  Biso   1.000  C
  H7       1.0000 0.74560  0.58560  0.63940  Biso   1.000  H
  H8       1.0000 0.25440  0.41440  0.36060  Biso   1.000  H
  C13      1.0000 0.83470  0.71230  0.46350  Biso   1.000  C
  C14      1.0000 0.16530  0.28770  0.53650  Biso   1.000  C
  H9       1.0000 0.77610  0.70780  0.41380  Biso   1.000  H
  H10      1.0000 0.22390  0.29220  0.58620  Biso   1.000  H
  C15      1.0000 0.83080  0.25480  0.07830  Biso   1.000  C
  C16      1.0000 0.16920  0.74520  0.92170  Biso   1.000  C
  C17      1.0000 0.72670  0.40600  0.11970  Biso   1.000  C
  C18      1.0000 0.27330  0.59400  0.88030  Biso   1.000  C
  C19      1.0000 0.55790  0.46370  0.14640  Biso   1.000  C
  C20      1.0000 0.44210  0.53630  0.85360  Biso   1.000  C
  H11      1.0000 0.50910  0.40740  0.13510  Biso   1.000  H
  H12      1.0000 0.49090  0.59260  0.86490  Biso   1.000  H
  C21      1.0000 0.46080  0.60150  0.18890  Biso   1.000  C
  C22      1.0000 0.53920  0.39850  0.81110  Biso   1.000  C
  H13      1.0000 0.34600  0.64110  0.20470  Biso   1.000  H
  H14      1.0000 0.65400  0.35890  0.79530  Biso   1.000  H
  C23      1.0000 0.53080  0.68230  0.20860  Biso   1.000  C
  C24      1.0000 0.46920  0.31770  0.79140  Biso   1.000  C
  H15      1.0000 0.46300  0.77520  0.24260  Biso   1.000  H
  H16      1.0000 0.53700  0.22480  0.75740  Biso   1.000  H
  C25      1.0000 0.69900  0.62810  0.17900  Biso   1.000  C
  C26      1.0000 0.30100  0.37190  0.82100  Biso   1.000  C
  H17      1.0000 0.74730  0.68560  0.18910  Biso   1.000  H
  H18      1.0000 0.25270  0.31440  0.81090  Biso   1.000  H
  C27      1.0000 0.79660  0.49090  0.13480  Biso   1.000  C
  C28      1.0000 0.20340  0.50910  0.86520  Biso   1.000  C
  H19      1.0000 0.91220  0.45400  0.11460  Biso   1.000  H
  H20      1.0000 0.08780  0.54600  0.88540  Biso   1.000  H
  C29      1.0000 0.50400  0.93560  0.90620  Biso   1.000  C
  C30      1.0000 0.49600  0.06440  0.09380  Biso   1.000  C
  H21      1.0000 0.51120  0.88890  0.83780  Biso   1.000  H
  H22      1.0000 0.48880  0.11110  0.16220  Biso   1.000  H
  C31      1.0000 0.35250  0.07300  0.08660  Biso   1.000  C
  C32      1.0000 0.64750  0.92700  0.91340  Biso   1.000  C
  H23      1.0000 0.24910  0.12640  0.14960  Biso   1.000  H
  H24      1.0000 0.75090  0.87360  0.85040  Biso   1.000  H
  Cu1      1.0000 0.87010  0.98696  0.00602  Biso   1.000  Cu
  Cu2      1.0000 0.12990  0.01304  0.99398  Biso   1.000  Cu
  N1       1.0000 0.35610  0.00790  0.99320  Biso   1.000  N
  N2       1.0000 0.64390  0.99210  0.00680  Biso   1.000  N
  O1       1.0000 0.85390  0.89120  0.19950  Biso   1.000  O
  O2       1.0000 0.14610  0.10880  0.80050  Biso   1.000  O
  O3       1.0000 0.76000  0.18410  0.06640  Biso   1.000  O
  O4       1.0000 0.24000  0.81590  0.93360  Biso   1.000  O
  O5       1.0000 0.01670  0.79300  0.94360  Biso   1.000  O
  O6       1.0000 0.98330  0.20700  0.05640  Biso   1.000  O
  O7       1.0000 0.07460  0.91720  0.19090  Biso   1.000  O
  O8       1.0000 0.92540  0.08280  0.80910  Biso   1.000  O
  C33      1.0000 0.35700  0.82300  0.55310  Biso   1.000  C
  C34      1.0000 0.64300  0.17700  0.44690  Biso   1.000  C
  H25      1.0000 0.25010  0.87560  0.61980  Biso   1.000  H
  H26      1.0000 0.74990  0.12440  0.38020  Biso   1.000  H
  H27      1.0000 0.44250  0.78580  0.59460  Biso   1.000  H
  H28      1.0000 0.55750  0.21420  0.40540  Biso   1.000  H
  H29      1.0000 0.35090  0.73890  0.53160  Biso   1.000  H
  H30      1.0000 0.64910  0.26110  0.46840  Biso   1.000  H
  O9       1.0000 0.39510  0.92280  0.42670  Biso   1.000  O
  O10      1.0000 0.60490  0.07720  0.57330  Biso   1.000  O
  H31      1.0000 0.31560  0.96340  0.39700  Biso   1.000  H
  H32      1.0000 0.68440  0.03660  0.60300  Biso   1.000  H
  C35      1.0000 0.47300  0.97100  0.47280  Biso   1.000  C
  C36      1.0000 0.52700  0.02900  0.52720  Biso   1.000  C
  H33      1.0000 0.53140  0.89750  0.40780  Biso   1.000  H
  H34      1.0000 0.46860  0.10250  0.59220  Biso   1.000  H
  H35      1.0000 0.53960  0.02970  0.45200  Biso   1.000  H
  H36      1.0000 0.46040  0.97030  0.54800  Biso   1.000  H
  H37      1.0000 0.36660  0.03700  0.46200  Biso   1.000  H
  H38      1.0000 0.63340  0.96300  0.53800  Biso   1.000  H
  O11      1.0000 0.44800  0.89570  0.61400  Biso   1.000  O
  O12      1.0000 0.55200  0.10430  0.38600  Biso   1.000  O
  H39      1.0000 0.38480  0.95820  0.67020  Biso   1.000  H
  H40      1.0000 0.61520  0.04180  0.32980  Biso   1.000  H
  C37      1.0000 0.42100  0.73270  0.51900  Biso   1.000  C
  C38      1.0000 0.57900  0.26730  0.48100  Biso   1.000  C
  C39      1.0000 0.47200  0.57600  0.51100  Biso   1.000  C
  C40      1.0000 0.52800  0.42400  0.48900  Biso   1.000  C
  H41      1.0000 0.40520  0.56660  0.46860  Biso   1.000  H
  H42      1.0000 0.59480  0.43340  0.53140  Biso   1.000  H
  H43      1.0000 0.45620  0.51860  0.60500  Biso   1.000  H
  H44      1.0000 0.54380  0.48140  0.39500  Biso   1.000  H
  H45      1.0000 0.58860  0.53760  0.45210  Biso   1.000  H
  H46      1.0000 0.41140  0.46240  0.54790  Biso   1.000  H
  N3       1.0000 0.39500  0.85390  0.52600  Biso   1.000  N
  N4       1.0000 0.60500  0.14610  0.47400  Biso   1.000  N
