data_image0
_cell_length_a       9.6996
_cell_length_b       9.9844
_cell_length_c       10.7765
_cell_angle_alpha    70.417
_cell_angle_beta     65.104
_cell_angle_gamma    62.126

_symmetry_space_group_name_H-M    "P 1"
_symmetry_int_tables_number       1

loop_
  _symmetry_equiv_pos_as_xyz
  'x, y, z'

loop_
  _atom_site_label
  _atom_site_occupancy
  _atom_site_fract_x
  _atom_site_fract_y
  _atom_site_fract_z
  _atom_site_thermal_displace_type
  _atom_site_B_iso_or_equiv
  _atom_site_type_symbol
  O1       1.0000 0.64570  0.60700  0.30020  Biso   1.000  O
  O2       1.0000 0.35430  0.39300  0.69980  Biso   1.000  O
  Cu1      1.0000 0.63004  0.51234  0.49455  Biso   1.000  Cu
  Cu2      1.0000 0.36996  0.48766  0.50545  Biso   1.000  Cu
  O3       1.0000 0.73880  0.30890  0.44260  Biso   1.000  O
  O4       1.0000 0.26120  0.69110  0.55740  Biso   1.000  O
  O5       1.0000 0.51670  0.28620  0.45150  Biso   1.000  O
  O6       1.0000 0.48330  0.71380  0.54850  Biso   1.000  O
  O7       1.0000 0.42540  0.58260  0.30860  Biso   1.000  O
  O8       1.0000 0.57460  0.41740  0.69140  Biso   1.000  O
  N1       1.0000 0.85670  0.50740  0.49350  Biso   1.000  N
  N2       1.0000 0.14330  0.49260  0.50650  Biso   1.000  N
  C1       1.0000 0.66870  0.23800  0.42970  Biso   1.000  C
  C2       1.0000 0.33130  0.76200  0.57030  Biso   1.000  C
  C3       1.0000 0.77504  0.08555  0.38303  Biso   1.000  C
  C4       1.0000 0.22496  0.91445  0.61697  Biso   1.000  C
  C5       1.0000 0.94454  0.03083  0.35170  Biso   1.000  C
  C6       1.0000 0.05546  0.96917  0.64830  Biso   1.000  C
  H1       1.0000 0.99190  0.08630  0.36660  Biso   1.000  H
  H2       1.0000 0.00810  0.91370  0.63340  Biso   1.000  H
  C7       1.0000 0.04481  0.89490  0.29870  Biso   1.000  C
  C8       1.0000 0.95519  0.10510  0.70130  Biso   1.000  C
  H3       1.0000 0.16070  0.85750  0.27730  Biso   1.000  H
  H4       1.0000 0.83930  0.14250  0.72270  Biso   1.000  H
  C9       1.0000 0.97560  0.81372  0.27694  Biso   1.000  C
  C10      1.0000 0.02440  0.18628  0.72306  Biso   1.000  C
  H5       1.0000 0.04410  0.72080  0.24070  Biso   1.000  H
  H6       1.0000 0.95590  0.27920  0.75930  Biso   1.000  H
  C11      1.0000 0.80610  0.86844  0.30820  Biso   1.000  C
  C12      1.0000 0.19390  0.13156  0.69180  Biso   1.000  C
  H7       1.0000 0.75880  0.81290  0.29340  Biso   1.000  H
  H8       1.0000 0.24120  0.18710  0.70660  Biso   1.000  H
  C13      1.0000 0.70581  0.00436  0.36130  Biso   1.000  C
  C14      1.0000 0.29419  0.99564  0.63870  Biso   1.000  C
  H9       1.0000 0.59000  0.04180  0.38270  Biso   1.000  H
  H10      1.0000 0.41000  0.95820  0.61730  Biso   1.000  H
  C15      1.0000 0.54330  0.62590  0.24660  Biso   1.000  C
  C16      1.0000 0.45670  0.37410  0.75340  Biso   1.000  C
  C17      1.0000 0.56370  0.70470  0.09925  Biso   1.000  C
  C18      1.0000 0.43630  0.29530  0.90075  Biso   1.000  C
  C19      1.0000 0.47520  0.70240  0.02719  Biso   1.000  C
  C20      1.0000 0.52480  0.29760  0.97281  Biso   1.000  C
  H11      1.0000 0.40270  0.64910  0.07140  Biso   1.000  H
  H12      1.0000 0.59730  0.35090  0.92860  Biso   1.000  H
  C21      1.0000 0.49290  0.77800  0.89051  Biso   1.000  C
  C22      1.0000 0.50710  0.22200  0.10949  Biso   1.000  C
  H13      1.0000 0.43240  0.77640  0.84130  Biso   1.000  H
  H14      1.0000 0.56760  0.22360  0.15870  Biso   1.000  H
  C23      1.0000 0.59900  0.85600  0.82589  Biso   1.000  C
  C24      1.0000 0.40100  0.14400  0.17411  Biso   1.000  C
  H15      1.0000 0.61100  0.90770  0.73250  Biso   1.000  H
  H16      1.0000 0.38900  0.09230  0.26750  Biso   1.000  H
  C25      1.0000 0.68740  0.85830  0.89800  Biso   1.000  C
  C26      1.0000 0.31260  0.14170  0.10200  Biso   1.000  C
  H17      1.0000 0.75990  0.91160  0.85380  Biso   1.000  H
  H18      1.0000 0.24010  0.08840  0.14620  Biso   1.000  H
  C27      1.0000 0.66980  0.78270  0.03463  Biso   1.000  C
  C28      1.0000 0.33020  0.21730  0.96537  Biso   1.000  C
  H19      1.0000 0.73030  0.78430  0.08390  Biso   1.000  H
  H20      1.0000 0.26970  0.21570  0.91610  Biso   1.000  H
  C29      1.0000 0.00410  0.43170  0.41040  Biso   1.000  C
  C30      1.0000 0.99590  0.56830  0.58960  Biso   1.000  C
  H21      1.0000 0.01100  0.38210  0.34540  Biso   1.000  H
  H22      1.0000 0.98900  0.61790  0.65460  Biso   1.000  H
  C31      1.0000 0.85290  0.57600  0.58280  Biso   1.000  C
  C32      1.0000 0.14710  0.42400  0.41720  Biso   1.000  C
  H23      1.0000 0.74990  0.63130  0.64290  Biso   1.000  H
  H24      1.0000 0.25010  0.36870  0.35710  Biso   1.000  H
  C33      1.0000 0.08350  0.66100  0.96390  Biso   1.000  C
  C34      1.0000 0.91650  0.33900  0.03610  Biso   1.000  C
  H25      1.0000 0.03140  0.77300  0.95130  Biso   1.000  H
  H26      1.0000 0.96860  0.22700  0.04870  Biso   1.000  H
  H27      1.0000 0.20280  0.62850  0.93780  Biso   1.000  H
  H28      1.0000 0.79720  0.37150  0.06220  Biso   1.000  H
  H29      1.0000 0.04080  0.61710  0.06140  Biso   1.000  H
  H30      1.0000 0.95920  0.38290  0.93860  Biso   1.000  H
  O9       1.0000 0.04830  0.60680  0.87870  Biso   1.000  O
  O10      1.0000 0.95170  0.39320  0.12130  Biso   1.000  O
  H31      1.0000 0.94650  0.64630  0.89160  Biso   1.000  H
  H32      1.0000 0.05350  0.35370  0.10840  Biso   1.000  H
  C35      1.0000 0.14230  0.66830  0.94390  Biso   1.000  C
  C36      1.0000 0.85770  0.33170  0.05610  Biso   1.000  C
  H33      1.0000 0.10480  0.77390  0.95670  Biso   1.000  H
  H34      1.0000 0.89520  0.22610  0.04330  Biso   1.000  H
  H35      1.0000 0.07550  0.66470  0.89850  Biso   1.000  H
  H36      1.0000 0.92450  0.33530  0.10150  Biso   1.000  H
  H37      1.0000 0.25800  0.63400  0.88580  Biso   1.000  H
  H38      1.0000 0.74200  0.36600  0.11420  Biso   1.000  H
  O11      1.0000 0.12610  0.57110  0.07390  Biso   1.000  O
  O12      1.0000 0.87390  0.42890  0.92610  Biso   1.000  O
  H39      1.0000 0.17760  0.57920  0.11530  Biso   1.000  H
  H40      1.0000 0.82240  0.42080  0.88470  Biso   1.000  H
