data_image0
_cell_length_a       14.8269
_cell_length_b       6.894
_cell_length_c       3.4436
_cell_angle_alpha    90
_cell_angle_beta     90.039
_cell_angle_gamma    90

_symmetry_space_group_name_H-M    "P 1"
_symmetry_int_tables_number       1

loop_
  _symmetry_equiv_pos_as_xyz
  'x, y, z'

loop_
  _atom_site_label
  _atom_site_occupancy
  _atom_site_fract_x
  _atom_site_fract_y
  _atom_site_fract_z
  _atom_site_thermal_displace_type
  _atom_site_B_iso_or_equiv
  _atom_site_type_symbol
  Cu1      1.0000 0.50000  0.50000  0.50000  Biso   1.000  Cu
  Cu2      1.0000 0.00000  0.00000  0.50000  Biso   1.000  Cu
  C1       1.0000 0.42358  0.10080  0.44870  Biso   1.000  C
  C2       1.0000 0.57642  0.10080  0.55130  Biso   1.000  C
  C3       1.0000 0.92358  0.60080  0.44870  Biso   1.000  C
  C4       1.0000 0.07642  0.60080  0.55130  Biso   1.000  C
  C5       1.0000 0.57642  0.89920  0.55130  Biso   1.000  C
  C6       1.0000 0.42358  0.89920  0.44870  Biso   1.000  C
  C7       1.0000 0.07642  0.39920  0.55130  Biso   1.000  C
  C8       1.0000 0.92358  0.39920  0.44870  Biso   1.000  C
  H1       1.0000 0.36850  0.16860  0.41170  Biso   1.000  H
  H2       1.0000 0.63150  0.16860  0.58830  Biso   1.000  H
  H3       1.0000 0.86850  0.66860  0.41170  Biso   1.000  H
  H4       1.0000 0.13150  0.66860  0.58830  Biso   1.000  H
  H5       1.0000 0.63150  0.83140  0.58830  Biso   1.000  H
  H6       1.0000 0.36850  0.83140  0.41170  Biso   1.000  H
  H7       1.0000 0.13150  0.33140  0.58830  Biso   1.000  H
  H8       1.0000 0.86850  0.33140  0.41170  Biso   1.000  H
  N1       1.0000 0.50000  0.20100  0.50000  Biso   1.000  N
  N2       1.0000 0.00000  0.70100  0.50000  Biso   1.000  N
  N3       1.0000 0.50000  0.79900  0.50000  Biso   1.000  N
  N4       1.0000 0.00000  0.29900  0.50000  Biso   1.000  N
  N5       1.0000 0.40030  0.50000  0.87240  Biso   1.000  N
  N6       1.0000 0.59970  0.50000  0.12760  Biso   1.000  N
  N7       1.0000 0.90030  0.00000  0.87240  Biso   1.000  N
  N8       1.0000 0.09970  0.00000  0.12760  Biso   1.000  N
  C9       1.0000 0.32430  0.50000  0.96700  Biso   1.000  C
  C10      1.0000 0.67570  0.50000  0.03300  Biso   1.000  C
  C11      1.0000 0.82430  0.00000  0.96700  Biso   1.000  C
  C12      1.0000 0.17570  0.00000  0.03300  Biso   1.000  C
  O1       1.0000 0.24750  0.50000  0.07650  Biso   1.000  O
  O2       1.0000 0.75250  0.50000  0.92350  Biso   1.000  O
  O3       1.0000 0.74750  0.00000  0.07650  Biso   1.000  O
  O4       1.0000 0.25250  0.00000  0.92350  Biso   1.000  O
