data_image0
_cell_length_a       12.4006
_cell_length_b       13.1923
_cell_length_c       14.4294
_cell_angle_alpha    104.022
_cell_angle_beta     107.238
_cell_angle_gamma    99.515

_symmetry_space_group_name_H-M    "P 1"
_symmetry_int_tables_number       1

loop_
  _symmetry_equiv_pos_as_xyz
  'x, y, z'

loop_
  _atom_site_label
  _atom_site_occupancy
  _atom_site_fract_x
  _atom_site_fract_y
  _atom_site_fract_z
  _atom_site_thermal_displace_type
  _atom_site_B_iso_or_equiv
  _atom_site_type_symbol
  Cu1      1.0000 0.03703  0.63080  0.48416  Biso   1.000  Cu
  Cu2      1.0000 0.96297  0.36920  0.51584  Biso   1.000  Cu
  Cu3      1.0000 0.00940  0.62943  0.08530  Biso   1.000  Cu
  Cu4      1.0000 0.99060  0.37057  0.91470  Biso   1.000  Cu
  Cl1      1.0000 0.92208  0.47253  0.36650  Biso   1.000  Cl
  Cl2      1.0000 0.07792  0.52747  0.63350  Biso   1.000  Cl
  Cl3      1.0000 0.07087  0.48572  0.12057  Biso   1.000  Cl
  Cl4      1.0000 0.92913  0.51428  0.87943  Biso   1.000  Cl
  S1       1.0000 0.97977  0.76096  0.35081  Biso   1.000  S
  S2       1.0000 0.02023  0.23904  0.64919  Biso   1.000  S
  S3       1.0000 0.10790  0.77504  0.28914  Biso   1.000  S
  S4       1.0000 0.89210  0.22496  0.71086  Biso   1.000  S
  C1       1.0000 0.15389  0.86489  0.54335  Biso   1.000  C
  C2       1.0000 0.84611  0.13511  0.45665  Biso   1.000  C
  H1       1.0000 0.20970  0.85600  0.50700  Biso   1.000  H
  H2       1.0000 0.79030  0.14400  0.49300  Biso   1.000  H
  H3       1.0000 0.18810  0.93420  0.59940  Biso   1.000  H
  H4       1.0000 0.81190  0.06580  0.40060  Biso   1.000  H
  C3       1.0000 0.04178  0.87194  0.47014  Biso   1.000  C
  C4       1.0000 0.95822  0.12806  0.52986  Biso   1.000  C
  H5       1.0000 0.05660  0.94070  0.45430  Biso   1.000  H
  H6       1.0000 0.94340  0.05930  0.54570  Biso   1.000  H
  H7       1.0000 0.98340  0.87410  0.50440  Biso   1.000  H
  H8       1.0000 0.01660  0.12590  0.49560  Biso   1.000  H
  C5       1.0000 0.08376  0.87976  0.22860  Biso   1.000  C
  C6       1.0000 0.91624  0.12024  0.77140  Biso   1.000  C
  H9       1.0000 0.08910  0.94650  0.28100  Biso   1.000  H
  H10      1.0000 0.91090  0.05350  0.71900  Biso   1.000  H
  H11      1.0000 0.14680  0.89590  0.20130  Biso   1.000  H
  H12      1.0000 0.85320  0.10410  0.79870  Biso   1.000  H
  C7       1.0000 0.96739  0.84969  0.14304  Biso   1.000  C
  C8       1.0000 0.03261  0.15031  0.85696  Biso   1.000  C
  H13      1.0000 0.90480  0.83030  0.17000  Biso   1.000  H
  H14      1.0000 0.09520  0.16970  0.83000  Biso   1.000  H
  H15      1.0000 0.95710  0.91410  0.12120  Biso   1.000  H
  H16      1.0000 0.04290  0.08590  0.87880  Biso   1.000  H
  C9       1.0000 0.28053  0.69082  0.53468  Biso   1.000  C
  C10      1.0000 0.71947  0.30918  0.46532  Biso   1.000  C
  C11      1.0000 0.38900  0.70057  0.52579  Biso   1.000  C
  C12      1.0000 0.61100  0.29943  0.47421  Biso   1.000  C
  H17      1.0000 0.45620  0.74850  0.57970  Biso   1.000  H
  H18      1.0000 0.54380  0.25150  0.42030  Biso   1.000  H
  C13      1.0000 0.39900  0.63991  0.43764  Biso   1.000  C
  C14      1.0000 0.60100  0.36009  0.56236  Biso   1.000  C
  H19      1.0000 0.47320  0.64620  0.43020  Biso   1.000  H
  H20      1.0000 0.52680  0.35380  0.56980  Biso   1.000  H
  C15      1.0000 0.30082  0.57029  0.36061  Biso   1.000  C
  C16      1.0000 0.69918  0.42971  0.63939  Biso   1.000  C
  H21      1.0000 0.30610  0.52810  0.29940  Biso   1.000  H
  H22      1.0000 0.69390  0.47190  0.70060  Biso   1.000  H
  C17      1.0000 0.19448  0.56311  0.37412  Biso   1.000  C
  C18      1.0000 0.80552  0.43689  0.62588  Biso   1.000  C
  H23      1.0000 0.12640  0.51490  0.32140  Biso   1.000  H
  H24      1.0000 0.87360  0.48510  0.67860  Biso   1.000  H
  C19      1.0000 0.25816  0.75295  0.62631  Biso   1.000  C
  C20      1.0000 0.74184  0.24705  0.37369  Biso   1.000  C
  H25      1.0000 0.25890  0.71010  0.67400  Biso   1.000  H
  H26      1.0000 0.74110  0.28990  0.32600  Biso   1.000  H
  H27      1.0000 0.31940  0.82170  0.66260  Biso   1.000  H
  H28      1.0000 0.68060  0.17830  0.33740  Biso   1.000  H
  C21      1.0000 0.96114  0.75264  0.62930  Biso   1.000  C
  C22      1.0000 0.03886  0.24736  0.37070  Biso   1.000  C
  C23      1.0000 0.89166  0.78424  0.68514  Biso   1.000  C
  C24      1.0000 0.10834  0.21576  0.31486  Biso   1.000  C
  H29      1.0000 0.92440  0.84100  0.74810  Biso   1.000  H
  H30      1.0000 0.07560  0.15900  0.25190  Biso   1.000  H
  C25      1.0000 0.77520  0.73216  0.64785  Biso   1.000  C
  C26      1.0000 0.22480  0.26784  0.35215  Biso   1.000  C
  H31      1.0000 0.72660  0.75150  0.68560  Biso   1.000  H
  H32      1.0000 0.27340  0.24850  0.31440  Biso   1.000  H
  C27      1.0000 0.72880  0.65122  0.55485  Biso   1.000  C
  C28      1.0000 0.27120  0.34878  0.44515  Biso   1.000  C
  H33      1.0000 0.64830  0.61430  0.52810  Biso   1.000  H
  H34      1.0000 0.35170  0.38570  0.47190  Biso   1.000  H
  C29      1.0000 0.80150  0.62510  0.50158  Biso   1.000  C
  C30      1.0000 0.19850  0.37490  0.49842  Biso   1.000  C
  H35      1.0000 0.76950  0.57100  0.43690  Biso   1.000  H
  H36      1.0000 0.23050  0.42900  0.56310  Biso   1.000  H
  C31      1.0000 0.09053  0.79917  0.67016  Biso   1.000  C
  C32      1.0000 0.90947  0.20083  0.32984  Biso   1.000  C
  H37      1.0000 0.10810  0.87850  0.70070  Biso   1.000  H
  H38      1.0000 0.89190  0.12150  0.29930  Biso   1.000  H
  H39      1.0000 0.12690  0.76890  0.72460  Biso   1.000  H
  H40      1.0000 0.87310  0.23110  0.27540  Biso   1.000  H
  C33      1.0000 0.77698  0.64031  0.04716  Biso   1.000  C
  C34      1.0000 0.22302  0.35969  0.95284  Biso   1.000  C
  C35      1.0000 0.66471  0.62492  0.04970  Biso   1.000  C
  C36      1.0000 0.33529  0.37508  0.95030  Biso   1.000  C
  H41      1.0000 0.61180  0.66060  0.01680  Biso   1.000  H
  H42      1.0000 0.38820  0.33940  0.98320  Biso   1.000  H
  C37      1.0000 0.63101  0.55679  0.10101  Biso   1.000  C
  C38      1.0000 0.36899  0.44321  0.89899  Biso   1.000  C
  H43      1.0000 0.55470  0.54560  0.10410  Biso   1.000  H
  H44      1.0000 0.44530  0.45440  0.89590  Biso   1.000  H
  C39      1.0000 0.70883  0.50524  0.14763  Biso   1.000  C
  C40      1.0000 0.29117  0.49476  0.85237  Biso   1.000  C
  H45      1.0000 0.68700  0.45850  0.18350  Biso   1.000  H
  H46      1.0000 0.31300  0.54150  0.81650  Biso   1.000  H
  C41      1.0000 0.81892  0.52258  0.14143  Biso   1.000  C
  C42      1.0000 0.18108  0.47742  0.85857  Biso   1.000  C
  H47      1.0000 0.87240  0.48650  0.17280  Biso   1.000  H
  H48      1.0000 0.12760  0.51350  0.82720  Biso   1.000  H
  C43      1.0000 0.82390  0.71286  0.99447  Biso   1.000  C
  C44      1.0000 0.17610  0.28714  0.00553  Biso   1.000  C
  H49      1.0000 0.80970  0.67120  0.92310  Biso   1.000  H
  H50      1.0000 0.19030  0.32880  0.07690  Biso   1.000  H
  H51      1.0000 0.78420  0.77200  0.99360  Biso   1.000  H
  H52      1.0000 0.21580  0.22800  0.00640  Biso   1.000  H
  C45      1.0000 0.13502  0.77147  0.01492  Biso   1.000  C
  C46      1.0000 0.86498  0.22853  0.98508  Biso   1.000  C
  C47      1.0000 0.22193  0.82157  0.98616  Biso   1.000  C
  C48      1.0000 0.77807  0.17843  0.01384  Biso   1.000  C
  H53      1.0000 0.20800  0.87150  0.94920  Biso   1.000  H
  H54      1.0000 0.79200  0.12850  0.05080  Biso   1.000  H
  C49      1.0000 0.32921  0.79723  0.01242  Biso   1.000  C
  C50      1.0000 0.67079  0.20277  0.98758  Biso   1.000  C
  H55      1.0000 0.38970  0.83000  0.99310  Biso   1.000  H
  H56      1.0000 0.61030  0.17000  0.00690  Biso   1.000  H
  C51      1.0000 0.34743  0.72509  0.06680  Biso   1.000  C
  C52      1.0000 0.65257  0.27491  0.93320  Biso   1.000  C
  H57      1.0000 0.42110  0.70870  0.08660  Biso   1.000  H
  H58      1.0000 0.57890  0.29130  0.91340  Biso   1.000  H
  C53      1.0000 0.25727  0.67687  0.09219  Biso   1.000  C
  C54      1.0000 0.74273  0.32313  0.90781  Biso   1.000  C
  H59      1.0000 0.26960  0.62650  0.12900  Biso   1.000  H
  H60      1.0000 0.73040  0.37350  0.87100  Biso   1.000  H
  C55      1.0000 0.01538  0.79174  0.98669  Biso   1.000  C
  C56      1.0000 0.98462  0.20826  0.01331  Biso   1.000  C
  H61      1.0000 0.02280  0.86960  0.99510  Biso   1.000  H
  H62      1.0000 0.97720  0.13040  0.00490  Biso   1.000  H
  H63      1.0000 0.97020  0.75100  0.91410  Biso   1.000  H
  H64      1.0000 0.02980  0.24900  0.08590  Biso   1.000  H
  N1       1.0000 0.14152  0.77498  0.58888  Biso   1.000  N
  N2       1.0000 0.85848  0.22502  0.41112  Biso   1.000  N
  N3       1.0000 0.95163  0.75829  0.05123  Biso   1.000  N
  N4       1.0000 0.04837  0.24171  0.94877  Biso   1.000  N
  N5       1.0000 0.18456  0.62228  0.45947  Biso   1.000  N
  N6       1.0000 0.81544  0.37772  0.54053  Biso   1.000  N
  N7       1.0000 0.91615  0.67415  0.53878  Biso   1.000  N
  N8       1.0000 0.08385  0.32585  0.46122  Biso   1.000  N
  N9       1.0000 0.85235  0.58909  0.09228  Biso   1.000  N
  N10      1.0000 0.14765  0.41091  0.90772  Biso   1.000  N
  N11      1.0000 0.15236  0.69951  0.06610  Biso   1.000  N
  N12      1.0000 0.84764  0.30049  0.93390  Biso   1.000  N
  B1       1.0000 0.67060  0.95060  0.17000  Biso   1.000  B
  B2       1.0000 0.32940  0.04940  0.83000  Biso   1.000  B
  F1       1.0000 0.61030  0.85790  0.08970  Biso   1.000  F
  F2       1.0000 0.38970  0.14210  0.91030  Biso   1.000  F
  F3       1.0000 0.60680  0.96930  0.23447  Biso   1.000  F
  F4       1.0000 0.39320  0.03070  0.76553  Biso   1.000  F
  F5       1.0000 0.77700  0.93800  0.22520  Biso   1.000  F
  F6       1.0000 0.22300  0.06200  0.77480  Biso   1.000  F
  F7       1.0000 0.68440  0.03800  0.13470  Biso   1.000  F
  F8       1.0000 0.31560  0.96200  0.86530  Biso   1.000  F
  B3       1.0000 0.69060  0.94650  0.15760  Biso   1.000  B
  B4       1.0000 0.30940  0.05350  0.84240  Biso   1.000  B
  F9       1.0000 0.76060  0.97920  0.10520  Biso   1.000  F
  F10      1.0000 0.23940  0.02080  0.89480  Biso   1.000  F
  F11      1.0000 0.60370  0.85360  0.09610  Biso   1.000  F
  F12      1.0000 0.39630  0.14640  0.90390  Biso   1.000  F
  F13      1.0000 0.76570  0.93100  0.24210  Biso   1.000  F
  F14      1.0000 0.23430  0.06900  0.75790  Biso   1.000  F
  F15      1.0000 0.64380  0.02680  0.19000  Biso   1.000  F
  F16      1.0000 0.35620  0.97320  0.81000  Biso   1.000  F
  B5       1.0000 0.67750  0.95660  0.14380  Biso   1.000  B
  B6       1.0000 0.32250  0.04340  0.85620  Biso   1.000  B
  F17      1.0000 0.78450  0.97750  0.13200  Biso   1.000  F
  F18      1.0000 0.21550  0.02250  0.86800  Biso   1.000  F
  F19      1.0000 0.62500  0.84790  0.09000  Biso   1.000  F
  F20      1.0000 0.37500  0.15210  0.91000  Biso   1.000  F
  F21      1.0000 0.68830  0.97190  0.24480  Biso   1.000  F
  F22      1.0000 0.31170  0.02810  0.75520  Biso   1.000  F
  F23      1.0000 0.61690  0.02390  0.10660  Biso   1.000  F
  F24      1.0000 0.38310  0.97610  0.89340  Biso   1.000  F
  B7       1.0000 0.49350  0.41690  0.26220  Biso   1.000  B
  B8       1.0000 0.50650  0.58310  0.73780  Biso   1.000  B
  F25      1.0000 0.42160  0.43880  0.18090  Biso   1.000  F
  F26      1.0000 0.57840  0.56120  0.81910  Biso   1.000  F
  F27      1.0000 0.56680  0.51200  0.33080  Biso   1.000  F
  F28      1.0000 0.43320  0.48800  0.66920  Biso   1.000  F
  F29      1.0000 0.42680  0.36620  0.30610  Biso   1.000  F
  F30      1.0000 0.57320  0.63380  0.69390  Biso   1.000  F
  F31      1.0000 0.55870  0.35140  0.22940  Biso   1.000  F
  F32      1.0000 0.44130  0.64860  0.77060  Biso   1.000  F
  B9       1.0000 0.48610  0.41630  0.27170  Biso   1.000  B
  B10      1.0000 0.51390  0.58370  0.72830  Biso   1.000  B
  F33      1.0000 0.50750  0.51890  0.25860  Biso   1.000  F
  F34      1.0000 0.49250  0.48110  0.74140  Biso   1.000  F
  F35      1.0000 0.48740  0.43050  0.36970  Biso   1.000  F
  F36      1.0000 0.51260  0.56950  0.63030  Biso   1.000  F
  F37      1.0000 0.37740  0.35590  0.20470  Biso   1.000  F
  F38      1.0000 0.62260  0.64410  0.79530  Biso   1.000  F
  F39      1.0000 0.57500  0.36620  0.26110  Biso   1.000  F
  F40      1.0000 0.42500  0.63380  0.73890  Biso   1.000  F
  B11      1.0000 0.48090  0.42060  0.24940  Biso   1.000  B
  B12      1.0000 0.51910  0.57940  0.75060  Biso   1.000  B
  F41      1.0000 0.42980  0.48670  0.19630  Biso   1.000  F
  F42      1.0000 0.57020  0.51330  0.80370  Biso   1.000  F
  F43      1.0000 0.56500  0.48600  0.33510  Biso   1.000  F
  F44      1.0000 0.43500  0.51400  0.66490  Biso   1.000  F
  F45      1.0000 0.39670  0.35510  0.26810  Biso   1.000  F
  F46      1.0000 0.60330  0.64490  0.73190  Biso   1.000  F
  F47      1.0000 0.52200  0.35450  0.18310  Biso   1.000  F
  F48      1.0000 0.47800  0.64550  0.81690  Biso   1.000  F
  C57      1.0000 0.60000  0.89727  0.86623  Biso   1.000  C
  C58      1.0000 0.40000  0.10273  0.13377  Biso   1.000  C
  H65      1.0000 0.55880  0.82280  0.82360  Biso   1.000  H
  H66      1.0000 0.44120  0.17720  0.17640  Biso   1.000  H
  H67      1.0000 0.56290  0.94740  0.83600  Biso   1.000  H
  H68      1.0000 0.43710  0.05260  0.16400  Biso   1.000  H
  H69      1.0000 0.59660  0.90780  0.93480  Biso   1.000  H
  H70      1.0000 0.40340  0.09220  0.06520  Biso   1.000  H
  C59      1.0000 0.72187  0.91804  0.87270  Biso   1.000  C
  C60      1.0000 0.27813  0.08196  0.12730  Biso   1.000  C
  N13      1.0000 0.81741  0.93452  0.87891  Biso   1.000  N
  N14      1.0000 0.18259  0.06548  0.12109  Biso   1.000  N
  C61      1.0000 0.64570  0.76185  0.32104  Biso   1.000  C
  C62      1.0000 0.35430  0.23815  0.67896  Biso   1.000  C
  H71      1.0000 0.68950  0.76250  0.27460  Biso   1.000  H
  H72      1.0000 0.31050  0.23750  0.72540  Biso   1.000  H
  H73      1.0000 0.57240  0.78120  0.29340  Biso   1.000  H
  H74      1.0000 0.42760  0.21880  0.70660  Biso   1.000  H
  H75      1.0000 0.62840  0.68950  0.32810  Biso   1.000  H
  H76      1.0000 0.37160  0.31050  0.67190  Biso   1.000  H
  C63      1.0000 0.71431  0.83893  0.41950  Biso   1.000  C
  C64      1.0000 0.28569  0.16107  0.58050  Biso   1.000  C
  N15      1.0000 0.77023  0.89953  0.49681  Biso   1.000  N
  N16      1.0000 0.22977  0.10047  0.50319  Biso   1.000  N
