data_image0
_cell_length_a       15.731
_cell_length_b       15.731
_cell_length_c       19.115
_cell_angle_alpha    90
_cell_angle_beta     90
_cell_angle_gamma    90

_symmetry_space_group_name_H-M    "P 1"
_symmetry_int_tables_number       1

loop_
  _symmetry_equiv_pos_as_xyz
  'x, y, z'

loop_
  _atom_site_label
  _atom_site_occupancy
  _atom_site_fract_x
  _atom_site_fract_y
  _atom_site_fract_z
  _atom_site_thermal_displace_type
  _atom_site_B_iso_or_equiv
  _atom_site_type_symbol
  Cu1      1.0000 0.05772  0.05772  0.02471  Biso   1.000  Cu
  Cu2      1.0000 0.44228  0.05772  0.52471  Biso   1.000  Cu
  Cu3      1.0000 0.44228  0.44228  0.02471  Biso   1.000  Cu
  Cu4      1.0000 0.05772  0.44228  0.52471  Biso   1.000  Cu
  Cu5      1.0000 0.94228  0.94228  0.97529  Biso   1.000  Cu
  Cu6      1.0000 0.55772  0.94228  0.47529  Biso   1.000  Cu
  Cu7      1.0000 0.55772  0.55772  0.97529  Biso   1.000  Cu
  Cu8      1.0000 0.94228  0.55772  0.47529  Biso   1.000  Cu
  O1       1.0000 0.08770  0.96690  0.08920  Biso   1.000  O
  O2       1.0000 0.53310  0.08770  0.58920  Biso   1.000  O
  O3       1.0000 0.41230  0.53310  0.08920  Biso   1.000  O
  O4       1.0000 0.96690  0.41230  0.58920  Biso   1.000  O
  O5       1.0000 0.41230  0.96690  0.58920  Biso   1.000  O
  O6       1.0000 0.96690  0.08770  0.08920  Biso   1.000  O
  O7       1.0000 0.08770  0.53310  0.58920  Biso   1.000  O
  O8       1.0000 0.53310  0.41230  0.08920  Biso   1.000  O
  O9       1.0000 0.91230  0.03310  0.91080  Biso   1.000  O
  O10      1.0000 0.46690  0.91230  0.41080  Biso   1.000  O
  O11      1.0000 0.58770  0.46690  0.91080  Biso   1.000  O
  O12      1.0000 0.03310  0.58770  0.41080  Biso   1.000  O
  O13      1.0000 0.58770  0.03310  0.41080  Biso   1.000  O
  O14      1.0000 0.03310  0.91230  0.91080  Biso   1.000  O
  O15      1.0000 0.91230  0.46690  0.41080  Biso   1.000  O
  O16      1.0000 0.46690  0.58770  0.91080  Biso   1.000  O
  O17      1.0000 0.00580  0.12960  0.95200  Biso   1.000  O
  O18      1.0000 0.37040  0.00580  0.45200  Biso   1.000  O
  O19      1.0000 0.49420  0.37040  0.95200  Biso   1.000  O
  O20      1.0000 0.12960  0.49420  0.45200  Biso   1.000  O
  O21      1.0000 0.49420  0.12960  0.45200  Biso   1.000  O
  O22      1.0000 0.12960  0.00580  0.95200  Biso   1.000  O
  O23      1.0000 0.00580  0.37040  0.45200  Biso   1.000  O
  O24      1.0000 0.37040  0.49420  0.95200  Biso   1.000  O
  O25      1.0000 0.99420  0.87040  0.04800  Biso   1.000  O
  O26      1.0000 0.62960  0.99420  0.54800  Biso   1.000  O
  O27      1.0000 0.50580  0.62960  0.04800  Biso   1.000  O
  O28      1.0000 0.87040  0.50580  0.54800  Biso   1.000  O
  O29      1.0000 0.50580  0.87040  0.54800  Biso   1.000  O
  O30      1.0000 0.87040  0.99420  0.04800  Biso   1.000  O
  O31      1.0000 0.99420  0.62960  0.54800  Biso   1.000  O
  O32      1.0000 0.62960  0.50580  0.04800  Biso   1.000  O
  C1       1.0000 0.05040  0.89710  0.08770  Biso   1.000  C
  C2       1.0000 0.60290  0.05040  0.58770  Biso   1.000  C
  C3       1.0000 0.44960  0.60290  0.08770  Biso   1.000  C
  C4       1.0000 0.89710  0.44960  0.58770  Biso   1.000  C
  C5       1.0000 0.44960  0.89710  0.58770  Biso   1.000  C
  C6       1.0000 0.89710  0.05040  0.08770  Biso   1.000  C
  C7       1.0000 0.05040  0.60290  0.58770  Biso   1.000  C
  C8       1.0000 0.60290  0.44960  0.08770  Biso   1.000  C
  C9       1.0000 0.94960  0.10290  0.91230  Biso   1.000  C
  C10      1.0000 0.39710  0.94960  0.41230  Biso   1.000  C
  C11      1.0000 0.55040  0.39710  0.91230  Biso   1.000  C
  C12      1.0000 0.10290  0.55040  0.41230  Biso   1.000  C
  C13      1.0000 0.55040  0.10290  0.41230  Biso   1.000  C
  C14      1.0000 0.10290  0.94960  0.91230  Biso   1.000  C
  C15      1.0000 0.94960  0.39710  0.41230  Biso   1.000  C
  C16      1.0000 0.39710  0.55040  0.91230  Biso   1.000  C
  C17      1.0000 0.07780  0.83020  0.14500  Biso   1.000  C
  C18      1.0000 0.66980  0.07780  0.64500  Biso   1.000  C
  C19      1.0000 0.42220  0.66980  0.14500  Biso   1.000  C
  C20      1.0000 0.83020  0.42220  0.64500  Biso   1.000  C
  C21      1.0000 0.42220  0.83020  0.64500  Biso   1.000  C
  C22      1.0000 0.83020  0.07780  0.14500  Biso   1.000  C
  C23      1.0000 0.07780  0.66980  0.64500  Biso   1.000  C
  C24      1.0000 0.66980  0.42220  0.14500  Biso   1.000  C
  C25      1.0000 0.92220  0.16980  0.85500  Biso   1.000  C
  C26      1.0000 0.33020  0.92220  0.35500  Biso   1.000  C
  C27      1.0000 0.57780  0.33020  0.85500  Biso   1.000  C
  C28      1.0000 0.16980  0.57780  0.35500  Biso   1.000  C
  C29      1.0000 0.57780  0.16980  0.35500  Biso   1.000  C
  C30      1.0000 0.16980  0.92220  0.85500  Biso   1.000  C
  C31      1.0000 0.92220  0.33020  0.35500  Biso   1.000  C
  C32      1.0000 0.33020  0.57780  0.85500  Biso   1.000  C
  N1       1.0000 0.15160  0.15160  0.04200  Biso   1.000  N
  N2       1.0000 0.34840  0.15160  0.54200  Biso   1.000  N
  N3       1.0000 0.34840  0.34840  0.04200  Biso   1.000  N
  N4       1.0000 0.15160  0.34840  0.54200  Biso   1.000  N
  N5       1.0000 0.84840  0.84840  0.95800  Biso   1.000  N
  N6       1.0000 0.65160  0.84840  0.45800  Biso   1.000  N
  N7       1.0000 0.65160  0.65160  0.95800  Biso   1.000  N
  N8       1.0000 0.84840  0.65160  0.45800  Biso   1.000  N
  O33      1.0000 0.35610  0.35610  0.07100  Biso   1.000  O
  O34      1.0000 0.14390  0.35610  0.57100  Biso   1.000  O
  O35      1.0000 0.14390  0.14390  0.07100  Biso   1.000  O
  O36      1.0000 0.35610  0.14390  0.57100  Biso   1.000  O
  O37      1.0000 0.64390  0.64390  0.92900  Biso   1.000  O
  O38      1.0000 0.85610  0.64390  0.42900  Biso   1.000  O
  O39      1.0000 0.85610  0.85610  0.92900  Biso   1.000  O
  O40      1.0000 0.64390  0.85610  0.42900  Biso   1.000  O
  C33      1.0000 0.18300  0.18300  0.97300  Biso   1.000  C
  C34      1.0000 0.31700  0.18300  0.47300  Biso   1.000  C
  C35      1.0000 0.31700  0.31700  0.97300  Biso   1.000  C
  C36      1.0000 0.18300  0.31700  0.47300  Biso   1.000  C
  C37      1.0000 0.81700  0.81700  0.02700  Biso   1.000  C
  C38      1.0000 0.68300  0.81700  0.52700  Biso   1.000  C
  C39      1.0000 0.68300  0.68300  0.02700  Biso   1.000  C
  C40      1.0000 0.81700  0.68300  0.52700  Biso   1.000  C
  C41      1.0000 0.29040  0.29040  0.92600  Biso   1.000  C
  C42      1.0000 0.20960  0.29040  0.42600  Biso   1.000  C
  C43      1.0000 0.20960  0.20960  0.92600  Biso   1.000  C
  C44      1.0000 0.29040  0.20960  0.42600  Biso   1.000  C
  C45      1.0000 0.70960  0.70960  0.07400  Biso   1.000  C
  C46      1.0000 0.79040  0.70960  0.57400  Biso   1.000  C
  C47      1.0000 0.79040  0.79040  0.07400  Biso   1.000  C
  C48      1.0000 0.70960  0.79040  0.57400  Biso   1.000  C
  N9       1.0000 0.19672  0.19672  0.15850  Biso   1.000  N
  N10      1.0000 0.30328  0.19672  0.65850  Biso   1.000  N
  N11      1.0000 0.30328  0.30328  0.15850  Biso   1.000  N
  N12      1.0000 0.19672  0.30328  0.65850  Biso   1.000  N
  N13      1.0000 0.80328  0.80328  0.84150  Biso   1.000  N
  N14      1.0000 0.69672  0.80328  0.34150  Biso   1.000  N
  N15      1.0000 0.69672  0.69672  0.84150  Biso   1.000  N
  N16      1.0000 0.80328  0.69672  0.34150  Biso   1.000  N
  C49      1.0000 0.19746  0.19746  0.08790  Biso   1.000  C
  C50      1.0000 0.30254  0.19746  0.58790  Biso   1.000  C
  C51      1.0000 0.30254  0.30254  0.08790  Biso   1.000  C
  C52      1.0000 0.19746  0.30254  0.58790  Biso   1.000  C
  C53      1.0000 0.80254  0.80254  0.91210  Biso   1.000  C
  C54      1.0000 0.69746  0.80254  0.41210  Biso   1.000  C
  C55      1.0000 0.69746  0.69746  0.91210  Biso   1.000  C
  C56      1.0000 0.80254  0.69746  0.41210  Biso   1.000  C
  C57      1.0000 0.13960  0.13960  0.19790  Biso   1.000  C
  C58      1.0000 0.36040  0.13960  0.69790  Biso   1.000  C
  C59      1.0000 0.36040  0.36040  0.19790  Biso   1.000  C
  C60      1.0000 0.13960  0.36040  0.69790  Biso   1.000  C
  C61      1.0000 0.86040  0.86040  0.80210  Biso   1.000  C
  C62      1.0000 0.63960  0.86040  0.30210  Biso   1.000  C
  C63      1.0000 0.63960  0.63960  0.80210  Biso   1.000  C
  C64      1.0000 0.86040  0.63960  0.30210  Biso   1.000  C
  O41      1.0000 0.25000  0.25000  0.26000  Biso   1.000  O
  O42      1.0000 0.25000  0.25000  0.76000  Biso   1.000  O
  O43      1.0000 0.75000  0.75000  0.74000  Biso   1.000  O
  O44      1.0000 0.75000  0.75000  0.24000  Biso   1.000  O
  N17      1.0000 0.25000  0.25000  0.98230  Biso   1.000  N
  N18      1.0000 0.25000  0.25000  0.48230  Biso   1.000  N
  N19      1.0000 0.75000  0.75000  0.01770  Biso   1.000  N
  N20      1.0000 0.75000  0.75000  0.51770  Biso   1.000  N
  C65      1.0000 0.25000  0.25000  0.19400  Biso   1.000  C
  C66      1.0000 0.25000  0.25000  0.69400  Biso   1.000  C
  C67      1.0000 0.75000  0.75000  0.80600  Biso   1.000  C
  C68      1.0000 0.75000  0.75000  0.30600  Biso   1.000  C
  C69      1.0000 0.25000  0.25000  0.05570  Biso   1.000  C
  C70      1.0000 0.25000  0.25000  0.55570  Biso   1.000  C
  C71      1.0000 0.75000  0.75000  0.94430  Biso   1.000  C
  C72      1.0000 0.75000  0.75000  0.44430  Biso   1.000  C
  Cl1      1.0000 0.98420  0.78930  0.18560  Biso   1.000  Cl
  Cl2      1.0000 0.71070  0.98420  0.68560  Biso   1.000  Cl
  Cl3      1.0000 0.51580  0.71070  0.18560  Biso   1.000  Cl
  Cl4      1.0000 0.78930  0.51580  0.68560  Biso   1.000  Cl
  Cl5      1.0000 0.51580  0.78930  0.68560  Biso   1.000  Cl
  Cl6      1.0000 0.78930  0.98420  0.18560  Biso   1.000  Cl
  Cl7      1.0000 0.98420  0.71070  0.68560  Biso   1.000  Cl
  Cl8      1.0000 0.71070  0.51580  0.18560  Biso   1.000  Cl
  Cl9      1.0000 0.01580  0.21070  0.81440  Biso   1.000  Cl
  Cl10     1.0000 0.28930  0.01580  0.31440  Biso   1.000  Cl
  Cl11     1.0000 0.48420  0.28930  0.81440  Biso   1.000  Cl
  Cl12     1.0000 0.21070  0.48420  0.31440  Biso   1.000  Cl
  Cl13     1.0000 0.48420  0.21070  0.31440  Biso   1.000  Cl
  Cl14     1.0000 0.21070  0.01580  0.81440  Biso   1.000  Cl
  Cl15     1.0000 0.01580  0.28930  0.31440  Biso   1.000  Cl
  Cl16     1.0000 0.28930  0.48420  0.81440  Biso   1.000  Cl
  Cl17     1.0000 0.14620  0.86930  0.20720  Biso   1.000  Cl
  Cl18     1.0000 0.63070  0.14620  0.70720  Biso   1.000  Cl
  Cl19     1.0000 0.35380  0.63070  0.20720  Biso   1.000  Cl
  Cl20     1.0000 0.86930  0.35380  0.70720  Biso   1.000  Cl
  Cl21     1.0000 0.35380  0.86930  0.70720  Biso   1.000  Cl
  Cl22     1.0000 0.86930  0.14620  0.20720  Biso   1.000  Cl
  Cl23     1.0000 0.14620  0.63070  0.70720  Biso   1.000  Cl
  Cl24     1.0000 0.63070  0.35380  0.20720  Biso   1.000  Cl
  Cl25     1.0000 0.85380  0.13070  0.79280  Biso   1.000  Cl
  Cl26     1.0000 0.36930  0.85380  0.29280  Biso   1.000  Cl
  Cl27     1.0000 0.64620  0.36930  0.79280  Biso   1.000  Cl
  Cl28     1.0000 0.13070  0.64620  0.29280  Biso   1.000  Cl
  Cl29     1.0000 0.64620  0.13070  0.29280  Biso   1.000  Cl
  Cl30     1.0000 0.13070  0.85380  0.79280  Biso   1.000  Cl
  Cl31     1.0000 0.85380  0.36930  0.29280  Biso   1.000  Cl
  Cl32     1.0000 0.36930  0.64620  0.79280  Biso   1.000  Cl
  Cl33     1.0000 0.13500  0.74470  0.09210  Biso   1.000  Cl
  Cl34     1.0000 0.75530  0.13500  0.59210  Biso   1.000  Cl
  Cl35     1.0000 0.36500  0.75530  0.09210  Biso   1.000  Cl
  Cl36     1.0000 0.74470  0.36500  0.59210  Biso   1.000  Cl
  Cl37     1.0000 0.36500  0.74470  0.59210  Biso   1.000  Cl
  Cl38     1.0000 0.74470  0.13500  0.09210  Biso   1.000  Cl
  Cl39     1.0000 0.13500  0.75530  0.59210  Biso   1.000  Cl
  Cl40     1.0000 0.75530  0.36500  0.09210  Biso   1.000  Cl
  Cl41     1.0000 0.86500  0.25530  0.90790  Biso   1.000  Cl
  Cl42     1.0000 0.24470  0.86500  0.40790  Biso   1.000  Cl
  Cl43     1.0000 0.63500  0.24470  0.90790  Biso   1.000  Cl
  Cl44     1.0000 0.25530  0.63500  0.40790  Biso   1.000  Cl
  Cl45     1.0000 0.63500  0.25530  0.40790  Biso   1.000  Cl
  Cl46     1.0000 0.25530  0.86500  0.90790  Biso   1.000  Cl
  Cl47     1.0000 0.86500  0.24470  0.40790  Biso   1.000  Cl
  Cl48     1.0000 0.24470  0.63500  0.90790  Biso   1.000  Cl
  Cl49     1.0000 0.99400  0.83700  0.20900  Biso   1.000  Cl
  Cl50     1.0000 0.66300  0.99400  0.70900  Biso   1.000  Cl
  Cl51     1.0000 0.50600  0.66300  0.20900  Biso   1.000  Cl
  Cl52     1.0000 0.83700  0.50600  0.70900  Biso   1.000  Cl
  Cl53     1.0000 0.50600  0.83700  0.70900  Biso   1.000  Cl
  Cl54     1.0000 0.83700  0.99400  0.20900  Biso   1.000  Cl
  Cl55     1.0000 0.99400  0.66300  0.70900  Biso   1.000  Cl
  Cl56     1.0000 0.66300  0.50600  0.20900  Biso   1.000  Cl
  Cl57     1.0000 0.00600  0.16300  0.79100  Biso   1.000  Cl
  Cl58     1.0000 0.33700  0.00600  0.29100  Biso   1.000  Cl
  Cl59     1.0000 0.49400  0.33700  0.79100  Biso   1.000  Cl
  Cl60     1.0000 0.16300  0.49400  0.29100  Biso   1.000  Cl
  Cl61     1.0000 0.49400  0.16300  0.29100  Biso   1.000  Cl
  Cl62     1.0000 0.16300  0.00600  0.79100  Biso   1.000  Cl
  Cl63     1.0000 0.00600  0.33700  0.29100  Biso   1.000  Cl
  Cl64     1.0000 0.33700  0.49400  0.79100  Biso   1.000  Cl
  Cl65     1.0000 0.01000  0.75700  0.15990  Biso   1.000  Cl
  Cl66     1.0000 0.74300  0.01000  0.65990  Biso   1.000  Cl
  Cl67     1.0000 0.49000  0.74300  0.15990  Biso   1.000  Cl
  Cl68     1.0000 0.75700  0.49000  0.65990  Biso   1.000  Cl
  Cl69     1.0000 0.49000  0.75700  0.65990  Biso   1.000  Cl
  Cl70     1.0000 0.75700  0.01000  0.15990  Biso   1.000  Cl
  Cl71     1.0000 0.01000  0.74300  0.65990  Biso   1.000  Cl
  Cl72     1.0000 0.74300  0.49000  0.15990  Biso   1.000  Cl
  Cl73     1.0000 0.99000  0.24300  0.84010  Biso   1.000  Cl
  Cl74     1.0000 0.25700  0.99000  0.34010  Biso   1.000  Cl
  Cl75     1.0000 0.51000  0.25700  0.84010  Biso   1.000  Cl
  Cl76     1.0000 0.24300  0.51000  0.34010  Biso   1.000  Cl
  Cl77     1.0000 0.51000  0.24300  0.34010  Biso   1.000  Cl
  Cl78     1.0000 0.24300  0.99000  0.84010  Biso   1.000  Cl
  Cl79     1.0000 0.99000  0.25700  0.34010  Biso   1.000  Cl
  Cl80     1.0000 0.25700  0.51000  0.84010  Biso   1.000  Cl
  Cl81     1.0000 0.18300  0.85200  0.18050  Biso   1.000  Cl
  Cl82     1.0000 0.64800  0.18300  0.68050  Biso   1.000  Cl
  Cl83     1.0000 0.31700  0.64800  0.18050  Biso   1.000  Cl
  Cl84     1.0000 0.85200  0.31700  0.68050  Biso   1.000  Cl
  Cl85     1.0000 0.31700  0.85200  0.68050  Biso   1.000  Cl
  Cl86     1.0000 0.85200  0.18300  0.18050  Biso   1.000  Cl
  Cl87     1.0000 0.18300  0.64800  0.68050  Biso   1.000  Cl
  Cl88     1.0000 0.64800  0.31700  0.18050  Biso   1.000  Cl
  Cl89     1.0000 0.81700  0.14800  0.81950  Biso   1.000  Cl
  Cl90     1.0000 0.35200  0.81700  0.31950  Biso   1.000  Cl
  Cl91     1.0000 0.68300  0.35200  0.81950  Biso   1.000  Cl
  Cl92     1.0000 0.14800  0.68300  0.31950  Biso   1.000  Cl
  Cl93     1.0000 0.68300  0.14800  0.31950  Biso   1.000  Cl
  Cl94     1.0000 0.14800  0.81700  0.81950  Biso   1.000  Cl
  Cl95     1.0000 0.81700  0.35200  0.31950  Biso   1.000  Cl
  Cl96     1.0000 0.35200  0.68300  0.81950  Biso   1.000  Cl
  Cl97     1.0000 0.09800  0.90200  0.23100  Biso   1.000  Cl
  Cl98     1.0000 0.59800  0.09800  0.73100  Biso   1.000  Cl
  Cl99     1.0000 0.40200  0.59800  0.23100  Biso   1.000  Cl
  Cl100    1.0000 0.90200  0.40200  0.73100  Biso   1.000  Cl
  Cl101    1.0000 0.40200  0.90200  0.73100  Biso   1.000  Cl
  Cl102    1.0000 0.90200  0.09800  0.23100  Biso   1.000  Cl
  Cl103    1.0000 0.09800  0.59800  0.73100  Biso   1.000  Cl
  Cl104    1.0000 0.59800  0.40200  0.23100  Biso   1.000  Cl
  Cl105    1.0000 0.90200  0.09800  0.76900  Biso   1.000  Cl
  Cl106    1.0000 0.40200  0.90200  0.26900  Biso   1.000  Cl
  Cl107    1.0000 0.59800  0.40200  0.76900  Biso   1.000  Cl
  Cl108    1.0000 0.09800  0.59800  0.26900  Biso   1.000  Cl
  Cl109    1.0000 0.59800  0.09800  0.26900  Biso   1.000  Cl
  Cl110    1.0000 0.09800  0.90200  0.76900  Biso   1.000  Cl
  Cl111    1.0000 0.90200  0.40200  0.26900  Biso   1.000  Cl
  Cl112    1.0000 0.40200  0.59800  0.76900  Biso   1.000  Cl
  Cl113    1.0000 0.09000  0.74200  0.12200  Biso   1.000  Cl
  Cl114    1.0000 0.75800  0.09000  0.62200  Biso   1.000  Cl
  Cl115    1.0000 0.41000  0.75800  0.12200  Biso   1.000  Cl
  Cl116    1.0000 0.74200  0.41000  0.62200  Biso   1.000  Cl
  Cl117    1.0000 0.41000  0.74200  0.62200  Biso   1.000  Cl
  Cl118    1.0000 0.74200  0.09000  0.12200  Biso   1.000  Cl
  Cl119    1.0000 0.09000  0.75800  0.62200  Biso   1.000  Cl
  Cl120    1.0000 0.75800  0.41000  0.12200  Biso   1.000  Cl
  Cl121    1.0000 0.91000  0.25800  0.87800  Biso   1.000  Cl
  Cl122    1.0000 0.24200  0.91000  0.37800  Biso   1.000  Cl
  Cl123    1.0000 0.59000  0.24200  0.87800  Biso   1.000  Cl
  Cl124    1.0000 0.25800  0.59000  0.37800  Biso   1.000  Cl
  Cl125    1.0000 0.59000  0.25800  0.37800  Biso   1.000  Cl
  Cl126    1.0000 0.25800  0.91000  0.87800  Biso   1.000  Cl
  Cl127    1.0000 0.91000  0.24200  0.37800  Biso   1.000  Cl
  Cl128    1.0000 0.24200  0.59000  0.87800  Biso   1.000  Cl
  Cl129    1.0000 0.15000  0.77900  0.12670  Biso   1.000  Cl
  Cl130    1.0000 0.72100  0.15000  0.62670  Biso   1.000  Cl
  Cl131    1.0000 0.35000  0.72100  0.12670  Biso   1.000  Cl
  Cl132    1.0000 0.77900  0.35000  0.62670  Biso   1.000  Cl
  Cl133    1.0000 0.35000  0.77900  0.62670  Biso   1.000  Cl
  Cl134    1.0000 0.77900  0.15000  0.12670  Biso   1.000  Cl
  Cl135    1.0000 0.15000  0.72100  0.62670  Biso   1.000  Cl
  Cl136    1.0000 0.72100  0.35000  0.12670  Biso   1.000  Cl
  Cl137    1.0000 0.85000  0.22100  0.87330  Biso   1.000  Cl
  Cl138    1.0000 0.27900  0.85000  0.37330  Biso   1.000  Cl
  Cl139    1.0000 0.65000  0.27900  0.87330  Biso   1.000  Cl
  Cl140    1.0000 0.22100  0.65000  0.37330  Biso   1.000  Cl
  Cl141    1.0000 0.65000  0.22100  0.37330  Biso   1.000  Cl
  Cl142    1.0000 0.22100  0.85000  0.87330  Biso   1.000  Cl
  Cl143    1.0000 0.85000  0.27900  0.37330  Biso   1.000  Cl
  Cl144    1.0000 0.27900  0.65000  0.87330  Biso   1.000  Cl
  C73      1.0000 0.02700  0.35200  0.03690  Biso   1.000  C
  C74      1.0000 0.14800  0.02700  0.53690  Biso   1.000  C
  C75      1.0000 0.47300  0.14800  0.03690  Biso   1.000  C
  C76      1.0000 0.35200  0.47300  0.53690  Biso   1.000  C
  C77      1.0000 0.47300  0.35200  0.53690  Biso   1.000  C
  C78      1.0000 0.35200  0.02700  0.03690  Biso   1.000  C
  C79      1.0000 0.02700  0.14800  0.53690  Biso   1.000  C
  C80      1.0000 0.14800  0.47300  0.03690  Biso   1.000  C
  C81      1.0000 0.97300  0.64800  0.96310  Biso   1.000  C
  C82      1.0000 0.85200  0.97300  0.46310  Biso   1.000  C
  C83      1.0000 0.52700  0.85200  0.96310  Biso   1.000  C
  C84      1.0000 0.64800  0.52700  0.46310  Biso   1.000  C
  C85      1.0000 0.52700  0.64800  0.46310  Biso   1.000  C
  C86      1.0000 0.64800  0.97300  0.96310  Biso   1.000  C
  C87      1.0000 0.97300  0.85200  0.46310  Biso   1.000  C
  C88      1.0000 0.85200  0.52700  0.96310  Biso   1.000  C
  C89      1.0000 0.03300  0.35100  0.11370  Biso   1.000  C
  C90      1.0000 0.14900  0.03300  0.61370  Biso   1.000  C
  C91      1.0000 0.46700  0.14900  0.11370  Biso   1.000  C
  C92      1.0000 0.35100  0.46700  0.61370  Biso   1.000  C
  C93      1.0000 0.46700  0.35100  0.61370  Biso   1.000  C
  C94      1.0000 0.35100  0.03300  0.11370  Biso   1.000  C
  C95      1.0000 0.03300  0.14900  0.61370  Biso   1.000  C
  C96      1.0000 0.14900  0.46700  0.11370  Biso   1.000  C
  C97      1.0000 0.96700  0.64900  0.88630  Biso   1.000  C
  C98      1.0000 0.85100  0.96700  0.38630  Biso   1.000  C
  C99      1.0000 0.53300  0.85100  0.88630  Biso   1.000  C
  C100     1.0000 0.64900  0.53300  0.38630  Biso   1.000  C
  C101     1.0000 0.53300  0.64900  0.38630  Biso   1.000  C
  C102     1.0000 0.64900  0.96700  0.88630  Biso   1.000  C
  C103     1.0000 0.96700  0.85100  0.38630  Biso   1.000  C
  C104     1.0000 0.85100  0.53300  0.88630  Biso   1.000  C
  C105     1.0000 0.08900  0.41100  0.13500  Biso   1.000  C
  C106     1.0000 0.08900  0.08900  0.63500  Biso   1.000  C
  C107     1.0000 0.41100  0.08900  0.13500  Biso   1.000  C
  C108     1.0000 0.41100  0.41100  0.63500  Biso   1.000  C
  C109     1.0000 0.91100  0.58900  0.86500  Biso   1.000  C
  C110     1.0000 0.91100  0.91100  0.36500  Biso   1.000  C
  C111     1.0000 0.58900  0.91100  0.86500  Biso   1.000  C
  C112     1.0000 0.58900  0.58900  0.36500  Biso   1.000  C
  C113     1.0000 0.08957  0.41043  0.00400  Biso   1.000  C
  C114     1.0000 0.08957  0.08957  0.50400  Biso   1.000  C
  C115     1.0000 0.41043  0.08957  0.00400  Biso   1.000  C
  C116     1.0000 0.41043  0.41043  0.50400  Biso   1.000  C
  C117     1.0000 0.91043  0.58957  0.99600  Biso   1.000  C
  C118     1.0000 0.91043  0.91043  0.49600  Biso   1.000  C
  C119     1.0000 0.58957  0.91043  0.99600  Biso   1.000  C
  C120     1.0000 0.58957  0.58957  0.49600  Biso   1.000  C
  C121     1.0000 0.08180  0.41820  0.94100  Biso   1.000  C
  C122     1.0000 0.08180  0.08180  0.44100  Biso   1.000  C
  C123     1.0000 0.41820  0.08180  0.94100  Biso   1.000  C
  C124     1.0000 0.41820  0.41820  0.44100  Biso   1.000  C
  C125     1.0000 0.91820  0.58180  0.05900  Biso   1.000  C
  C126     1.0000 0.91820  0.91820  0.55900  Biso   1.000  C
  C127     1.0000 0.58180  0.91820  0.05900  Biso   1.000  C
  C128     1.0000 0.58180  0.58180  0.55900  Biso   1.000  C
