data_image0
_cell_length_a       21.2487
_cell_length_b       12.6146
_cell_length_c       14.6206
_cell_angle_alpha    90
_cell_angle_beta     110.2
_cell_angle_gamma    90

_symmetry_space_group_name_H-M    "P 1"
_symmetry_int_tables_number       1

loop_
  _symmetry_equiv_pos_as_xyz
  'x, y, z'

loop_
  _atom_site_label
  _atom_site_occupancy
  _atom_site_fract_x
  _atom_site_fract_y
  _atom_site_fract_z
  _atom_site_thermal_displace_type
  _atom_site_B_iso_or_equiv
  _atom_site_type_symbol
  Cu1      1.0000 0.48381  0.87489  0.05021  Biso   1.000  Cu
  Cu2      1.0000 0.51619  0.87489  0.44979  Biso   1.000  Cu
  Cu3      1.0000 0.98381  0.37489  0.05021  Biso   1.000  Cu
  Cu4      1.0000 0.01619  0.37489  0.44979  Biso   1.000  Cu
  Cu5      1.0000 0.51619  0.12511  0.94979  Biso   1.000  Cu
  Cu6      1.0000 0.48381  0.12511  0.55021  Biso   1.000  Cu
  Cu7      1.0000 0.01619  0.62511  0.94979  Biso   1.000  Cu
  Cu8      1.0000 0.98381  0.62511  0.55021  Biso   1.000  Cu
  Cl1      1.0000 0.53924  0.02236  0.12367  Biso   1.000  Cl
  Cl2      1.0000 0.46076  0.02236  0.37633  Biso   1.000  Cl
  Cl3      1.0000 0.03924  0.52236  0.12367  Biso   1.000  Cl
  Cl4      1.0000 0.96076  0.52236  0.37633  Biso   1.000  Cl
  Cl5      1.0000 0.46076  0.97764  0.87633  Biso   1.000  Cl
  Cl6      1.0000 0.53924  0.97764  0.62367  Biso   1.000  Cl
  Cl7      1.0000 0.96076  0.47764  0.87633  Biso   1.000  Cl
  Cl8      1.0000 0.03924  0.47764  0.62367  Biso   1.000  Cl
  S1       1.0000 0.52776  0.73528  0.20542  Biso   1.000  S
  S2       1.0000 0.47224  0.73528  0.29458  Biso   1.000  S
  S3       1.0000 0.02776  0.23528  0.20542  Biso   1.000  S
  S4       1.0000 0.97224  0.23528  0.29458  Biso   1.000  S
  S5       1.0000 0.47224  0.26472  0.79458  Biso   1.000  S
  S6       1.0000 0.52776  0.26472  0.70542  Biso   1.000  S
  S7       1.0000 0.97224  0.76472  0.79458  Biso   1.000  S
  S8       1.0000 0.02776  0.76472  0.70542  Biso   1.000  S
  C1       1.0000 0.42060  0.66560  0.04410  Biso   1.000  C
  C2       1.0000 0.57940  0.66560  0.45590  Biso   1.000  C
  C3       1.0000 0.92060  0.16560  0.04410  Biso   1.000  C
  C4       1.0000 0.07940  0.16560  0.45590  Biso   1.000  C
  C5       1.0000 0.57940  0.33440  0.95590  Biso   1.000  C
  C6       1.0000 0.42060  0.33440  0.54410  Biso   1.000  C
  C7       1.0000 0.07940  0.83440  0.95590  Biso   1.000  C
  C8       1.0000 0.92060  0.83440  0.54410  Biso   1.000  C
  H1       1.0000 0.39900  0.60300  0.00480  Biso   1.000  H
  H2       1.0000 0.60100  0.60300  0.49520  Biso   1.000  H
  H3       1.0000 0.89900  0.10300  0.00480  Biso   1.000  H
  H4       1.0000 0.10100  0.10300  0.49520  Biso   1.000  H
  H5       1.0000 0.60100  0.39700  0.99520  Biso   1.000  H
  H6       1.0000 0.39900  0.39700  0.50480  Biso   1.000  H
  H7       1.0000 0.10100  0.89700  0.99520  Biso   1.000  H
  H8       1.0000 0.89900  0.89700  0.50480  Biso   1.000  H
  H9       1.0000 0.39080  0.69070  0.07870  Biso   1.000  H
  H10      1.0000 0.60920  0.69070  0.42130  Biso   1.000  H
  H11      1.0000 0.89080  0.19070  0.07870  Biso   1.000  H
  H12      1.0000 0.10920  0.19070  0.42130  Biso   1.000  H
  H13      1.0000 0.60920  0.30930  0.92130  Biso   1.000  H
  H14      1.0000 0.39080  0.30930  0.57870  Biso   1.000  H
  H15      1.0000 0.10920  0.80930  0.92130  Biso   1.000  H
  H16      1.0000 0.89080  0.80930  0.57870  Biso   1.000  H
  C9       1.0000 0.48647  0.63130  0.11880  Biso   1.000  C
  C10      1.0000 0.51353  0.63130  0.38120  Biso   1.000  C
  C11      1.0000 0.98647  0.13130  0.11880  Biso   1.000  C
  C12      1.0000 0.01353  0.13130  0.38120  Biso   1.000  C
  C13      1.0000 0.51353  0.36870  0.88120  Biso   1.000  C
  C14      1.0000 0.48647  0.36870  0.61880  Biso   1.000  C
  C15      1.0000 0.01353  0.86870  0.88120  Biso   1.000  C
  C16      1.0000 0.98647  0.86870  0.61880  Biso   1.000  C
  H17      1.0000 0.51690  0.60800  0.08450  Biso   1.000  H
  H18      1.0000 0.48310  0.60800  0.41550  Biso   1.000  H
  H19      1.0000 0.01690  0.10800  0.08450  Biso   1.000  H
  H20      1.0000 0.98310  0.10800  0.41550  Biso   1.000  H
  H21      1.0000 0.48310  0.39200  0.91550  Biso   1.000  H
  H22      1.0000 0.51690  0.39200  0.58450  Biso   1.000  H
  H23      1.0000 0.98310  0.89200  0.91550  Biso   1.000  H
  H24      1.0000 0.01690  0.89200  0.58450  Biso   1.000  H
  H25      1.0000 0.47830  0.56970  0.15520  Biso   1.000  H
  H26      1.0000 0.52170  0.56970  0.34480  Biso   1.000  H
  H27      1.0000 0.97830  0.06970  0.15520  Biso   1.000  H
  H28      1.0000 0.02170  0.06970  0.34480  Biso   1.000  H
  H29      1.0000 0.52170  0.43030  0.84480  Biso   1.000  H
  H30      1.0000 0.47830  0.43030  0.65520  Biso   1.000  H
  H31      1.0000 0.02170  0.93030  0.84480  Biso   1.000  H
  H32      1.0000 0.97830  0.93030  0.65520  Biso   1.000  H
  C17      1.0000 0.53200  0.72560  0.94470  Biso   1.000  C
  C18      1.0000 0.46800  0.72560  0.55530  Biso   1.000  C
  C19      1.0000 0.03200  0.22560  0.94470  Biso   1.000  C
  C20      1.0000 0.96800  0.22560  0.55530  Biso   1.000  C
  C21      1.0000 0.46800  0.27440  0.05530  Biso   1.000  C
  C22      1.0000 0.53200  0.27440  0.44470  Biso   1.000  C
  C23      1.0000 0.96800  0.77440  0.05530  Biso   1.000  C
  C24      1.0000 0.03200  0.77440  0.44470  Biso   1.000  C
  C25      1.0000 0.57020  0.66980  0.90080  Biso   1.000  C
  C26      1.0000 0.42980  0.66980  0.59920  Biso   1.000  C
  C27      1.0000 0.07020  0.16980  0.90080  Biso   1.000  C
  C28      1.0000 0.92980  0.16980  0.59920  Biso   1.000  C
  C29      1.0000 0.42980  0.33020  0.09920  Biso   1.000  C
  C30      1.0000 0.57020  0.33020  0.40080  Biso   1.000  C
  C31      1.0000 0.92980  0.83020  0.09920  Biso   1.000  C
  C32      1.0000 0.07020  0.83020  0.40080  Biso   1.000  C
  H33      1.0000 0.54950  0.62540  0.84610  Biso   1.000  H
  H34      1.0000 0.45050  0.62540  0.65390  Biso   1.000  H
  H35      1.0000 0.04950  0.12540  0.84610  Biso   1.000  H
  H36      1.0000 0.95050  0.12540  0.65390  Biso   1.000  H
  H37      1.0000 0.45050  0.37460  0.15390  Biso   1.000  H
  H38      1.0000 0.54950  0.37460  0.34610  Biso   1.000  H
  H39      1.0000 0.95050  0.87460  0.15390  Biso   1.000  H
  H40      1.0000 0.04950  0.87460  0.34610  Biso   1.000  H
  C33      1.0000 0.63920  0.68030  0.93870  Biso   1.000  C
  C34      1.0000 0.36080  0.68030  0.56130  Biso   1.000  C
  C35      1.0000 0.13920  0.18030  0.93870  Biso   1.000  C
  C36      1.0000 0.86080  0.18030  0.56130  Biso   1.000  C
  C37      1.0000 0.36080  0.31970  0.06130  Biso   1.000  C
  C38      1.0000 0.63920  0.31970  0.43870  Biso   1.000  C
  C39      1.0000 0.86080  0.81970  0.06130  Biso   1.000  C
  C40      1.0000 0.13920  0.81970  0.43870  Biso   1.000  C
  H41      1.0000 0.66690  0.64530  0.90910  Biso   1.000  H
  H42      1.0000 0.33310  0.64530  0.59090  Biso   1.000  H
  H43      1.0000 0.16690  0.14530  0.90910  Biso   1.000  H
  H44      1.0000 0.83310  0.14530  0.59090  Biso   1.000  H
  H45      1.0000 0.33310  0.35470  0.09090  Biso   1.000  H
  H46      1.0000 0.66690  0.35470  0.40910  Biso   1.000  H
  H47      1.0000 0.83310  0.85470  0.09090  Biso   1.000  H
  H48      1.0000 0.16690  0.85470  0.40910  Biso   1.000  H
  C41      1.0000 0.66650  0.74150  0.01860  Biso   1.000  C
  C42      1.0000 0.33350  0.74150  0.48140  Biso   1.000  C
  C43      1.0000 0.16650  0.24150  0.01860  Biso   1.000  C
  C44      1.0000 0.83350  0.24150  0.48140  Biso   1.000  C
  C45      1.0000 0.33350  0.25850  0.98140  Biso   1.000  C
  C46      1.0000 0.66650  0.25850  0.51860  Biso   1.000  C
  C47      1.0000 0.83350  0.75850  0.98140  Biso   1.000  C
  C48      1.0000 0.16650  0.75850  0.51860  Biso   1.000  C
  H49      1.0000 0.71390  0.74710  0.04660  Biso   1.000  H
  H50      1.0000 0.28610  0.74710  0.45340  Biso   1.000  H
  H51      1.0000 0.21390  0.24710  0.04660  Biso   1.000  H
  H52      1.0000 0.78610  0.24710  0.45340  Biso   1.000  H
  H53      1.0000 0.28610  0.25290  0.95340  Biso   1.000  H
  H54      1.0000 0.71390  0.25290  0.54660  Biso   1.000  H
  H55      1.0000 0.78610  0.75290  0.95340  Biso   1.000  H
  H56      1.0000 0.21390  0.75290  0.54660  Biso   1.000  H
  C49      1.0000 0.62616  0.79730  0.06110  Biso   1.000  C
  C50      1.0000 0.37384  0.79730  0.43890  Biso   1.000  C
  C51      1.0000 0.12616  0.29730  0.06110  Biso   1.000  C
  C52      1.0000 0.87384  0.29730  0.43890  Biso   1.000  C
  C53      1.0000 0.37384  0.20270  0.93890  Biso   1.000  C
  C54      1.0000 0.62616  0.20270  0.56110  Biso   1.000  C
  C55      1.0000 0.87384  0.70270  0.93890  Biso   1.000  C
  C56      1.0000 0.12616  0.70270  0.56110  Biso   1.000  C
  C57      1.0000 0.45716  0.71370  0.90540  Biso   1.000  C
  C58      1.0000 0.54284  0.71370  0.59460  Biso   1.000  C
  C59      1.0000 0.95716  0.21370  0.90540  Biso   1.000  C
  C60      1.0000 0.04284  0.21370  0.59460  Biso   1.000  C
  C61      1.0000 0.54284  0.28630  0.09460  Biso   1.000  C
  C62      1.0000 0.45716  0.28630  0.40540  Biso   1.000  C
  C63      1.0000 0.04284  0.78630  0.09460  Biso   1.000  C
  C64      1.0000 0.95716  0.78630  0.40540  Biso   1.000  C
  H57      1.0000 0.43870  0.75460  0.84410  Biso   1.000  H
  H58      1.0000 0.56130  0.75460  0.65590  Biso   1.000  H
  H59      1.0000 0.93870  0.25460  0.84410  Biso   1.000  H
  H60      1.0000 0.06130  0.25460  0.65590  Biso   1.000  H
  H61      1.0000 0.56130  0.24540  0.15590  Biso   1.000  H
  H62      1.0000 0.43870  0.24540  0.34410  Biso   1.000  H
  H63      1.0000 0.06130  0.74540  0.15590  Biso   1.000  H
  H64      1.0000 0.93870  0.74540  0.34410  Biso   1.000  H
  H65      1.0000 0.44560  0.63820  0.89020  Biso   1.000  H
  H66      1.0000 0.55440  0.63820  0.60980  Biso   1.000  H
  H67      1.0000 0.94560  0.13820  0.89020  Biso   1.000  H
  H68      1.0000 0.05440  0.13820  0.60980  Biso   1.000  H
  H69      1.0000 0.55440  0.36180  0.10980  Biso   1.000  H
  H70      1.0000 0.44560  0.36180  0.39020  Biso   1.000  H
  H71      1.0000 0.05440  0.86180  0.10980  Biso   1.000  H
  H72      1.0000 0.94560  0.86180  0.39020  Biso   1.000  H
  C65      1.0000 0.65903  0.85640  0.15050  Biso   1.000  C
  C66      1.0000 0.34097  0.85640  0.34950  Biso   1.000  C
  C67      1.0000 0.15903  0.35640  0.15050  Biso   1.000  C
  C68      1.0000 0.84097  0.35640  0.34950  Biso   1.000  C
  C69      1.0000 0.34097  0.14360  0.84950  Biso   1.000  C
  C70      1.0000 0.65903  0.14360  0.65050  Biso   1.000  C
  C71      1.0000 0.84097  0.64360  0.84950  Biso   1.000  C
  C72      1.0000 0.15903  0.64360  0.65050  Biso   1.000  C
  H73      1.0000 0.66910  0.92830  0.13420  Biso   1.000  H
  H74      1.0000 0.33090  0.92830  0.36580  Biso   1.000  H
  H75      1.0000 0.16910  0.42830  0.13420  Biso   1.000  H
  H76      1.0000 0.83090  0.42830  0.36580  Biso   1.000  H
  H77      1.0000 0.33090  0.07170  0.86580  Biso   1.000  H
  H78      1.0000 0.66910  0.07170  0.63420  Biso   1.000  H
  H79      1.0000 0.83090  0.57170  0.86580  Biso   1.000  H
  H80      1.0000 0.16910  0.57170  0.63420  Biso   1.000  H
  H81      1.0000 0.70080  0.82070  0.18850  Biso   1.000  H
  H82      1.0000 0.29920  0.82070  0.31150  Biso   1.000  H
  H83      1.0000 0.20080  0.32070  0.18850  Biso   1.000  H
  H84      1.0000 0.79920  0.32070  0.31150  Biso   1.000  H
  H85      1.0000 0.29920  0.17930  0.81150  Biso   1.000  H
  H86      1.0000 0.70080  0.17930  0.68850  Biso   1.000  H
  H87      1.0000 0.79920  0.67930  0.81150  Biso   1.000  H
  H88      1.0000 0.20080  0.67930  0.68850  Biso   1.000  H
  H89      1.0000 0.62930  0.86010  0.18880  Biso   1.000  H
  H90      1.0000 0.37070  0.86010  0.31120  Biso   1.000  H
  H91      1.0000 0.12930  0.36010  0.18880  Biso   1.000  H
  H92      1.0000 0.87070  0.36010  0.31120  Biso   1.000  H
  H93      1.0000 0.37070  0.13990  0.81120  Biso   1.000  H
  H94      1.0000 0.62930  0.13990  0.68880  Biso   1.000  H
  H95      1.0000 0.87070  0.63990  0.81120  Biso   1.000  H
  H96      1.0000 0.12930  0.63990  0.68880  Biso   1.000  H
  C73      1.0000 0.34143  0.87090  0.99460  Biso   1.000  C
  C74      1.0000 0.65857  0.87090  0.50540  Biso   1.000  C
  C75      1.0000 0.84143  0.37090  0.99460  Biso   1.000  C
  C76      1.0000 0.15857  0.37090  0.50540  Biso   1.000  C
  C77      1.0000 0.65857  0.12910  0.00540  Biso   1.000  C
  C78      1.0000 0.34143  0.12910  0.49460  Biso   1.000  C
  C79      1.0000 0.15857  0.62910  0.00540  Biso   1.000  C
  C80      1.0000 0.84143  0.62910  0.49460  Biso   1.000  C
  C81      1.0000 0.27667  0.89240  0.99190  Biso   1.000  C
  C82      1.0000 0.72333  0.89240  0.50810  Biso   1.000  C
  C83      1.0000 0.77667  0.39240  0.99190  Biso   1.000  C
  C84      1.0000 0.22333  0.39240  0.50810  Biso   1.000  C
  C85      1.0000 0.72333  0.10760  0.00810  Biso   1.000  C
  C86      1.0000 0.27667  0.10760  0.49190  Biso   1.000  C
  C87      1.0000 0.22333  0.60760  0.00810  Biso   1.000  C
  C88      1.0000 0.77667  0.60760  0.49190  Biso   1.000  C
  H97      1.0000 0.23910  0.85860  0.94580  Biso   1.000  H
  H98      1.0000 0.76090  0.85860  0.55420  Biso   1.000  H
  H99      1.0000 0.73910  0.35860  0.94580  Biso   1.000  H
  H100     1.0000 0.26090  0.35860  0.55420  Biso   1.000  H
  H101     1.0000 0.76090  0.14140  0.05420  Biso   1.000  H
  H102     1.0000 0.23910  0.14140  0.44580  Biso   1.000  H
  H103     1.0000 0.26090  0.64140  0.05420  Biso   1.000  H
  H104     1.0000 0.73910  0.64140  0.44580  Biso   1.000  H
  C89      1.0000 0.26828  0.96540  0.05900  Biso   1.000  C
  C90      1.0000 0.73172  0.96540  0.44100  Biso   1.000  C
  C91      1.0000 0.76828  0.46540  0.05900  Biso   1.000  C
  C92      1.0000 0.23172  0.46540  0.44100  Biso   1.000  C
  C93      1.0000 0.73172  0.03460  0.94100  Biso   1.000  C
  C94      1.0000 0.26828  0.03460  0.55900  Biso   1.000  C
  C95      1.0000 0.23172  0.53460  0.94100  Biso   1.000  C
  C96      1.0000 0.76828  0.53460  0.55900  Biso   1.000  C
  H105     1.0000 0.22450  0.98190  0.05820  Biso   1.000  H
  H106     1.0000 0.77550  0.98190  0.44180  Biso   1.000  H
  H107     1.0000 0.72450  0.48190  0.05820  Biso   1.000  H
  H108     1.0000 0.27550  0.48190  0.44180  Biso   1.000  H
  H109     1.0000 0.77550  0.01810  0.94180  Biso   1.000  H
  H110     1.0000 0.22450  0.01810  0.55820  Biso   1.000  H
  H111     1.0000 0.27550  0.51810  0.94180  Biso   1.000  H
  H112     1.0000 0.72450  0.51810  0.55820  Biso   1.000  H
  C97      1.0000 0.32297  0.01350  0.12610  Biso   1.000  C
  C98      1.0000 0.67703  0.01350  0.37390  Biso   1.000  C
  C99      1.0000 0.82297  0.51350  0.12610  Biso   1.000  C
  C100     1.0000 0.17703  0.51350  0.37390  Biso   1.000  C
  C101     1.0000 0.67703  0.98650  0.87390  Biso   1.000  C
  C102     1.0000 0.32297  0.98650  0.62610  Biso   1.000  C
  C103     1.0000 0.17703  0.48650  0.87390  Biso   1.000  C
  C104     1.0000 0.82297  0.48650  0.62610  Biso   1.000  C
  H113     1.0000 0.31760  0.06180  0.17270  Biso   1.000  H
  H114     1.0000 0.68240  0.06180  0.32730  Biso   1.000  H
  H115     1.0000 0.81760  0.56180  0.17270  Biso   1.000  H
  H116     1.0000 0.18240  0.56180  0.32730  Biso   1.000  H
  H117     1.0000 0.68240  0.93820  0.82730  Biso   1.000  H
  H118     1.0000 0.31760  0.93820  0.67270  Biso   1.000  H
  H119     1.0000 0.18240  0.43820  0.82730  Biso   1.000  H
  H120     1.0000 0.81760  0.43820  0.67270  Biso   1.000  H
  C105     1.0000 0.38559  0.98960  0.12390  Biso   1.000  C
  C106     1.0000 0.61441  0.98960  0.37610  Biso   1.000  C
  C107     1.0000 0.88559  0.48960  0.12390  Biso   1.000  C
  C108     1.0000 0.11441  0.48960  0.37610  Biso   1.000  C
  C109     1.0000 0.61441  0.01040  0.87610  Biso   1.000  C
  C110     1.0000 0.38559  0.01040  0.62390  Biso   1.000  C
  C111     1.0000 0.11441  0.51040  0.87610  Biso   1.000  C
  C112     1.0000 0.88559  0.51040  0.62390  Biso   1.000  C
  H121     1.0000 0.42370  0.02290  0.16930  Biso   1.000  H
  H122     1.0000 0.57630  0.02290  0.33070  Biso   1.000  H
  H123     1.0000 0.92370  0.52290  0.16930  Biso   1.000  H
  H124     1.0000 0.07630  0.52290  0.33070  Biso   1.000  H
  H125     1.0000 0.57630  0.97710  0.83070  Biso   1.000  H
  H126     1.0000 0.42370  0.97710  0.66930  Biso   1.000  H
  H127     1.0000 0.07630  0.47710  0.83070  Biso   1.000  H
  H128     1.0000 0.92370  0.47710  0.66930  Biso   1.000  H
  C113     1.0000 0.35805  0.79720  0.92580  Biso   1.000  C
  C114     1.0000 0.64195  0.79720  0.57420  Biso   1.000  C
  C115     1.0000 0.85805  0.29720  0.92580  Biso   1.000  C
  C116     1.0000 0.14195  0.29720  0.57420  Biso   1.000  C
  C117     1.0000 0.64195  0.20280  0.07420  Biso   1.000  C
  C118     1.0000 0.35805  0.20280  0.42580  Biso   1.000  C
  C119     1.0000 0.14195  0.70280  0.07420  Biso   1.000  C
  C120     1.0000 0.85805  0.70280  0.42580  Biso   1.000  C
  H129     1.0000 0.35730  0.83630  0.86670  Biso   1.000  H
  H130     1.0000 0.64270  0.83630  0.63330  Biso   1.000  H
  H131     1.0000 0.85730  0.33630  0.86670  Biso   1.000  H
  H132     1.0000 0.14270  0.33630  0.63330  Biso   1.000  H
  H133     1.0000 0.64270  0.16370  0.13330  Biso   1.000  H
  H134     1.0000 0.35730  0.16370  0.36670  Biso   1.000  H
  H135     1.0000 0.14270  0.66370  0.13330  Biso   1.000  H
  H136     1.0000 0.85730  0.66370  0.36670  Biso   1.000  H
  H137     1.0000 0.32440  0.73960  0.90580  Biso   1.000  H
  H138     1.0000 0.67560  0.73960  0.59420  Biso   1.000  H
  H139     1.0000 0.82440  0.23960  0.90580  Biso   1.000  H
  H140     1.0000 0.17560  0.23960  0.59420  Biso   1.000  H
  H141     1.0000 0.67560  0.26040  0.09420  Biso   1.000  H
  H142     1.0000 0.32440  0.26040  0.40580  Biso   1.000  H
  H143     1.0000 0.17560  0.76040  0.09420  Biso   1.000  H
  H144     1.0000 0.82440  0.76040  0.40580  Biso   1.000  H
  N1       1.0000 0.42641  0.75157  0.97619  Biso   1.000  N
  N2       1.0000 0.57359  0.75157  0.52381  Biso   1.000  N
  N3       1.0000 0.92641  0.25157  0.97619  Biso   1.000  N
  N4       1.0000 0.07359  0.25157  0.52381  Biso   1.000  N
  N5       1.0000 0.57359  0.24843  0.02381  Biso   1.000  N
  N6       1.0000 0.42641  0.24843  0.47619  Biso   1.000  N
  N7       1.0000 0.07359  0.74843  0.02381  Biso   1.000  N
  N8       1.0000 0.92641  0.74843  0.47619  Biso   1.000  N
  N9       1.0000 0.55861  0.79131  0.02057  Biso   1.000  N
  N10      1.0000 0.44139  0.79131  0.47943  Biso   1.000  N
  N11      1.0000 0.05861  0.29131  0.02057  Biso   1.000  N
  N12      1.0000 0.94139  0.29131  0.47943  Biso   1.000  N
  N13      1.0000 0.44139  0.20869  0.97943  Biso   1.000  N
  N14      1.0000 0.55861  0.20869  0.52057  Biso   1.000  N
  N15      1.0000 0.94139  0.70869  0.97943  Biso   1.000  N
  N16      1.0000 0.05861  0.70869  0.52057  Biso   1.000  N
  N17      1.0000 0.39450  0.92011  0.05901  Biso   1.000  N
  N18      1.0000 0.60550  0.92011  0.44099  Biso   1.000  N
  N19      1.0000 0.89450  0.42011  0.05901  Biso   1.000  N
  N20      1.0000 0.10550  0.42011  0.44099  Biso   1.000  N
  N21      1.0000 0.60550  0.07989  0.94099  Biso   1.000  N
  N22      1.0000 0.39450  0.07989  0.55901  Biso   1.000  N
  N23      1.0000 0.10550  0.57989  0.94099  Biso   1.000  N
  N24      1.0000 0.89450  0.57989  0.55901  Biso   1.000  N
  Cl9      1.0000 0.32870  0.49340  0.76070  Biso   1.000  Cl
  Cl10     1.0000 0.67130  0.49340  0.73930  Biso   1.000  Cl
  Cl11     1.0000 0.82870  0.99340  0.76070  Biso   1.000  Cl
  Cl12     1.0000 0.17130  0.99340  0.73930  Biso   1.000  Cl
  Cl13     1.0000 0.67130  0.50660  0.23930  Biso   1.000  Cl
  Cl14     1.0000 0.32870  0.50660  0.26070  Biso   1.000  Cl
  Cl15     1.0000 0.17130  0.00660  0.23930  Biso   1.000  Cl
  Cl16     1.0000 0.82870  0.00660  0.26070  Biso   1.000  Cl
  O1       1.0000 0.27030  0.42750  0.74300  Biso   1.000  O
  O2       1.0000 0.72970  0.42750  0.75700  Biso   1.000  O
  O3       1.0000 0.77030  0.92750  0.74300  Biso   1.000  O
  O4       1.0000 0.22970  0.92750  0.75700  Biso   1.000  O
  O5       1.0000 0.72970  0.57250  0.25700  Biso   1.000  O
  O6       1.0000 0.27030  0.57250  0.24300  Biso   1.000  O
  O7       1.0000 0.22970  0.07250  0.25700  Biso   1.000  O
  O8       1.0000 0.77030  0.07250  0.24300  Biso   1.000  O
  O9       1.0000 0.36280  0.46730  0.69510  Biso   1.000  O
  O10      1.0000 0.63720  0.46730  0.80490  Biso   1.000  O
  O11      1.0000 0.86280  0.96730  0.69510  Biso   1.000  O
  O12      1.0000 0.13720  0.96730  0.80490  Biso   1.000  O
  O13      1.0000 0.63720  0.53270  0.30490  Biso   1.000  O
  O14      1.0000 0.36280  0.53270  0.19510  Biso   1.000  O
  O15      1.0000 0.13720  0.03270  0.30490  Biso   1.000  O
  O16      1.0000 0.86280  0.03270  0.19510  Biso   1.000  O
  O17      1.0000 0.30420  0.60060  0.74600  Biso   1.000  O
  O18      1.0000 0.69580  0.60060  0.75400  Biso   1.000  O
  O19      1.0000 0.80420  0.10060  0.74600  Biso   1.000  O
  O20      1.0000 0.19580  0.10060  0.75400  Biso   1.000  O
  O21      1.0000 0.69580  0.39940  0.25400  Biso   1.000  O
  O22      1.0000 0.30420  0.39940  0.24600  Biso   1.000  O
  O23      1.0000 0.19580  0.89940  0.25400  Biso   1.000  O
  O24      1.0000 0.80420  0.89940  0.24600  Biso   1.000  O
  O25      1.0000 0.37010  0.48200  0.86050  Biso   1.000  O
  O26      1.0000 0.62990  0.48200  0.63950  Biso   1.000  O
  O27      1.0000 0.87010  0.98200  0.86050  Biso   1.000  O
  O28      1.0000 0.12990  0.98200  0.63950  Biso   1.000  O
  O29      1.0000 0.62990  0.51800  0.13950  Biso   1.000  O
  O30      1.0000 0.37010  0.51800  0.36050  Biso   1.000  O
  O31      1.0000 0.12990  0.01800  0.13950  Biso   1.000  O
  O32      1.0000 0.87010  0.01800  0.36050  Biso   1.000  O
  Cl17     1.0000 0.33440  0.49010  0.77360  Biso   1.000  Cl
  Cl18     1.0000 0.66560  0.49010  0.72640  Biso   1.000  Cl
  Cl19     1.0000 0.83440  0.99010  0.77360  Biso   1.000  Cl
  Cl20     1.0000 0.16560  0.99010  0.72640  Biso   1.000  Cl
  Cl21     1.0000 0.66560  0.50990  0.22640  Biso   1.000  Cl
  Cl22     1.0000 0.33440  0.50990  0.27360  Biso   1.000  Cl
  Cl23     1.0000 0.16560  0.00990  0.22640  Biso   1.000  Cl
  Cl24     1.0000 0.83440  0.00990  0.27360  Biso   1.000  Cl
  O33      1.0000 0.27710  0.42370  0.73840  Biso   1.000  O
  O34      1.0000 0.72290  0.42370  0.76160  Biso   1.000  O
  O35      1.0000 0.77710  0.92370  0.73840  Biso   1.000  O
  O36      1.0000 0.22290  0.92370  0.76160  Biso   1.000  O
  O37      1.0000 0.72290  0.57630  0.26160  Biso   1.000  O
  O38      1.0000 0.27710  0.57630  0.23840  Biso   1.000  O
  O39      1.0000 0.22290  0.07630  0.26160  Biso   1.000  O
  O40      1.0000 0.77710  0.07630  0.23840  Biso   1.000  O
  O41      1.0000 0.37560  0.47760  0.71440  Biso   1.000  O
  O42      1.0000 0.62440  0.47760  0.78560  Biso   1.000  O
  O43      1.0000 0.87560  0.97760  0.71440  Biso   1.000  O
  O44      1.0000 0.12440  0.97760  0.78560  Biso   1.000  O
  O45      1.0000 0.62440  0.52240  0.28560  Biso   1.000  O
  O46      1.0000 0.37560  0.52240  0.21440  Biso   1.000  O
  O47      1.0000 0.12440  0.02240  0.28560  Biso   1.000  O
  O48      1.0000 0.87560  0.02240  0.21440  Biso   1.000  O
  O49      1.0000 0.31760  0.60030  0.77170  Biso   1.000  O
  O50      1.0000 0.68240  0.60030  0.72830  Biso   1.000  O
  O51      1.0000 0.81760  0.10030  0.77170  Biso   1.000  O
  O52      1.0000 0.18240  0.10030  0.72830  Biso   1.000  O
  O53      1.0000 0.68240  0.39970  0.22830  Biso   1.000  O
  O54      1.0000 0.31760  0.39970  0.27170  Biso   1.000  O
  O55      1.0000 0.18240  0.89970  0.22830  Biso   1.000  O
  O56      1.0000 0.81760  0.89970  0.27170  Biso   1.000  O
  O57      1.0000 0.37350  0.46070  0.87260  Biso   1.000  O
  O58      1.0000 0.62650  0.46070  0.62740  Biso   1.000  O
  O59      1.0000 0.87350  0.96070  0.87260  Biso   1.000  O
  O60      1.0000 0.12650  0.96070  0.62740  Biso   1.000  O
  O61      1.0000 0.62650  0.53930  0.12740  Biso   1.000  O
  O62      1.0000 0.37350  0.53930  0.37260  Biso   1.000  O
  O63      1.0000 0.12650  0.03930  0.12740  Biso   1.000  O
  O64      1.0000 0.87350  0.03930  0.37260  Biso   1.000  O
