data_image0
_cell_length_a       16.948
_cell_length_b       11.144
_cell_length_c       17.273
_cell_angle_alpha    90
_cell_angle_beta     99.373
_cell_angle_gamma    90

_symmetry_space_group_name_H-M    "P 1"
_symmetry_int_tables_number       1

loop_
  _symmetry_equiv_pos_as_xyz
  'x, y, z'

loop_
  _atom_site_label
  _atom_site_occupancy
  _atom_site_fract_x
  _atom_site_fract_y
  _atom_site_fract_z
  _atom_site_thermal_displace_type
  _atom_site_B_iso_or_equiv
  _atom_site_type_symbol
  Cu1      1.0000 0.25000  0.15947  0.25000  Biso   1.000  Cu
  Cu2      1.0000 0.75000  0.84053  0.75000  Biso   1.000  Cu
  Cu3      1.0000 0.24765  0.06452  0.55466  Biso   1.000  Cu
  Cu4      1.0000 0.25235  0.06452  0.94534  Biso   1.000  Cu
  Cu5      1.0000 0.75235  0.93548  0.44534  Biso   1.000  Cu
  Cu6      1.0000 0.74765  0.93548  0.05466  Biso   1.000  Cu
  Cu7      1.0000 0.25000  0.05877  0.75000  Biso   1.000  Cu
  Cu8      1.0000 0.75000  0.94123  0.25000  Biso   1.000  Cu
  S1       1.0000 0.06252  0.22454  0.20895  Biso   1.000  S
  S2       1.0000 0.43748  0.22454  0.29105  Biso   1.000  S
  S3       1.0000 0.93748  0.77546  0.79105  Biso   1.000  S
  S4       1.0000 0.56252  0.77546  0.70895  Biso   1.000  S
  O1       1.0000 0.16490  0.06720  0.46040  Biso   1.000  O
  O2       1.0000 0.33510  0.06720  0.03960  Biso   1.000  O
  O3       1.0000 0.83510  0.93280  0.53960  Biso   1.000  O
  O4       1.0000 0.66490  0.93280  0.96040  Biso   1.000  O
  O5       1.0000 0.24770  0.14310  0.38550  Biso   1.000  O
  O6       1.0000 0.25230  0.14310  0.11450  Biso   1.000  O
  O7       1.0000 0.75230  0.85690  0.61450  Biso   1.000  O
  O8       1.0000 0.74770  0.85690  0.88550  Biso   1.000  O
  O9       1.0000 0.08410  0.25760  0.13460  Biso   1.000  O
  O10      1.0000 0.41590  0.25760  0.36540  Biso   1.000  O
  O11      1.0000 0.91590  0.74240  0.86540  Biso   1.000  O
  O12      1.0000 0.58410  0.74240  0.63460  Biso   1.000  O
  O13      1.0000 0.98630  0.16330  0.20690  Biso   1.000  O
  O14      1.0000 0.51370  0.16330  0.29310  Biso   1.000  O
  O15      1.0000 0.01370  0.83670  0.79310  Biso   1.000  O
  O16      1.0000 0.48630  0.83670  0.70690  Biso   1.000  O
  O17      1.0000 0.00220  0.68500  0.44580  Biso   1.000  O
  O18      1.0000 0.49780  0.68500  0.05420  Biso   1.000  O
  O19      1.0000 0.99780  0.31500  0.55420  Biso   1.000  O
  O20      1.0000 0.50220  0.31500  0.94580  Biso   1.000  O
  O21      1.0000 0.99370  0.78760  0.33450  Biso   1.000  O
  O22      1.0000 0.50630  0.78760  0.16550  Biso   1.000  O
  O23      1.0000 0.00630  0.21240  0.66550  Biso   1.000  O
  O24      1.0000 0.49370  0.21240  0.83450  Biso   1.000  O
  O25      1.0000 0.30440  0.05730  0.66000  Biso   1.000  O
  O26      1.0000 0.19560  0.05730  0.84000  Biso   1.000  O
  O27      1.0000 0.69560  0.94270  0.34000  Biso   1.000  O
  O28      1.0000 0.80440  0.94270  0.16000  Biso   1.000  O
  H1       1.0000 0.35990  0.05290  0.66810  Biso   1.000  H
  H2       1.0000 0.14010  0.05290  0.83190  Biso   1.000  H
  H3       1.0000 0.64010  0.94710  0.33190  Biso   1.000  H
  H4       1.0000 0.85990  0.94710  0.16810  Biso   1.000  H
  O29      1.0000 0.01580  0.62130  0.00380  Biso   1.000  O
  O30      1.0000 0.48420  0.62130  0.49620  Biso   1.000  O
  O31      1.0000 0.98420  0.37870  0.99620  Biso   1.000  O
  O32      1.0000 0.51580  0.37870  0.50380  Biso   1.000  O
  H5       1.0000 0.00750  0.54610  0.00300  Biso   1.000  H
  H6       1.0000 0.49250  0.54610  0.49700  Biso   1.000  H
  H7       1.0000 0.99250  0.45390  0.99700  Biso   1.000  H
  H8       1.0000 0.50750  0.45390  0.50300  Biso   1.000  H
  H9       1.0000 0.99730  0.65440  0.96510  Biso   1.000  H
  H10      1.0000 0.50270  0.65440  0.53490  Biso   1.000  H
  H11      1.0000 0.00270  0.34560  0.03490  Biso   1.000  H
  H12      1.0000 0.49730  0.34560  0.46510  Biso   1.000  H
  O33      1.0000 0.03360  0.85300  0.05794  Biso   1.000  O
  O34      1.0000 0.46640  0.85300  0.44206  Biso   1.000  O
  O35      1.0000 0.96640  0.14700  0.94206  Biso   1.000  O
  O36      1.0000 0.53360  0.14700  0.55794  Biso   1.000  O
  H13      1.0000 0.01410  0.87630  0.09650  Biso   1.000  H
  H14      1.0000 0.48590  0.87630  0.40350  Biso   1.000  H
  H15      1.0000 0.98590  0.12370  0.90350  Biso   1.000  H
  H16      1.0000 0.51410  0.12370  0.59650  Biso   1.000  H
  H17      1.0000 0.03980  0.77880  0.05910  Biso   1.000  H
  H18      1.0000 0.46020  0.77880  0.44090  Biso   1.000  H
  H19      1.0000 0.96020  0.22120  0.94090  Biso   1.000  H
  H20      1.0000 0.53980  0.22120  0.55910  Biso   1.000  H
  O37      1.0000 0.38120  0.05260  0.48567  Biso   1.000  O
  O38      1.0000 0.11880  0.05260  0.01433  Biso   1.000  O
  O39      1.0000 0.61880  0.94740  0.51433  Biso   1.000  O
  O40      1.0000 0.88120  0.94740  0.98567  Biso   1.000  O
  H21      1.0000 0.42190  0.08810  0.50750  Biso   1.000  H
  H22      1.0000 0.07810  0.08810  0.99250  Biso   1.000  H
  H23      1.0000 0.57810  0.91190  0.49250  Biso   1.000  H
  H24      1.0000 0.92190  0.91190  0.00750  Biso   1.000  H
  H25      1.0000 0.35950  0.08910  0.44610  Biso   1.000  H
  H26      1.0000 0.14050  0.08910  0.05390  Biso   1.000  H
  H27      1.0000 0.64050  0.91090  0.55390  Biso   1.000  H
  H28      1.0000 0.85950  0.91090  0.94610  Biso   1.000  H
  O41      1.0000 0.12250  0.05520  0.62880  Biso   1.000  O
  O42      1.0000 0.37750  0.05520  0.87120  Biso   1.000  O
  O43      1.0000 0.87750  0.94480  0.37120  Biso   1.000  O
  O44      1.0000 0.62250  0.94480  0.12880  Biso   1.000  O
  H29      1.0000 0.10050  0.99840  0.60300  Biso   1.000  H
  H30      1.0000 0.39950  0.99840  0.89700  Biso   1.000  H
  H31      1.0000 0.89950  0.00160  0.39700  Biso   1.000  H
  H32      1.0000 0.60050  0.00160  0.10300  Biso   1.000  H
  H33      1.0000 0.08950  0.09920  0.64530  Biso   1.000  H
  H34      1.0000 0.41050  0.09920  0.85470  Biso   1.000  H
  H35      1.0000 0.91050  0.90080  0.35470  Biso   1.000  H
  H36      1.0000 0.58950  0.90080  0.14530  Biso   1.000  H
  O45      1.0000 0.97710  0.90740  0.19480  Biso   1.000  O
  O46      1.0000 0.52290  0.90740  0.30520  Biso   1.000  O
  O47      1.0000 0.02290  0.09260  0.80520  Biso   1.000  O
  O48      1.0000 0.47710  0.09260  0.69480  Biso   1.000  O
  H37      1.0000 0.98000  0.86700  0.23530  Biso   1.000  H
  H38      1.0000 0.52000  0.86700  0.26470  Biso   1.000  H
  H39      1.0000 0.02000  0.13300  0.76470  Biso   1.000  H
  H40      1.0000 0.48000  0.13300  0.73530  Biso   1.000  H
  H41      1.0000 0.96710  0.97840  0.20160  Biso   1.000  H
  H42      1.0000 0.53290  0.97840  0.29840  Biso   1.000  H
  H43      1.0000 0.03290  0.02160  0.79840  Biso   1.000  H
  H44      1.0000 0.46710  0.02160  0.70160  Biso   1.000  H
  O49      1.0000 0.51290  0.12010  0.04640  Biso   1.000  O
  O50      1.0000 0.98710  0.12010  0.45360  Biso   1.000  O
  O51      1.0000 0.48710  0.87990  0.95360  Biso   1.000  O
  O52      1.0000 0.01290  0.87990  0.54640  Biso   1.000  O
  H45      1.0000 0.50600  0.18200  0.01910  Biso   1.000  H
  H46      1.0000 0.99400  0.18200  0.48090  Biso   1.000  H
  H47      1.0000 0.49400  0.81800  0.98090  Biso   1.000  H
  H48      1.0000 0.00600  0.81800  0.51910  Biso   1.000  H
  H49      1.0000 0.47140  0.07880  0.04010  Biso   1.000  H
  H50      1.0000 0.02860  0.07880  0.45990  Biso   1.000  H
  H51      1.0000 0.52860  0.92120  0.95990  Biso   1.000  H
  H52      1.0000 0.97140  0.92120  0.54010  Biso   1.000  H
  N1       1.0000 0.25000  0.34180  0.25000  Biso   1.000  N
  N2       1.0000 0.75000  0.65820  0.75000  Biso   1.000  N
  N3       1.0000 0.25000  0.97290  0.25000  Biso   1.000  N
  N4       1.0000 0.75000  0.02710  0.75000  Biso   1.000  N
  N5       1.0000 0.25330  0.88220  0.54330  Biso   1.000  N
  N6       1.0000 0.24670  0.88220  0.95670  Biso   1.000  N
  N7       1.0000 0.74670  0.11780  0.45670  Biso   1.000  N
  N8       1.0000 0.75330  0.11780  0.04330  Biso   1.000  N
  N9       1.0000 0.25530  0.24720  0.55060  Biso   1.000  N
  N10      1.0000 0.24470  0.24720  0.94940  Biso   1.000  N
  N11      1.0000 0.74470  0.75280  0.44940  Biso   1.000  N
  N12      1.0000 0.75530  0.75280  0.05060  Biso   1.000  N
  N13      1.0000 0.25000  0.87580  0.75000  Biso   1.000  N
  N14      1.0000 0.75000  0.12420  0.25000  Biso   1.000  N
  N15      1.0000 0.25000  0.24270  0.75000  Biso   1.000  N
  N16      1.0000 0.75000  0.75730  0.25000  Biso   1.000  N
  N17      1.0000 0.13250  0.14970  0.25580  Biso   1.000  N
  N18      1.0000 0.36750  0.14970  0.24420  Biso   1.000  N
  N19      1.0000 0.86750  0.85030  0.74420  Biso   1.000  N
  N20      1.0000 0.63250  0.85030  0.75580  Biso   1.000  N
  C1       1.0000 0.18190  0.10190  0.39510  Biso   1.000  C
  C2       1.0000 0.31810  0.10190  0.10490  Biso   1.000  C
  C3       1.0000 0.81810  0.89810  0.60490  Biso   1.000  C
  C4       1.0000 0.68190  0.89810  0.89510  Biso   1.000  C
  C5       1.0000 0.11670  0.08260  0.32530  Biso   1.000  C
  C6       1.0000 0.38330  0.08260  0.17470  Biso   1.000  C
  C7       1.0000 0.88330  0.91740  0.67470  Biso   1.000  C
  C8       1.0000 0.61670  0.91740  0.82530  Biso   1.000  C
  H53      1.0000 0.11270  0.99770  0.31290  Biso   1.000  H
  H54      1.0000 0.38730  0.99770  0.18710  Biso   1.000  H
  H55      1.0000 0.88730  0.00230  0.68710  Biso   1.000  H
  H56      1.0000 0.61270  0.00230  0.81290  Biso   1.000  H
  H57      1.0000 0.06590  0.10830  0.33860  Biso   1.000  H
  H58      1.0000 0.43410  0.10830  0.16140  Biso   1.000  H
  H59      1.0000 0.93410  0.89170  0.66140  Biso   1.000  H
  H60      1.0000 0.56590  0.89170  0.83860  Biso   1.000  H
  C9       1.0000 0.04880  0.36280  0.25700  Biso   1.000  C
  C10      1.0000 0.45120  0.36280  0.24300  Biso   1.000  C
  C11      1.0000 0.95120  0.63720  0.74300  Biso   1.000  C
  C12      1.0000 0.54880  0.63720  0.75700  Biso   1.000  C
  C13      1.0000 0.03710  0.36370  0.33470  Biso   1.000  C
  C14      1.0000 0.46290  0.36370  0.16530  Biso   1.000  C
  C15      1.0000 0.96290  0.63630  0.66530  Biso   1.000  C
  C16      1.0000 0.53710  0.63630  0.83470  Biso   1.000  C
  H61      1.0000 0.03780  0.29150  0.36180  Biso   1.000  H
  H62      1.0000 0.46220  0.29150  0.13820  Biso   1.000  H
  H63      1.0000 0.96220  0.70850  0.63820  Biso   1.000  H
  H64      1.0000 0.53780  0.70850  0.86180  Biso   1.000  H
  C17      1.0000 0.02440  0.46870  0.37250  Biso   1.000  C
  C18      1.0000 0.47560  0.46870  0.12750  Biso   1.000  C
  C19      1.0000 0.97560  0.53130  0.62750  Biso   1.000  C
  C20      1.0000 0.52440  0.53130  0.87250  Biso   1.000  C
  H65      1.0000 0.01620  0.46660  0.42450  Biso   1.000  H
  H66      1.0000 0.48380  0.46660  0.07550  Biso   1.000  H
  H67      1.0000 0.98380  0.53340  0.57550  Biso   1.000  H
  H68      1.0000 0.51620  0.53340  0.92450  Biso   1.000  H
  C21      1.0000 0.02370  0.57860  0.33370  Biso   1.000  C
  C22      1.0000 0.47630  0.57860  0.16630  Biso   1.000  C
  C23      1.0000 0.97630  0.42140  0.66630  Biso   1.000  C
  C24      1.0000 0.52370  0.42140  0.83370  Biso   1.000  C
  C25      1.0000 0.03530  0.57840  0.25590  Biso   1.000  C
  C26      1.0000 0.46470  0.57840  0.24410  Biso   1.000  C
  C27      1.0000 0.96470  0.42160  0.74410  Biso   1.000  C
  C28      1.0000 0.53530  0.42160  0.75590  Biso   1.000  C
  H69      1.0000 0.03440  0.65060  0.22870  Biso   1.000  H
  H70      1.0000 0.46560  0.65060  0.27130  Biso   1.000  H
  H71      1.0000 0.96560  0.34940  0.77130  Biso   1.000  H
  H72      1.0000 0.53440  0.34940  0.72870  Biso   1.000  H
  C29      1.0000 0.04850  0.47150  0.21820  Biso   1.000  C
  C30      1.0000 0.45150  0.47150  0.28180  Biso   1.000  C
  C31      1.0000 0.95150  0.52850  0.78180  Biso   1.000  C
  C32      1.0000 0.54850  0.52850  0.71820  Biso   1.000  C
  H73      1.0000 0.05710  0.47310  0.16640  Biso   1.000  H
  H74      1.0000 0.44290  0.47310  0.33360  Biso   1.000  H
  H75      1.0000 0.94290  0.52690  0.83360  Biso   1.000  H
  H76      1.0000 0.55710  0.52690  0.66640  Biso   1.000  H
  C33      1.0000 0.00540  0.69330  0.37440  Biso   1.000  C
  C34      1.0000 0.49460  0.69330  0.12560  Biso   1.000  C
  C35      1.0000 0.99460  0.30670  0.62560  Biso   1.000  C
  C36      1.0000 0.50540  0.30670  0.87440  Biso   1.000  C
  C37      1.0000 0.25300  0.40310  0.31690  Biso   1.000  C
  C38      1.0000 0.24700  0.40310  0.18310  Biso   1.000  C
  C39      1.0000 0.74700  0.59690  0.68310  Biso   1.000  C
  C40      1.0000 0.75300  0.59690  0.81690  Biso   1.000  C
  H77      1.0000 0.25500  0.36100  0.36360  Biso   1.000  H
  H78      1.0000 0.24500  0.36100  0.13640  Biso   1.000  H
  H79      1.0000 0.74500  0.63900  0.63640  Biso   1.000  H
  H80      1.0000 0.75500  0.63900  0.86360  Biso   1.000  H
  C41      1.0000 0.25340  0.52520  0.31890  Biso   1.000  C
  C42      1.0000 0.24660  0.52520  0.18110  Biso   1.000  C
  C43      1.0000 0.74660  0.47480  0.68110  Biso   1.000  C
  C44      1.0000 0.75340  0.47480  0.81890  Biso   1.000  C
  H81      1.0000 0.25590  0.56460  0.36670  Biso   1.000  H
  H82      1.0000 0.24410  0.56460  0.13330  Biso   1.000  H
  H83      1.0000 0.74410  0.43540  0.63330  Biso   1.000  H
  H84      1.0000 0.75590  0.43540  0.86670  Biso   1.000  H
  C45      1.0000 0.25000  0.59190  0.25000  Biso   1.000  C
  C46      1.0000 0.75000  0.40810  0.75000  Biso   1.000  C
  C47      1.0000 0.25000  0.72340  0.25000  Biso   1.000  C
  C48      1.0000 0.75000  0.27660  0.75000  Biso   1.000  C
  C49      1.0000 0.29870  0.78730  0.30770  Biso   1.000  C
  C50      1.0000 0.20130  0.78730  0.19230  Biso   1.000  C
  C51      1.0000 0.70130  0.21270  0.69230  Biso   1.000  C
  C52      1.0000 0.79870  0.21270  0.80770  Biso   1.000  C
  H85      1.0000 0.33160  0.74780  0.34800  Biso   1.000  H
  H86      1.0000 0.16840  0.74780  0.15200  Biso   1.000  H
  H87      1.0000 0.66840  0.25220  0.65200  Biso   1.000  H
  H88      1.0000 0.83160  0.25220  0.84800  Biso   1.000  H
  C53      1.0000 0.29730  0.91080  0.30390  Biso   1.000  C
  C54      1.0000 0.20270  0.91080  0.19610  Biso   1.000  C
  C55      1.0000 0.70270  0.08920  0.69610  Biso   1.000  C
  C56      1.0000 0.79730  0.08920  0.80390  Biso   1.000  C
  H89      1.0000 0.33170  0.95310  0.34170  Biso   1.000  H
  H90      1.0000 0.16830  0.95310  0.15830  Biso   1.000  H
  H91      1.0000 0.66830  0.04690  0.65830  Biso   1.000  H
  H92      1.0000 0.83170  0.04690  0.84170  Biso   1.000  H
  C57      1.0000 0.31860  0.82150  0.57590  Biso   1.000  C
  C58      1.0000 0.18140  0.82150  0.92410  Biso   1.000  C
  C59      1.0000 0.68140  0.17850  0.42410  Biso   1.000  C
  C60      1.0000 0.81860  0.17850  0.07590  Biso   1.000  C
  H93      1.0000 0.36270  0.86460  0.60040  Biso   1.000  H
  H94      1.0000 0.13730  0.86460  0.89960  Biso   1.000  H
  H95      1.0000 0.63730  0.13540  0.39960  Biso   1.000  H
  H96      1.0000 0.86270  0.13540  0.10040  Biso   1.000  H
  C61      1.0000 0.32330  0.69940  0.57480  Biso   1.000  C
  C62      1.0000 0.17670  0.69940  0.92520  Biso   1.000  C
  C63      1.0000 0.67670  0.30060  0.42520  Biso   1.000  C
  C64      1.0000 0.82330  0.30060  0.07480  Biso   1.000  C
  H97      1.0000 0.37030  0.66170  0.59770  Biso   1.000  H
  H98      1.0000 0.12970  0.66170  0.90230  Biso   1.000  H
  H99      1.0000 0.62970  0.33830  0.40230  Biso   1.000  H
  H100     1.0000 0.87030  0.33830  0.09770  Biso   1.000  H
  C65      1.0000 0.25900  0.63060  0.53990  Biso   1.000  C
  C66      1.0000 0.24100  0.63060  0.96010  Biso   1.000  C
  C67      1.0000 0.74100  0.36940  0.46010  Biso   1.000  C
  C68      1.0000 0.75900  0.36940  0.03990  Biso   1.000  C
  C69      1.0000 0.19220  0.69460  0.50430  Biso   1.000  C
  C70      1.0000 0.30780  0.69460  0.99570  Biso   1.000  C
  C71      1.0000 0.80780  0.30540  0.49570  Biso   1.000  C
  C72      1.0000 0.69220  0.30540  0.00430  Biso   1.000  C
  H101     1.0000 0.14770  0.65400  0.47830  Biso   1.000  H
  H102     1.0000 0.35230  0.65400  0.02170  Biso   1.000  H
  H103     1.0000 0.85230  0.34600  0.52170  Biso   1.000  H
  H104     1.0000 0.64770  0.34600  0.97830  Biso   1.000  H
  C73      1.0000 0.19220  0.81720  0.50760  Biso   1.000  C
  C74      1.0000 0.30780  0.81720  0.99240  Biso   1.000  C
  C75      1.0000 0.80780  0.18280  0.49240  Biso   1.000  C
  C76      1.0000 0.69220  0.18280  0.00760  Biso   1.000  C
  H105     1.0000 0.14680  0.85750  0.48340  Biso   1.000  H
  H106     1.0000 0.35320  0.85750  0.01660  Biso   1.000  H
  H107     1.0000 0.85320  0.14250  0.51660  Biso   1.000  H
  H108     1.0000 0.64680  0.14250  0.98340  Biso   1.000  H
  C77      1.0000 0.25800  0.49890  0.54130  Biso   1.000  C
  C78      1.0000 0.24200  0.49890  0.95870  Biso   1.000  C
  C79      1.0000 0.74200  0.50110  0.45870  Biso   1.000  C
  C80      1.0000 0.75800  0.50110  0.04130  Biso   1.000  C
  C81      1.0000 0.32650  0.43010  0.54250  Biso   1.000  C
  C82      1.0000 0.17350  0.43010  0.95750  Biso   1.000  C
  C83      1.0000 0.67350  0.56990  0.45750  Biso   1.000  C
  C84      1.0000 0.82650  0.56990  0.04250  Biso   1.000  C
  H109     1.0000 0.37500  0.46750  0.53970  Biso   1.000  H
  H110     1.0000 0.12500  0.46750  0.96030  Biso   1.000  H
  H111     1.0000 0.62500  0.53250  0.46030  Biso   1.000  H
  H112     1.0000 0.87500  0.53250  0.03970  Biso   1.000  H
  C85      1.0000 0.32320  0.30760  0.54800  Biso   1.000  C
  C86      1.0000 0.17680  0.30760  0.95200  Biso   1.000  C
  C87      1.0000 0.67680  0.69240  0.45200  Biso   1.000  C
  C88      1.0000 0.82320  0.69240  0.04800  Biso   1.000  C
  H113     1.0000 0.37040  0.26430  0.55000  Biso   1.000  H
  H114     1.0000 0.12960  0.26430  0.95000  Biso   1.000  H
  H115     1.0000 0.62960  0.73570  0.45000  Biso   1.000  H
  H116     1.0000 0.87040  0.73570  0.05000  Biso   1.000  H
  C89      1.0000 0.18880  0.31190  0.54820  Biso   1.000  C
  C90      1.0000 0.31120  0.31190  0.95180  Biso   1.000  C
  C91      1.0000 0.81120  0.68810  0.45180  Biso   1.000  C
  C92      1.0000 0.68880  0.68810  0.04820  Biso   1.000  C
  H117     1.0000 0.14100  0.27150  0.54950  Biso   1.000  H
  H118     1.0000 0.35900  0.27150  0.95050  Biso   1.000  H
  H119     1.0000 0.85900  0.72850  0.45050  Biso   1.000  H
  H120     1.0000 0.64100  0.72850  0.04950  Biso   1.000  H
  C93      1.0000 0.18690  0.43540  0.54390  Biso   1.000  C
  C94      1.0000 0.31310  0.43540  0.95610  Biso   1.000  C
  C95      1.0000 0.81310  0.56460  0.45610  Biso   1.000  C
  C96      1.0000 0.68690  0.56460  0.04390  Biso   1.000  C
  H121     1.0000 0.13890  0.47630  0.54270  Biso   1.000  H
  H122     1.0000 0.36110  0.47630  0.95730  Biso   1.000  H
  H123     1.0000 0.86110  0.52370  0.45730  Biso   1.000  H
  H124     1.0000 0.63890  0.52370  0.04270  Biso   1.000  H
  C97      1.0000 0.31710  0.81460  0.77500  Biso   1.000  C
  C98      1.0000 0.18290  0.81460  0.72500  Biso   1.000  C
  C99      1.0000 0.68290  0.18540  0.22500  Biso   1.000  C
  C100     1.0000 0.81710  0.18540  0.27500  Biso   1.000  C
  H125     1.0000 0.36400  0.85680  0.79200  Biso   1.000  H
  H126     1.0000 0.13600  0.85680  0.70800  Biso   1.000  H
  H127     1.0000 0.63600  0.14320  0.20800  Biso   1.000  H
  H128     1.0000 0.86400  0.14320  0.29200  Biso   1.000  H
  C101     1.0000 0.31890  0.69180  0.77650  Biso   1.000  C
  C102     1.0000 0.18110  0.69180  0.72350  Biso   1.000  C
  C103     1.0000 0.68110  0.30820  0.22350  Biso   1.000  C
  C104     1.0000 0.81890  0.30820  0.27650  Biso   1.000  C
  H129     1.0000 0.36640  0.65220  0.79540  Biso   1.000  H
  H130     1.0000 0.13360  0.65220  0.70460  Biso   1.000  H
  H131     1.0000 0.63360  0.34780  0.20460  Biso   1.000  H
  H132     1.0000 0.86640  0.34780  0.29540  Biso   1.000  H
  C105     1.0000 0.25000  0.62590  0.75000  Biso   1.000  C
  C106     1.0000 0.75000  0.37410  0.25000  Biso   1.000  C
  C107     1.0000 0.25000  0.49340  0.75000  Biso   1.000  C
  C108     1.0000 0.75000  0.50660  0.25000  Biso   1.000  C
  C109     1.0000 0.31830  0.42860  0.74210  Biso   1.000  C
  C110     1.0000 0.18170  0.42860  0.75790  Biso   1.000  C
  C111     1.0000 0.68170  0.57140  0.25790  Biso   1.000  C
  C112     1.0000 0.81830  0.57140  0.24210  Biso   1.000  C
  H133     1.0000 0.36550  0.46820  0.73710  Biso   1.000  H
  H134     1.0000 0.13450  0.46820  0.76290  Biso   1.000  H
  H135     1.0000 0.63450  0.53180  0.26290  Biso   1.000  H
  H136     1.0000 0.86550  0.53180  0.23710  Biso   1.000  H
  C113     1.0000 0.31520  0.30480  0.74180  Biso   1.000  C
  C114     1.0000 0.18480  0.30480  0.75820  Biso   1.000  C
  C115     1.0000 0.68480  0.69520  0.25820  Biso   1.000  C
  C116     1.0000 0.81520  0.69520  0.24180  Biso   1.000  C
  H137     1.0000 0.36110  0.26260  0.73560  Biso   1.000  H
  H138     1.0000 0.13890  0.26260  0.76440  Biso   1.000  H
  H139     1.0000 0.63890  0.73740  0.26440  Biso   1.000  H
  H140     1.0000 0.86110  0.73740  0.23560  Biso   1.000  H
