data_image0
_cell_length_a       6.4642
_cell_length_b       12.5495
_cell_length_c       13.4911
_cell_angle_alpha    77.518
_cell_angle_beta     85.326
_cell_angle_gamma    84.413

_symmetry_space_group_name_H-M    "P 1"
_symmetry_int_tables_number       1

loop_
  _symmetry_equiv_pos_as_xyz
  'x, y, z'

loop_
  _atom_site_label
  _atom_site_occupancy
  _atom_site_fract_x
  _atom_site_fract_y
  _atom_site_fract_z
  _atom_site_thermal_displace_type
  _atom_site_B_iso_or_equiv
  _atom_site_type_symbol
  Cu1      1.0000 0.05559  0.37384  0.51404  Biso   1.000  Cu
  Cu2      1.0000 0.94441  0.62616  0.48596  Biso   1.000  Cu
  Cu3      1.0000 0.50000  0.50000  0.50000  Biso   1.000  Cu
  O1       1.0000 0.62690  0.14509  0.02684  Biso   1.000  O
  O2       1.0000 0.37310  0.85491  0.97316  Biso   1.000  O
  O3       1.0000 0.39760  0.32542  0.94813  Biso   1.000  O
  O4       1.0000 0.60240  0.67458  0.05187  Biso   1.000  O
  O5       1.0000 0.01120  0.36980  0.02879  Biso   1.000  O
  O6       1.0000 0.98880  0.63020  0.97121  Biso   1.000  O
  O7       1.0000 0.16980  0.40269  0.37345  Biso   1.000  O
  O8       1.0000 0.83020  0.59731  0.62655  Biso   1.000  O
  O9       1.0000 0.45550  0.49570  0.35940  Biso   1.000  O
  O10      1.0000 0.54450  0.50430  0.64060  Biso   1.000  O
  O11      1.0000 0.94670  0.33728  0.65542  Biso   1.000  O
  O12      1.0000 0.05330  0.66272  0.34458  Biso   1.000  O
  O13      1.0000 0.18500  0.19528  0.68249  Biso   1.000  O
  O14      1.0000 0.81500  0.80472  0.31751  Biso   1.000  O
  O15      1.0000 0.79020  0.51182  0.45793  Biso   1.000  O
  O16      1.0000 0.20980  0.48818  0.54207  Biso   1.000  O
  H1       1.0000 0.80100  0.51300  0.39620  Biso   1.000  H
  H2       1.0000 0.19900  0.48700  0.60380  Biso   1.000  H
  N1       1.0000 0.92220  0.24779  0.48041  Biso   1.000  N
  N2       1.0000 0.07780  0.75221  0.51959  Biso   1.000  N
  N3       1.0000 0.60320  0.27296  0.56844  Biso   1.000  N
  N4       1.0000 0.39680  0.72704  0.43156  Biso   1.000  N
  H3       1.0000 0.47560  0.25470  0.58720  Biso   1.000  H
  H4       1.0000 0.52440  0.74530  0.41280  Biso   1.000  H
  H5       1.0000 0.64950  0.32820  0.58820  Biso   1.000  H
  H6       1.0000 0.35050  0.67180  0.41180  Biso   1.000  H
  N5       1.0000 0.65000  0.13310  0.48162  Biso   1.000  N
  N6       1.0000 0.35000  0.86690  0.51838  Biso   1.000  N
  N7       1.0000 0.68290  0.99427  0.39495  Biso   1.000  N
  N8       1.0000 0.31710  0.00573  0.60505  Biso   1.000  N
  H7       1.0000 0.55650  0.97840  0.41910  Biso   1.000  H
  H8       1.0000 0.44350  0.02160  0.58090  Biso   1.000  H
  H9       1.0000 0.75380  0.95550  0.35460  Biso   1.000  H
  H10      1.0000 0.24620  0.04450  0.64540  Biso   1.000  H
  C1       1.0000 0.72830  0.21600  0.50925  Biso   1.000  C
  C2       1.0000 0.27170  0.78400  0.49075  Biso   1.000  C
  C3       1.0000 0.76750  0.07750  0.41957  Biso   1.000  C
  C4       1.0000 0.23250  0.92250  0.58043  Biso   1.000  C
  C5       1.0000 0.97040  0.10551  0.38416  Biso   1.000  C
  C6       1.0000 0.02960  0.89449  0.61584  Biso   1.000  C
  C7       1.0000 0.03790  0.18903  0.41907  Biso   1.000  C
  C8       1.0000 0.96210  0.81097  0.58093  Biso   1.000  C
  H11      1.0000 0.17640  0.20770  0.39910  Biso   1.000  H
  H12      1.0000 0.82360  0.79230  0.60090  Biso   1.000  H
  C9       1.0000 0.10950  0.04740  0.31316  Biso   1.000  C
  C10      1.0000 0.89050  0.95260  0.68684  Biso   1.000  C
  H13      1.0000 0.03370  0.98900  0.29710  Biso   1.000  H
  H14      1.0000 0.96630  0.01100  0.70290  Biso   1.000  H
  H15      1.0000 0.23400  0.01190  0.34890  Biso   1.000  H
  H16      1.0000 0.76600  0.98810  0.65110  Biso   1.000  H
  C11      1.0000 0.18020  0.12160  0.21415  Biso   1.000  C
  C12      1.0000 0.81980  0.87840  0.78585  Biso   1.000  C
  C13      1.0000 0.37220  0.09660  0.16852  Biso   1.000  C
  C14      1.0000 0.62780  0.90340  0.83148  Biso   1.000  C
  H17      1.0000 0.45770  0.03430  0.19930  Biso   1.000  H
  H18      1.0000 0.54230  0.96570  0.80070  Biso   1.000  H
  C15      1.0000 0.44090  0.16260  0.07736  Biso   1.000  C
  C16      1.0000 0.55910  0.83740  0.92264  Biso   1.000  C
  C17      1.0000 0.31870  0.25530  0.03339  Biso   1.000  C
  C18      1.0000 0.68130  0.74470  0.96661  Biso   1.000  C
  C19      1.0000 0.12230  0.27870  0.07834  Biso   1.000  C
  C20      1.0000 0.87770  0.72130  0.92166  Biso   1.000  C
  C21      1.0000 0.05370  0.21210  0.16871  Biso   1.000  C
  C22      1.0000 0.94630  0.78790  0.83129  Biso   1.000  C
  H19      1.0000 0.92020  0.22830  0.19950  Biso   1.000  H
  H20      1.0000 0.07980  0.77170  0.80050  Biso   1.000  H
  C23      1.0000 0.74870  0.04670  0.06650  Biso   1.000  C
  C24      1.0000 0.25130  0.95330  0.93350  Biso   1.000  C
  H21      1.0000 0.77140  0.04370  0.13800  Biso   1.000  H
  H22      1.0000 0.22860  0.95630  0.86200  Biso   1.000  H
  H23      1.0000 0.88330  0.04510  0.02750  Biso   1.000  H
  H24      1.0000 0.11670  0.95490  0.97250  Biso   1.000  H
  H25      1.0000 0.67540  0.98360  0.06120  Biso   1.000  H
  H26      1.0000 0.32460  0.01640  0.93880  Biso   1.000  H
  C25      1.0000 0.32340  0.30970  0.85546  Biso   1.000  C
  C26      1.0000 0.67660  0.69030  0.14454  Biso   1.000  C
  H27      1.0000 0.35080  0.23250  0.85120  Biso   1.000  H
  H28      1.0000 0.64920  0.76750  0.14880  Biso   1.000  H
  H29      1.0000 0.39540  0.35550  0.79730  Biso   1.000  H
  H30      1.0000 0.60460  0.64450  0.20270  Biso   1.000  H
  H31      1.0000 0.17320  0.33010  0.85450  Biso   1.000  H
  H32      1.0000 0.82680  0.66990  0.14550  Biso   1.000  H
  C27      1.0000 0.81010  0.39760  0.07320  Biso   1.000  C
  C28      1.0000 0.18990  0.60240  0.92680  Biso   1.000  C
  H33      1.0000 0.74670  0.46430  0.03080  Biso   1.000  H
  H34      1.0000 0.25330  0.53570  0.96920  Biso   1.000  H
  H35      1.0000 0.82420  0.41000  0.14150  Biso   1.000  H
  H36      1.0000 0.17580  0.59000  0.85850  Biso   1.000  H
  H37      1.0000 0.72150  0.33740  0.07780  Biso   1.000  H
  H38      1.0000 0.27850  0.66260  0.92220  Biso   1.000  H
  C29      1.0000 0.31250  0.45636  0.32324  Biso   1.000  C
  C30      1.0000 0.68750  0.54364  0.67676  Biso   1.000  C
  C31      1.0000 0.31420  0.47100  0.20995  Biso   1.000  C
  C32      1.0000 0.68580  0.52900  0.79005  Biso   1.000  C
  H39      1.0000 0.42870  0.51480  0.17810  Biso   1.000  H
  H40      1.0000 0.57130  0.48520  0.82190  Biso   1.000  H
  H41      1.0000 0.18160  0.50860  0.18620  Biso   1.000  H
  H42      1.0000 0.81840  0.49140  0.81380  Biso   1.000  H
  H43      1.0000 0.33340  0.39920  0.19150  Biso   1.000  H
  H44      1.0000 0.66660  0.60080  0.80850  Biso   1.000  H
  C33      1.0000 0.02130  0.24550  0.70791  Biso   1.000  C
  C34      1.0000 0.97870  0.75450  0.29209  Biso   1.000  C
  C35      1.0000 0.89200  0.19910  0.80290  Biso   1.000  C
  C36      1.0000 0.10800  0.80090  0.19710  Biso   1.000  C
  H45      1.0000 0.76930  0.16960  0.78420  Biso   1.000  H
  H46      1.0000 0.23070  0.83040  0.21580  Biso   1.000  H
  H47      1.0000 0.84740  0.25710  0.84020  Biso   1.000  H
  H48      1.0000 0.15260  0.74290  0.15980  Biso   1.000  H
  H49      1.0000 0.97540  0.14040  0.84610  Biso   1.000  H
  H50      1.0000 0.02460  0.85960  0.15390  Biso   1.000  H
