data_image0
_cell_length_a       9.79
_cell_length_b       12.662
_cell_length_c       11.109
_cell_angle_alpha    90
_cell_angle_beta     103.9
_cell_angle_gamma    90

_symmetry_space_group_name_H-M    "P 1"
_symmetry_int_tables_number       1

loop_
  _symmetry_equiv_pos_as_xyz
  'x, y, z'

loop_
  _atom_site_label
  _atom_site_occupancy
  _atom_site_fract_x
  _atom_site_fract_y
  _atom_site_fract_z
  _atom_site_thermal_displace_type
  _atom_site_B_iso_or_equiv
  _atom_site_type_symbol
  Cu1      1.0000 0.00000  0.00000  0.00000  Biso   1.000  Cu
  Cu2      1.0000 0.50000  0.50000  0.00000  Biso   1.000  Cu
  Cu3      1.0000 0.00000  0.00000  0.50000  Biso   1.000  Cu
  Cu4      1.0000 0.50000  0.50000  0.50000  Biso   1.000  Cu
  N1       1.0000 0.92490  0.14520  0.94060  Biso   1.000  N
  N2       1.0000 0.42490  0.64520  0.94060  Biso   1.000  N
  N3       1.0000 0.07510  0.14520  0.55940  Biso   1.000  N
  N4       1.0000 0.57510  0.64520  0.55940  Biso   1.000  N
  N5       1.0000 0.07510  0.85480  0.05940  Biso   1.000  N
  N6       1.0000 0.57510  0.35480  0.05940  Biso   1.000  N
  N7       1.0000 0.92490  0.85480  0.44060  Biso   1.000  N
  N8       1.0000 0.42490  0.35480  0.44060  Biso   1.000  N
  C1       1.0000 0.87460  0.16710  0.82120  Biso   1.000  C
  C2       1.0000 0.37460  0.66710  0.82120  Biso   1.000  C
  C3       1.0000 0.12540  0.16710  0.67880  Biso   1.000  C
  C4       1.0000 0.62540  0.66710  0.67880  Biso   1.000  C
  C5       1.0000 0.12540  0.83290  0.17880  Biso   1.000  C
  C6       1.0000 0.62540  0.33290  0.17880  Biso   1.000  C
  C7       1.0000 0.87460  0.83290  0.32120  Biso   1.000  C
  C8       1.0000 0.37460  0.33290  0.32120  Biso   1.000  C
  C9       1.0000 0.84240  0.26910  0.77600  Biso   1.000  C
  C10      1.0000 0.34240  0.76910  0.77600  Biso   1.000  C
  C11      1.0000 0.15760  0.26910  0.72400  Biso   1.000  C
  C12      1.0000 0.65760  0.76910  0.72400  Biso   1.000  C
  C13      1.0000 0.15760  0.73090  0.22400  Biso   1.000  C
  C14      1.0000 0.65760  0.23090  0.22400  Biso   1.000  C
  C15      1.0000 0.84240  0.73090  0.27600  Biso   1.000  C
  C16      1.0000 0.34240  0.23090  0.27600  Biso   1.000  C
  C17      1.0000 0.86230  0.35010  0.86120  Biso   1.000  C
  C18      1.0000 0.36230  0.85010  0.86120  Biso   1.000  C
  C19      1.0000 0.13770  0.35010  0.63880  Biso   1.000  C
  C20      1.0000 0.63770  0.85010  0.63880  Biso   1.000  C
  C21      1.0000 0.13770  0.64990  0.13880  Biso   1.000  C
  C22      1.0000 0.63770  0.14990  0.13880  Biso   1.000  C
  C23      1.0000 0.86230  0.64990  0.36120  Biso   1.000  C
  C24      1.0000 0.36230  0.14990  0.36120  Biso   1.000  C
  C25      1.0000 0.91020  0.32920  0.98740  Biso   1.000  C
  C26      1.0000 0.41020  0.82920  0.98740  Biso   1.000  C
  C27      1.0000 0.08980  0.32920  0.51260  Biso   1.000  C
  C28      1.0000 0.58980  0.82920  0.51260  Biso   1.000  C
  C29      1.0000 0.08980  0.67080  0.01260  Biso   1.000  C
  C30      1.0000 0.58980  0.17080  0.01260  Biso   1.000  C
  C31      1.0000 0.91020  0.67080  0.48740  Biso   1.000  C
  C32      1.0000 0.41020  0.17080  0.48740  Biso   1.000  C
  C33      1.0000 0.93960  0.22590  0.02340  Biso   1.000  C
  C34      1.0000 0.43960  0.72590  0.02340  Biso   1.000  C
  C35      1.0000 0.06040  0.22590  0.47660  Biso   1.000  C
  C36      1.0000 0.56040  0.72590  0.47660  Biso   1.000  C
  C37      1.0000 0.06040  0.77410  0.97660  Biso   1.000  C
  C38      1.0000 0.56040  0.27410  0.97660  Biso   1.000  C
  C39      1.0000 0.93960  0.77410  0.52340  Biso   1.000  C
  C40      1.0000 0.43960  0.27410  0.52340  Biso   1.000  C
  C41      1.0000 0.97810  0.19060  0.15140  Biso   1.000  C
  C42      1.0000 0.47810  0.69060  0.15140  Biso   1.000  C
  C43      1.0000 0.02190  0.19060  0.34860  Biso   1.000  C
  C44      1.0000 0.52190  0.69060  0.34860  Biso   1.000  C
  C45      1.0000 0.02190  0.80940  0.84860  Biso   1.000  C
  C46      1.0000 0.52190  0.30940  0.84860  Biso   1.000  C
  C47      1.0000 0.97810  0.80940  0.65140  Biso   1.000  C
  C48      1.0000 0.47810  0.30940  0.65140  Biso   1.000  C
  O1       1.0000 0.00000  0.25810  0.25000  Biso   1.000  O
  O2       1.0000 0.50000  0.75810  0.25000  Biso   1.000  O
  O3       1.0000 0.00000  0.74190  0.75000  Biso   1.000  O
  O4       1.0000 0.50000  0.24190  0.75000  Biso   1.000  O
  N9       1.0000 0.97600  0.09280  0.18520  Biso   1.000  N
  N10      1.0000 0.47600  0.59280  0.18520  Biso   1.000  N
  N11      1.0000 0.02400  0.09280  0.31480  Biso   1.000  N
  N12      1.0000 0.52400  0.59280  0.31480  Biso   1.000  N
  N13      1.0000 0.02400  0.90720  0.81480  Biso   1.000  N
  N14      1.0000 0.52400  0.40720  0.81480  Biso   1.000  N
  N15      1.0000 0.97600  0.90720  0.68520  Biso   1.000  N
  N16      1.0000 0.47600  0.40720  0.68520  Biso   1.000  N
  Cl1      1.0000 0.77480  0.93660  0.98100  Biso   1.000  Cl
  Cl2      1.0000 0.27480  0.43660  0.98100  Biso   1.000  Cl
  Cl3      1.0000 0.22520  0.93660  0.51900  Biso   1.000  Cl
  Cl4      1.0000 0.72520  0.43660  0.51900  Biso   1.000  Cl
  Cl5      1.0000 0.22520  0.06340  0.01900  Biso   1.000  Cl
  Cl6      1.0000 0.72520  0.56340  0.01900  Biso   1.000  Cl
  Cl7      1.0000 0.77480  0.06340  0.48100  Biso   1.000  Cl
  Cl8      1.0000 0.27480  0.56340  0.48100  Biso   1.000  Cl
  H1       1.0000 0.86500  0.11200  0.76900  Biso   1.000  H
  H2       1.0000 0.36500  0.61200  0.76900  Biso   1.000  H
  H3       1.0000 0.13500  0.11200  0.73100  Biso   1.000  H
  H4       1.0000 0.63500  0.61200  0.73100  Biso   1.000  H
  H5       1.0000 0.13500  0.88800  0.23100  Biso   1.000  H
  H6       1.0000 0.63500  0.38800  0.23100  Biso   1.000  H
  H7       1.0000 0.86500  0.88800  0.26900  Biso   1.000  H
  H8       1.0000 0.36500  0.38800  0.26900  Biso   1.000  H
  H9       1.0000 0.81200  0.27800  0.69200  Biso   1.000  H
  H10      1.0000 0.31200  0.77800  0.69200  Biso   1.000  H
  H11      1.0000 0.18800  0.27800  0.80800  Biso   1.000  H
  H12      1.0000 0.68800  0.77800  0.80800  Biso   1.000  H
  H13      1.0000 0.18800  0.72200  0.30800  Biso   1.000  H
  H14      1.0000 0.68800  0.22200  0.30800  Biso   1.000  H
  H15      1.0000 0.81200  0.72200  0.19200  Biso   1.000  H
  H16      1.0000 0.31200  0.22200  0.19200  Biso   1.000  H
  H17      1.0000 0.84100  0.41700  0.84200  Biso   1.000  H
  H18      1.0000 0.34100  0.91700  0.84200  Biso   1.000  H
  H19      1.0000 0.15900  0.41700  0.65800  Biso   1.000  H
  H20      1.0000 0.65900  0.91700  0.65800  Biso   1.000  H
  H21      1.0000 0.15900  0.58300  0.15800  Biso   1.000  H
  H22      1.0000 0.65900  0.08300  0.15800  Biso   1.000  H
  H23      1.0000 0.84100  0.58300  0.34200  Biso   1.000  H
  H24      1.0000 0.34100  0.08300  0.34200  Biso   1.000  H
  H25      1.0000 0.92200  0.37900  0.04700  Biso   1.000  H
  H26      1.0000 0.42200  0.87900  0.04700  Biso   1.000  H
  H27      1.0000 0.07800  0.37900  0.45300  Biso   1.000  H
  H28      1.0000 0.57800  0.87900  0.45300  Biso   1.000  H
  H29      1.0000 0.07800  0.62100  0.95300  Biso   1.000  H
  H30      1.0000 0.57800  0.12100  0.95300  Biso   1.000  H
  H31      1.0000 0.92200  0.62100  0.54700  Biso   1.000  H
  H32      1.0000 0.42200  0.12100  0.54700  Biso   1.000  H
